C25H26O5
APtclcactv06281817253D 0   0.00000     0.00000
 
 56 58  0  0  0  0  0  0  0  0999 V2000
   -7.5112    1.5479   -1.3967 C   0  0  0  0  0  0  0  0  0  0  0  0
   -7.0788    0.1076   -1.4944 C   0  0  0  0  0  0  0  0  0  0  0  0
   -5.8041   -0.1934   -1.5190 C   0  0  0  0  0  0  0  0  0  0  0  0
   -4.7711    0.8853   -1.3179 C   0  0  0  0  0  0  0  0  0  0  0  0
   -3.9234    0.5516   -0.1175 C   0  0  0  0  0  0  0  0  0  0  0  0
   -4.3969    0.8147    1.1603 C   0  0  0  0  0  0  0  0  0  0  0  0
   -3.6190    0.5087    2.2687 C   0  0  0  0  0  0  0  0  0  0  0  0
   -2.3726   -0.0580    2.1030 C   0  0  0  0  0  0  0  0  0  0  0  0
   -1.8941   -0.3235    0.8208 C   0  0  0  0  0  0  0  0  0  0  0  0
   -2.6798   -0.0203   -0.2897 C   0  0  0  0  0  0  0  0  0  0  0  0
   -0.5539   -0.9325    0.6390 C   0  0  0  0  0  0  0  0  0  0  0  0
   -0.4170   -2.1726    0.1034 C   0  0  0  0  0  0  0  0  0  0  0  0
    0.7648   -2.7671   -0.0635 O   0  0  0  0  0  0  0  0  0  0  0  0
    1.9139   -2.0667   -0.0110 C   0  0  0  0  0  0  0  0  0  0  0  0
    3.0918   -2.6105   -0.5040 C   0  0  0  0  0  0  0  0  0  0  0  0
    4.2730   -1.8889   -0.4367 C   0  0  0  0  0  0  0  0  0  0  0  0
    4.2987   -0.6166    0.1240 C   0  0  0  0  0  0  0  0  0  0  0  0
    3.1358   -0.0538    0.6174 C   0  0  0  0  0  0  0  0  0  0  0  0
    1.9379   -0.7743    0.5444 C   0  0  0  0  0  0  0  0  0  0  0  0
    0.6701   -0.2052    1.0296 C   0  0  0  0  0  0  0  0  0  0  0  0
    0.6327    0.8022    1.7153 O   0  0  0  0  0  0  0  0  0  0  0  0
    3.1559    1.1863    1.1681 O   0  0  0  0  0  0  0  0  0  0  0  0
    5.5945    0.1496    0.1936 C   0  0  0  0  0  0  0  0  0  0  0  0
    5.7594    0.9723   -1.0583 C   0  0  0  0  0  0  0  0  0  0  0  0
    5.8813    2.2740   -0.9753 C   0  0  0  0  0  0  0  0  0  0  0  0
    5.8223    2.9521    0.3693 C   0  0  0  0  0  0  0  0  0  0  0  0
    6.0804    3.0933   -2.2243 C   0  0  0  0  0  0  0  0  0  0  0  0
    5.4185   -2.4306   -0.9235 O   0  0  0  0  0  0  0  0  0  0  0  0
   -5.6246    1.3735    1.3268 O   0  0  0  0  0  0  0  0  0  0  0  0
   -8.1128   -0.9865   -1.5636 C   0  0  0  0  0  0  0  0  0  0  0  0
   -7.0527    2.1203   -2.2031 H   0  0  0  0  0  0  0  0  0  0  0  0
   -8.5963    1.6079   -1.4799 H   0  0  0  0  0  0  0  0  0  0  0  0
   -7.1971    1.9572   -0.4366 H   0  0  0  0  0  0  0  0  0  0  0  0
   -5.4935   -1.2147   -1.6834 H   0  0  0  0  0  0  0  0  0  0  0  0
   -4.1380    0.9515   -2.2028 H   0  0  0  0  0  0  0  0  0  0  0  0
   -5.2703    1.8406   -1.1560 H   0  0  0  0  0  0  0  0  0  0  0  0
   -3.9901    0.7150    3.2617 H   0  0  0  0  0  0  0  0  0  0  0  0
   -1.7678   -0.2954    2.9656 H   0  0  0  0  0  0  0  0  0  0  0  0
   -2.3121   -0.2252   -1.2842 H   0  0  0  0  0  0  0  0  0  0  0  0
   -1.3072   -2.7027   -0.2014 H   0  0  0  0  0  0  0  0  0  0  0  0
    3.0880   -3.5983   -0.9406 H   0  0  0  0  0  0  0  0  0  0  0  0
    2.9971    1.9002    0.5355 H   0  0  0  0  0  0  0  0  0  0  0  0
    5.5810    0.8082    1.0620 H   0  0  0  0  0  0  0  0  0  0  0  0
    6.4259   -0.5498    0.2808 H   0  0  0  0  0  0  0  0  0  0  0  0
    5.7772    0.4888   -2.0238 H   0  0  0  0  0  0  0  0  0  0  0  0
    6.8077    2.9230    0.8344 H   0  0  0  0  0  0  0  0  0  0  0  0
    5.5120    3.9890    0.2399 H   0  0  0  0  0  0  0  0  0  0  0  0
    5.1046    2.4348    1.0059 H   0  0  0  0  0  0  0  0  0  0  0  0
    6.0964    2.4343   -3.0924 H   0  0  0  0  0  0  0  0  0  0  0  0
    5.2627    3.8069   -2.3249 H   0  0  0  0  0  0  0  0  0  0  0  0
    7.0262    3.6313   -2.1590 H   0  0  0  0  0  0  0  0  0  0  0  0
    5.5804   -2.2353   -1.8567 H   0  0  0  0  0  0  0  0  0  0  0  0
   -6.3421    0.7301    1.4065 H   0  0  0  0  0  0  0  0  0  0  0  0
   -8.3658   -1.1819   -2.6057 H   0  0  0  0  0  0  0  0  0  0  0  0
   -7.7129   -1.8937   -1.1106 H   0  0  0  0  0  0  0  0  0  0  0  0
   -9.0077   -0.6753   -1.0247 H   0  0  0  0  0  0  0  0  0  0  0  0
  1  2  1  0  0  0  0
  2  3  2  0  0  0  0
  3  4  1  0  0  0  0
  4  5  1  0  0  0  0
  5  6  2  0  0  0  0
  6  7  1  0  0  0  0
  7  8  2  0  0  0  0
  8  9  1  0  0  0  0
  9 10  2  0  0  0  0
  5 10  1  0  0  0  0
  9 11  1  0  0  0  0
 11 12  2  0  0  0  0
 12 13  1  0  0  0  0
 13 14  1  0  0  0  0
 14 15  2  0  0  0  0
 15 16  1  0  0  0  0
 16 17  2  0  0  0  0
 17 18  1  0  0  0  0
 18 19  2  0  0  0  0
 14 19  1  0  0  0  0
 19 20  1  0  0  0  0
 11 20  1  0  0  0  0
 20 21  2  0  0  0  0
 18 22  1  0  0  0  0
 17 23  1  0  0  0  0
 23 24  1  0  0  0  0
 24 25  2  0  0  0  0
 25 26  1  0  0  0  0
 25 27  1  0  0  0  0
 16 28  1  0  0  0  0
  6 29  1  0  0  0  0
  2 30  1  0  0  0  0
  1 31  1  0  0  0  0
  1 32  1  0  0  0  0
  1 33  1  0  0  0  0
  3 34  1  0  0  0  0
  4 35  1  0  0  0  0
  4 36  1  0  0  0  0
  7 37  1  0  0  0  0
  8 38  1  0  0  0  0
 10 39  1  0  0  0  0
 12 40  1  0  0  0  0
 15 41  1  0  0  0  0
 22 42  1  0  0  0  0
 23 43  1  0  0  0  0
 23 44  1  0  0  0  0
 24 45  1  0  0  0  0
 26 46  1  0  0  0  0
 26 47  1  0  0  0  0
 26 48  1  0  0  0  0
 27 49  1  0  0  0  0
 27 50  1  0  0  0  0
 27 51  1  0  0  0  0
 28 52  1  0  0  0  0
 29 53  1  0  0  0  0
 30 54  1  0  0  0  0
 30 55  1  0  0  0  0
 30 56  1  0  0  0  0
M  END
$$$$
