C13H16O6
APtclcactv06211806343D 0   0.00000     0.00000
 
 35 37  0  0  0  0  0  0  0  0999 V2000
    0.4260   -1.8953   -0.6545 C   0  0  0  0  0  0  0  0  0  0  0  0
   -0.8459   -1.1072   -0.3387 C   0  0  0  0  0  0  0  0  0  0  0  0
   -0.4523    0.1629    0.4265 C   0  0  0  0  0  0  0  0  0  0  0  0
   -1.7244    0.9328    0.7815 C   0  0  0  0  0  0  0  0  0  0  0  0
   -2.4729    1.2586   -0.5170 C   0  0  0  0  0  0  0  0  0  0  0  0
   -2.7551   -0.0327   -1.2869 C   0  0  0  0  0  0  0  0  0  0  0  0
   -1.5316   -0.7341   -1.5318 O   0  0  0  0  0  0  0  0  0  0  0  0
   -3.6310   -0.8607   -0.5193 O   0  0  0  0  0  0  0  0  0  0  0  0
   -3.7082    1.9054   -0.2042 O   0  0  0  0  0  0  0  0  0  0  0  0
   -2.5525    0.1295    1.6246 O   0  0  0  0  0  0  0  0  0  0  0  0
    0.2643   -0.2179    1.6007 O   0  0  0  0  0  0  0  0  0  0  0  0
    1.4490   -0.9702    1.3157 C   0  0  0  0  0  0  0  0  0  0  0  0
    1.1177   -2.1460    0.5754 O   0  0  0  0  0  0  0  0  0  0  0  0
    2.3975   -0.1220    0.5082 C   0  0  0  0  0  0  0  0  0  0  0  0
    2.4142    1.2497    0.6787 C   0  0  0  0  0  0  0  0  0  0  0  0
    3.2841    2.0278   -0.0620 C   0  0  0  0  0  0  0  0  0  0  0  0
    4.1377    1.4341   -0.9730 C   0  0  0  0  0  0  0  0  0  0  0  0
    4.1216    0.0624   -1.1429 C   0  0  0  0  0  0  0  0  0  0  0  0
    3.2547   -0.7161   -0.3990 C   0  0  0  0  0  0  0  0  0  0  0  0
    0.1639   -2.8415   -1.1279 H   0  0  0  0  0  0  0  0  0  0  0  0
    1.0622   -1.3139   -1.3219 H   0  0  0  0  0  0  0  0  0  0  0  0
   -1.5047   -1.7150    0.2816 H   0  0  0  0  0  0  0  0  0  0  0  0
    0.1846    0.7840   -0.2033 H   0  0  0  0  0  0  0  0  0  0  0  0
   -1.4616    1.8577    1.2948 H   0  0  0  0  0  0  0  0  0  0  0  0
   -1.8627    1.9210   -1.1310 H   0  0  0  0  0  0  0  0  0  0  0  0
   -3.2298    0.2095   -2.2378 H   0  0  0  0  0  0  0  0  0  0  0  0
   -3.8544   -1.6991   -0.9463 H   0  0  0  0  0  0  0  0  0  0  0  0
   -4.2359    2.1414   -0.9794 H   0  0  0  0  0  0  0  0  0  0  0  0
   -3.3782    0.5580    1.8885 H   0  0  0  0  0  0  0  0  0  0  0  0
    1.9297   -1.2557    2.2514 H   0  0  0  0  0  0  0  0  0  0  0  0
    1.7473    1.7135    1.3905 H   0  0  0  0  0  0  0  0  0  0  0  0
    3.2967    3.0995    0.0708 H   0  0  0  0  0  0  0  0  0  0  0  0
    4.8168    2.0421   -1.5522 H   0  0  0  0  0  0  0  0  0  0  0  0
    4.7882   -0.4014   -1.8549 H   0  0  0  0  0  0  0  0  0  0  0  0
    3.2421   -1.7879   -0.5318 H   0  0  0  0  0  0  0  0  0  0  0  0
  1  2  1  0  0  0  0
  2  3  1  0  0  0  0
  3  4  1  0  0  0  0
  4  5  1  0  0  0  0
  5  6  1  0  0  0  0
  6  7  1  0  0  0  0
  2  7  1  0  0  0  0
  6  8  1  0  0  0  0
  5  9  1  0  0  0  0
  4 10  1  0  0  0  0
  3 11  1  0  0  0  0
 11 12  1  0  0  0  0
 12 13  1  0  0  0  0
  1 13  1  0  0  0  0
 12 14  1  0  0  0  0
 14 15  2  0  0  0  0
 15 16  1  0  0  0  0
 16 17  2  0  0  0  0
 17 18  1  0  0  0  0
 18 19  2  0  0  0  0
 14 19  1  0  0  0  0
  1 20  1  0  0  0  0
  1 21  1  0  0  0  0
  2 22  1  0  0  0  0
  3 23  1  0  0  0  0
  4 24  1  0  0  0  0
  5 25  1  0  0  0  0
  6 26  1  0  0  0  0
  8 27  1  0  0  0  0
  9 28  1  0  0  0  0
 10 29  1  0  0  0  0
 12 30  1  0  0  0  0
 15 31  1  0  0  0  0
 16 32  1  0  0  0  0
 17 33  1  0  0  0  0
 18 34  1  0  0  0  0
 19 35  1  0  0  0  0
M  END
$$$$
