C15H16O3
APtclcactv06281817253D 0   0.00000     0.00000
 
 34 35  0  0  0  0  0  0  0  0999 V2000
    5.5342    1.8609   -0.2521 C   0  0  0  0  0  0  0  0  0  0  0  0
    4.1346    2.0106   -0.0057 O   0  0  0  0  0  0  0  0  0  0  0  0
    3.3993    0.8715    0.0879 C   0  0  0  0  0  0  0  0  0  0  0  0
    2.0343    0.9438    0.3260 C   0  0  0  0  0  0  0  0  0  0  0  0
    1.2860   -0.2142    0.4207 C   0  0  0  0  0  0  0  0  0  0  0  0
    1.8947   -1.4463    0.2787 C   0  0  0  0  0  0  0  0  0  0  0  0
    3.2598   -1.5238    0.0403 C   0  0  0  0  0  0  0  0  0  0  0  0
    4.0116   -0.3637   -0.0603 C   0  0  0  0  0  0  0  0  0  0  0  0
    3.8580   -2.7361   -0.0989 O   0  0  0  0  0  0  0  0  0  0  0  0
   -0.1963   -0.1329    0.6800 C   0  0  0  0  0  0  0  0  0  0  0  0
   -0.9440   -0.0626   -0.6530 C   0  0  0  0  0  0  0  0  0  0  0  0
   -2.4264    0.0188   -0.3938 C   0  0  0  0  0  0  0  0  0  0  0  0
   -3.0354    1.2518   -0.2512 C   0  0  0  0  0  0  0  0  0  0  0  0
   -4.3941    1.3291   -0.0135 C   0  0  0  0  0  0  0  0  0  0  0  0
   -5.1475    0.1681    0.0820 C   0  0  0  0  0  0  0  0  0  0  0  0
   -4.5340   -1.0679   -0.0615 C   0  0  0  0  0  0  0  0  0  0  0  0
   -3.1760   -1.1396   -0.3047 C   0  0  0  0  0  0  0  0  0  0  0  0
   -6.4841    0.2414    0.3162 O   0  0  0  0  0  0  0  0  0  0  0  0
    6.0012    2.8445   -0.3038 H   0  0  0  0  0  0  0  0  0  0  0  0
    5.9860    1.2862    0.5564 H   0  0  0  0  0  0  0  0  0  0  0  0
    5.6829    1.3380   -1.1968 H   0  0  0  0  0  0  0  0  0  0  0  0
    1.5563    1.9057    0.4378 H   0  0  0  0  0  0  0  0  0  0  0  0
    1.3078   -2.3498    0.3534 H   0  0  0  0  0  0  0  0  0  0  0  0
    5.0740   -0.4219   -0.2458 H   0  0  0  0  0  0  0  0  0  0  0  0
    3.8807   -3.0613   -1.0093 H   0  0  0  0  0  0  0  0  0  0  0  0
   -0.5179   -1.0168    1.2307 H   0  0  0  0  0  0  0  0  0  0  0  0
   -0.4142    0.7598    1.2663 H   0  0  0  0  0  0  0  0  0  0  0  0
   -0.6225    0.8214   -1.2038 H   0  0  0  0  0  0  0  0  0  0  0  0
   -0.7262   -0.9552   -1.2394 H   0  0  0  0  0  0  0  0  0  0  0  0
   -2.4484    2.1553   -0.3253 H   0  0  0  0  0  0  0  0  0  0  0  0
   -4.8693    2.2924    0.0982 H   0  0  0  0  0  0  0  0  0  0  0  0
   -5.1183   -1.9732    0.0124 H   0  0  0  0  0  0  0  0  0  0  0  0
   -2.6979   -2.1016   -0.4165 H   0  0  0  0  0  0  0  0  0  0  0  0
   -7.0219    0.2890   -0.4860 H   0  0  0  0  0  0  0  0  0  0  0  0
  1  2  1  0  0  0  0
  2  3  1  0  0  0  0
  3  4  2  0  0  0  0
  4  5  1  0  0  0  0
  5  6  2  0  0  0  0
  6  7  1  0  0  0  0
  7  8  2  0  0  0  0
  3  8  1  0  0  0  0
  7  9  1  0  0  0  0
  5 10  1  0  0  0  0
 10 11  1  0  0  0  0
 11 12  1  0  0  0  0
 12 13  2  0  0  0  0
 13 14  1  0  0  0  0
 14 15  2  0  0  0  0
 15 16  1  0  0  0  0
 16 17  2  0  0  0  0
 12 17  1  0  0  0  0
 15 18  1  0  0  0  0
  1 19  1  0  0  0  0
  1 20  1  0  0  0  0
  1 21  1  0  0  0  0
  4 22  1  0  0  0  0
  6 23  1  0  0  0  0
  8 24  1  0  0  0  0
  9 25  1  0  0  0  0
 10 26  1  0  0  0  0
 10 27  1  0  0  0  0
 11 28  1  0  0  0  0
 11 29  1  0  0  0  0
 13 30  1  0  0  0  0
 14 31  1  0  0  0  0
 16 32  1  0  0  0  0
 17 33  1  0  0  0  0
 18 34  1  0  0  0  0
M  END
$$$$
