C8H11N
APtclcactv06211804323D 0   0.00000     0.00000
 
 20 20  0  0  0  0  0  0  0  0999 V2000
   -2.7466   -0.0105   -0.3057 C   0  0  0  0  0  0  0  0  0  0  0  0
   -2.0674   -1.2038   -0.1457 C   0  0  0  0  0  0  0  0  0  0  0  0
   -0.7253   -1.1962    0.1854 C   0  0  0  0  0  0  0  0  0  0  0  0
   -0.0623    0.0047    0.3560 C   0  0  0  0  0  0  0  0  0  0  0  0
   -0.7413    1.1980    0.1951 C   0  0  0  0  0  0  0  0  0  0  0  0
   -2.0837    1.1904   -0.1346 C   0  0  0  0  0  0  0  0  0  0  0  0
    1.4006    0.0130    0.7179 C   0  0  0  0  0  0  0  0  0  0  0  0
    2.2420    0.0236   -0.5598 C   0  0  0  0  0  0  0  0  0  0  0  0
    3.6680    0.0316   -0.2070 N   0  0  0  0  0  0  0  0  0  0  0  0
   -3.7940   -0.0165   -0.5688 H   0  0  0  0  0  0  0  0  0  0  0  0
   -2.5853   -2.1421   -0.2791 H   0  0  0  0  0  0  0  0  0  0  0  0
   -0.1948   -2.1285    0.3111 H   0  0  0  0  0  0  0  0  0  0  0  0
   -0.2235    2.1363    0.3291 H   0  0  0  0  0  0  0  0  0  0  0  0
   -2.6143    2.1227   -0.2600 H   0  0  0  0  0  0  0  0  0  0  0  0
    1.6240    0.9022    1.3075 H   0  0  0  0  0  0  0  0  0  0  0  0
    1.6358   -0.8777    1.3005 H   0  0  0  0  0  0  0  0  0  0  0  0
    2.0186   -0.8656   -1.1493 H   0  0  0  0  0  0  0  0  0  0  0  0
    2.0068    0.9143   -1.1424 H   0  0  0  0  0  0  0  0  0  0  0  0
    3.8979   -0.7505    0.3875 H   0  0  0  0  0  0  0  0  0  0  0  0
    4.2452    0.0387   -1.0346 H   0  0  0  0  0  0  0  0  0  0  0  0
  1  2  2  0  0  0  0
  2  3  1  0  0  0  0
  3  4  2  0  0  0  0
  4  5  1  0  0  0  0
  5  6  2  0  0  0  0
  1  6  1  0  0  0  0
  4  7  1  0  0  0  0
  7  8  1  0  0  0  0
  8  9  1  0  0  0  0
  1 10  1  0  0  0  0
  2 11  1  0  0  0  0
  3 12  1  0  0  0  0
  5 13  1  0  0  0  0
  6 14  1  0  0  0  0
  7 15  1  0  0  0  0
  7 16  1  0  0  0  0
  8 17  1  0  0  0  0
  8 18  1  0  0  0  0
  9 19  1  0  0  0  0
  9 20  1  0  0  0  0
M  END
$$$$
