C18H16O7
APtclcactv06281817263D 0   0.00000     0.00000
 
 41 43  0  0  0  0  0  0  0  0999 V2000
    6.7889    0.9512   -0.9623 C   0  0  0  0  0  0  0  0  0  0  0  0
    6.0319   -0.0822   -0.3291 O   0  0  0  0  0  0  0  0  0  0  0  0
    4.6880    0.0991   -0.2479 C   0  0  0  0  0  0  0  0  0  0  0  0
    3.8909   -0.8708    0.3576 C   0  0  0  0  0  0  0  0  0  0  0  0
    2.5240   -0.6879    0.4415 C   0  0  0  0  0  0  0  0  0  0  0  0
    1.9439    0.4709   -0.0820 C   0  0  0  0  0  0  0  0  0  0  0  0
    2.7492    1.4392   -0.6878 C   0  0  0  0  0  0  0  0  0  0  0  0
    4.1126    1.2525   -0.7632 C   0  0  0  0  0  0  0  0  0  0  0  0
    0.4850    0.6712    0.0043 C   0  0  0  0  0  0  0  0  0  0  0  0
    0.0110    1.9145    0.2872 C   0  0  0  0  0  0  0  0  0  0  0  0
   -1.3851    2.1261    0.3736 C   0  0  0  0  0  0  0  0  0  0  0  0
   -1.8450    3.2283    0.6252 O   0  0  0  0  0  0  0  0  0  0  0  0
   -2.2621    0.9646    0.1476 C   0  0  0  0  0  0  0  0  0  0  0  0
   -3.6553    1.0828    0.2131 C   0  0  0  0  0  0  0  0  0  0  0  0
   -4.4456   -0.0343   -0.0062 C   0  0  0  0  0  0  0  0  0  0  0  0
   -3.8540   -1.2638   -0.2890 C   0  0  0  0  0  0  0  0  0  0  0  0
   -2.4749   -1.3848   -0.3543 C   0  0  0  0  0  0  0  0  0  0  0  0
   -1.6693   -0.2778   -0.1386 C   0  0  0  0  0  0  0  0  0  0  0  0
   -0.3242   -0.3792   -0.2048 O   0  0  0  0  0  0  0  0  0  0  0  0
   -4.6361   -2.3538   -0.5022 O   0  0  0  0  0  0  0  0  0  0  0  0
   -3.9692   -3.5850   -0.7875 C   0  0  0  0  0  0  0  0  0  0  0  0
   -5.8018    0.0697    0.0552 O   0  0  0  0  0  0  0  0  0  0  0  0
   -4.2281    2.2829    0.4900 O   0  0  0  0  0  0  0  0  0  0  0  0
    4.4586   -1.9974    0.8656 O   0  0  0  0  0  0  0  0  0  0  0  0
    3.5817   -2.9490    1.4720 C   0  0  0  0  0  0  0  0  0  0  0  0
    7.8450    0.6814   -0.9601 H   0  0  0  0  0  0  0  0  0  0  0  0
    6.4473    1.0741   -1.9901 H   0  0  0  0  0  0  0  0  0  0  0  0
    6.6518    1.8866   -0.4196 H   0  0  0  0  0  0  0  0  0  0  0  0
    1.9052   -1.4388    0.9101 H   0  0  0  0  0  0  0  0  0  0  0  0
    2.3036    2.3356   -1.0931 H   0  0  0  0  0  0  0  0  0  0  0  0
    4.7339    2.0017   -1.2312 H   0  0  0  0  0  0  0  0  0  0  0  0
    0.6959    2.7345    0.4452 H   0  0  0  0  0  0  0  0  0  0  0  0
   -2.0273   -2.3429   -0.5736 H   0  0  0  0  0  0  0  0  0  0  0  0
   -4.7080   -4.3723   -0.9366 H   0  0  0  0  0  0  0  0  0  0  0  0
   -3.3704   -3.4728   -1.6914 H   0  0  0  0  0  0  0  0  0  0  0  0
   -3.3204   -3.8488    0.0477 H   0  0  0  0  0  0  0  0  0  0  0  0
   -6.2183    0.2866   -0.7901 H   0  0  0  0  0  0  0  0  0  0  0  0
   -4.4187    2.8177   -0.2928 H   0  0  0  0  0  0  0  0  0  0  0  0
    3.0602   -2.4816    2.3073 H   0  0  0  0  0  0  0  0  0  0  0  0
    2.8547   -3.2934    0.7366 H   0  0  0  0  0  0  0  0  0  0  0  0
    4.1616   -3.7977    1.8348 H   0  0  0  0  0  0  0  0  0  0  0  0
  1  2  1  0  0  0  0
  2  3  1  0  0  0  0
  3  4  2  0  0  0  0
  4  5  1  0  0  0  0
  5  6  2  0  0  0  0
  6  7  1  0  0  0  0
  7  8  2  0  0  0  0
  3  8  1  0  0  0  0
  6  9  1  0  0  0  0
  9 10  2  0  0  0  0
 10 11  1  0  0  0  0
 11 12  2  0  0  0  0
 11 13  1  0  0  0  0
 13 14  2  0  0  0  0
 14 15  1  0  0  0  0
 15 16  2  0  0  0  0
 16 17  1  0  0  0  0
 17 18  2  0  0  0  0
 13 18  1  0  0  0  0
 18 19  1  0  0  0  0
  9 19  1  0  0  0  0
 16 20  1  0  0  0  0
 20 21  1  0  0  0  0
 15 22  1  0  0  0  0
 14 23  1  0  0  0  0
  4 24  1  0  0  0  0
 24 25  1  0  0  0  0
  1 26  1  0  0  0  0
  1 27  1  0  0  0  0
  1 28  1  0  0  0  0
  5 29  1  0  0  0  0
  7 30  1  0  0  0  0
  8 31  1  0  0  0  0
 10 32  1  0  0  0  0
 17 33  1  0  0  0  0
 21 34  1  0  0  0  0
 21 35  1  0  0  0  0
 21 36  1  0  0  0  0
 22 37  1  0  0  0  0
 23 38  1  0  0  0  0
 25 39  1  0  0  0  0
 25 40  1  0  0  0  0
 25 41  1  0  0  0  0
M  END
$$$$
