C20H22O6
APtclcactv06281817263D 0   0.00000     0.00000
 
 48 49  0  0  0  0  0  0  0  0999 V2000
   -6.4222    0.9076    0.9514 C   0  0  0  0  0  0  0  0  0  0  0  0
   -5.7342    1.3572   -0.3118 C   0  0  0  0  0  0  0  0  0  0  0  0
   -4.4258    1.3885   -0.3694 C   0  0  0  0  0  0  0  0  0  0  0  0
   -3.6081    0.8578    0.7798 C   0  0  0  0  0  0  0  0  0  0  0  0
   -2.6267   -0.1650    0.2679 C   0  0  0  0  0  0  0  0  0  0  0  0
   -1.3638    0.2317   -0.1445 C   0  0  0  0  0  0  0  0  0  0  0  0
   -0.4607   -0.7096   -0.6157 C   0  0  0  0  0  0  0  0  0  0  0  0
   -0.8208   -2.0473   -0.6742 C   0  0  0  0  0  0  0  0  0  0  0  0
   -2.0841   -2.4441   -0.2616 C   0  0  0  0  0  0  0  0  0  0  0  0
   -2.9849   -1.5038    0.2147 C   0  0  0  0  0  0  0  0  0  0  0  0
   -4.2228   -1.8926    0.6190 O   0  0  0  0  0  0  0  0  0  0  0  0
    0.0640   -2.9695   -1.1363 O   0  0  0  0  0  0  0  0  0  0  0  0
    0.9118   -0.2784   -1.0645 C   0  0  0  0  0  0  0  0  0  0  0  0
    1.8603   -0.3241    0.1057 C   0  0  0  0  0  0  0  0  0  0  0  0
    1.4610   -0.6727    1.1971 O   0  0  0  0  0  0  0  0  0  0  0  0
    3.2645    0.0523   -0.0746 C   0  0  0  0  0  0  0  0  0  0  0  0
    4.1528    0.0110    1.0151 C   0  0  0  0  0  0  0  0  0  0  0  0
    5.4773    0.3687    0.8315 C   0  0  0  0  0  0  0  0  0  0  0  0
    5.9200    0.7648   -0.4223 C   0  0  0  0  0  0  0  0  0  0  0  0
    5.0379    0.8052   -1.4994 C   0  0  0  0  0  0  0  0  0  0  0  0
    3.7309    0.4500   -1.3352 C   0  0  0  0  0  0  0  0  0  0  0  0
    7.2186    1.1149   -0.6000 O   0  0  0  0  0  0  0  0  0  0  0  0
    3.7142   -0.3766    2.2384 O   0  0  0  0  0  0  0  0  0  0  0  0
   -1.0111    1.5428   -0.0876 O   0  0  0  0  0  0  0  0  0  0  0  0
   -0.4030    1.9991    1.1225 C   0  0  0  0  0  0  0  0  0  0  0  0
   -6.5512    1.7707   -1.5086 C   0  0  0  0  0  0  0  0  0  0  0  0
   -6.0693    1.5071    1.7905 H   0  0  0  0  0  0  0  0  0  0  0  0
   -7.4995    1.0332    0.8428 H   0  0  0  0  0  0  0  0  0  0  0  0
   -6.1956   -0.1428    1.1345 H   0  0  0  0  0  0  0  0  0  0  0  0
   -3.9332    1.7947   -1.2405 H   0  0  0  0  0  0  0  0  0  0  0  0
   -3.0657    1.6785    1.2494 H   0  0  0  0  0  0  0  0  0  0  0  0
   -4.2687    0.3930    1.5117 H   0  0  0  0  0  0  0  0  0  0  0  0
   -2.3647   -3.4860   -0.3076 H   0  0  0  0  0  0  0  0  0  0  0  0
   -4.2750   -2.1272    1.5556 H   0  0  0  0  0  0  0  0  0  0  0  0
    0.6254   -3.3545   -0.4495 H   0  0  0  0  0  0  0  0  0  0  0  0
    1.2663   -0.9504   -1.8460 H   0  0  0  0  0  0  0  0  0  0  0  0
    0.8639    0.7386   -1.4538 H   0  0  0  0  0  0  0  0  0  0  0  0
    6.1654    0.3398    1.6634 H   0  0  0  0  0  0  0  0  0  0  0  0
    5.3917    1.1152   -2.4716 H   0  0  0  0  0  0  0  0  0  0  0  0
    3.0530    0.4839   -2.1752 H   0  0  0  0  0  0  0  0  0  0  0  0
    7.7945    0.3781   -0.8460 H   0  0  0  0  0  0  0  0  0  0  0  0
    3.7862   -1.3275    2.3989 H   0  0  0  0  0  0  0  0  0  0  0  0
   -1.0894    1.8441    1.9549 H   0  0  0  0  0  0  0  0  0  0  0  0
    0.5159    1.4406    1.3004 H   0  0  0  0  0  0  0  0  0  0  0  0
   -0.1718    3.0607    1.0351 H   0  0  0  0  0  0  0  0  0  0  0  0
   -7.6117    1.6792   -1.2737 H   0  0  0  0  0  0  0  0  0  0  0  0
   -6.3236    2.8057   -1.7639 H   0  0  0  0  0  0  0  0  0  0  0  0
   -6.3094    1.1264   -2.3538 H   0  0  0  0  0  0  0  0  0  0  0  0
  1  2  1  0  0  0  0
  2  3  2  0  0  0  0
  3  4  1  0  0  0  0
  4  5  1  0  0  0  0
  5  6  2  0  0  0  0
  6  7  1  0  0  0  0
  7  8  2  0  0  0  0
  8  9  1  0  0  0  0
  9 10  2  0  0  0  0
  5 10  1  0  0  0  0
 10 11  1  0  0  0  0
  8 12  1  0  0  0  0
  7 13  1  0  0  0  0
 13 14  1  0  0  0  0
 14 15  2  0  0  0  0
 14 16  1  0  0  0  0
 16 17  2  0  0  0  0
 17 18  1  0  0  0  0
 18 19  2  0  0  0  0
 19 20  1  0  0  0  0
 20 21  2  0  0  0  0
 16 21  1  0  0  0  0
 19 22  1  0  0  0  0
 17 23  1  0  0  0  0
  6 24  1  0  0  0  0
 24 25  1  0  0  0  0
  2 26  1  0  0  0  0
  1 27  1  0  0  0  0
  1 28  1  0  0  0  0
  1 29  1  0  0  0  0
  3 30  1  0  0  0  0
  4 31  1  0  0  0  0
  4 32  1  0  0  0  0
  9 33  1  0  0  0  0
 11 34  1  0  0  0  0
 12 35  1  0  0  0  0
 13 36  1  0  0  0  0
 13 37  1  0  0  0  0
 18 38  1  0  0  0  0
 20 39  1  0  0  0  0
 21 40  1  0  0  0  0
 22 41  1  0  0  0  0
 23 42  1  0  0  0  0
 25 43  1  0  0  0  0
 25 44  1  0  0  0  0
 25 45  1  0  0  0  0
 26 46  1  0  0  0  0
 26 47  1  0  0  0  0
 26 48  1  0  0  0  0
M  END
$$$$
