C11H16O3
APtclcactv06211806343D 0   0.00000     0.00000
 
 30 31  0  0  0  0  0  0  0  0999 V2000
    1.3850   -1.5746   -1.5047 C   0  0  0  0  0  0  0  0  0  0  0  0
    0.9181   -1.3797   -0.0608 C   0  0  0  0  0  0  0  0  0  0  0  0
    1.9325   -0.5163    0.7085 C   0  0  0  0  0  0  0  0  0  0  0  0
    1.9166    0.9130    0.1698 C   0  0  0  0  0  0  0  0  0  0  0  0
    0.5588    1.5799    0.4128 C   0  0  0  0  0  0  0  0  0  0  0  0
   -0.5005    0.8380   -0.4058 C   0  0  0  0  0  0  0  0  0  0  0  0
   -0.3924   -0.6315   -0.0383 C   0  0  0  0  0  0  0  0  0  0  0  0
   -1.5887   -1.0295    0.3451 C   0  0  0  0  0  0  0  0  0  0  0  0
   -2.5107    0.1136    0.3183 C   0  0  0  0  0  0  0  0  0  0  0  0
   -3.6952    0.0614    0.5855 O   0  0  0  0  0  0  0  0  0  0  0  0
   -1.8470    1.2306   -0.0470 O   0  0  0  0  0  0  0  0  0  0  0  0
   -0.2515    1.0344   -1.9025 C   0  0  0  0  0  0  0  0  0  0  0  0
    2.9353    1.6719    0.8243 O   0  0  0  0  0  0  0  0  0  0  0  0
    0.7597   -2.7379    0.6256 C   0  0  0  0  0  0  0  0  0  0  0  0
    2.2802   -2.1964   -1.5163 H   0  0  0  0  0  0  0  0  0  0  0  0
    0.5968   -2.0617   -2.0788 H   0  0  0  0  0  0  0  0  0  0  0  0
    1.6106   -0.6046   -1.9477 H   0  0  0  0  0  0  0  0  0  0  0  0
    1.6709   -0.5070    1.7665 H   0  0  0  0  0  0  0  0  0  0  0  0
    2.9307   -0.9372    0.5880 H   0  0  0  0  0  0  0  0  0  0  0  0
    2.1189    0.8937   -0.9011 H   0  0  0  0  0  0  0  0  0  0  0  0
    0.3081    1.5246    1.4721 H   0  0  0  0  0  0  0  0  0  0  0  0
    0.6013    2.6224    0.0975 H   0  0  0  0  0  0  0  0  0  0  0  0
   -1.8500   -2.0370    0.6331 H   0  0  0  0  0  0  0  0  0  0  0  0
    0.7831    0.7819   -2.1350 H   0  0  0  0  0  0  0  0  0  0  0  0
   -0.9198    0.3868   -2.4701 H   0  0  0  0  0  0  0  0  0  0  0  0
   -0.4404    2.0743   -2.1689 H   0  0  0  0  0  0  0  0  0  0  0  0
    2.9874    2.5929    0.5342 H   0  0  0  0  0  0  0  0  0  0  0  0
    1.7171   -3.2589    0.6255 H   0  0  0  0  0  0  0  0  0  0  0  0
    0.4271   -2.5892    1.6529 H   0  0  0  0  0  0  0  0  0  0  0  0
    0.0221   -3.3331    0.0874 H   0  0  0  0  0  0  0  0  0  0  0  0
  1  2  1  0  0  0  0
  2  3  1  0  0  0  0
  3  4  1  0  0  0  0
  4  5  1  0  0  0  0
  5  6  1  0  0  0  0
  6  7  1  0  0  0  0
  2  7  1  0  0  0  0
  7  8  2  0  0  0  0
  8  9  1  0  0  0  0
  9 10  2  0  0  0  0
  9 11  1  0  0  0  0
  6 11  1  0  0  0  0
  6 12  1  0  0  0  0
  4 13  1  0  0  0  0
  2 14  1  0  0  0  0
  1 15  1  0  0  0  0
  1 16  1  0  0  0  0
  1 17  1  0  0  0  0
  3 18  1  0  0  0  0
  3 19  1  0  0  0  0
  4 20  1  0  0  0  0
  5 21  1  0  0  0  0
  5 22  1  0  0  0  0
  8 23  1  0  0  0  0
 12 24  1  0  0  0  0
 12 25  1  0  0  0  0
 12 26  1  0  0  0  0
 13 27  1  0  0  0  0
 14 28  1  0  0  0  0
 14 29  1  0  0  0  0
 14 30  1  0  0  0  0
M  END
$$$$
