C18H18O9
APtclcactv06281817263D 0   0.00000     0.00000
 
 45 46  0  0  0  0  0  0  0  0999 V2000
   -4.4751    2.6690   -2.1784 C   0  0  0  0  0  0  0  0  0  0  0  0
   -4.9286    1.5815   -1.3699 O   0  0  0  0  0  0  0  0  0  0  0  0
   -3.9909    0.9254   -0.6351 C   0  0  0  0  0  0  0  0  0  0  0  0
   -2.6678    1.3206   -0.6928 C   0  0  0  0  0  0  0  0  0  0  0  0
   -1.7048    0.6462    0.0629 C   0  0  0  0  0  0  0  0  0  0  0  0
   -2.0830   -0.4266    0.8751 C   0  0  0  0  0  0  0  0  0  0  0  0
   -3.4075   -0.8175    0.9289 C   0  0  0  0  0  0  0  0  0  0  0  0
   -4.3657   -0.1404    0.1790 C   0  0  0  0  0  0  0  0  0  0  0  0
   -5.6672   -0.5269    0.2337 O   0  0  0  0  0  0  0  0  0  0  0  0
   -3.7762   -1.8613    1.7190 O   0  0  0  0  0  0  0  0  0  0  0  0
   -2.7426   -2.5069    2.4652 C   0  0  0  0  0  0  0  0  0  0  0  0
   -0.2922    1.0653    0.0031 C   0  0  0  0  0  0  0  0  0  0  0  0
    0.0354    1.9979   -0.7037 O   0  0  0  0  0  0  0  0  0  0  0  0
    0.6354    0.4141    0.7323 O   0  0  0  0  0  0  0  0  0  0  0  0
    1.9317    0.7788    0.5493 C   0  0  0  0  0  0  0  0  0  0  0  0
    2.5080    1.7296    1.3780 C   0  0  0  0  0  0  0  0  0  0  0  0
    3.8310    2.1018    1.1912 C   0  0  0  0  0  0  0  0  0  0  0  0
    4.5771    1.5236    0.1756 C   0  0  0  0  0  0  0  0  0  0  0  0
    4.0007    0.5725   -0.6532 C   0  0  0  0  0  0  0  0  0  0  0  0
    2.6800    0.1959   -0.4627 C   0  0  0  0  0  0  0  0  0  0  0  0
    2.0539   -0.8378   -1.3630 C   0  0  0  0  0  0  0  0  0  0  0  0
    2.2661   -2.2096   -0.7763 C   0  0  0  0  0  0  0  0  0  0  0  0
    2.8644   -2.3351    0.2658 O   0  0  0  0  0  0  0  0  0  0  0  0
    1.7904   -3.2921   -1.4117 O   0  0  0  0  0  0  0  0  0  0  0  0
    2.0318   -4.5813   -0.7886 C   0  0  0  0  0  0  0  0  0  0  0  0
    4.7320    0.0062   -1.6488 O   0  0  0  0  0  0  0  0  0  0  0  0
    4.3958    3.0336    2.0033 O   0  0  0  0  0  0  0  0  0  0  0  0
   -3.7410    2.3057   -2.8975 H   0  0  0  0  0  0  0  0  0  0  0  0
   -5.3212    3.1035   -2.7108 H   0  0  0  0  0  0  0  0  0  0  0  0
   -4.0171    3.4275   -1.5434 H   0  0  0  0  0  0  0  0  0  0  0  0
   -2.3783    2.1497   -1.3215 H   0  0  0  0  0  0  0  0  0  0  0  0
   -1.3408   -0.9498    1.4598 H   0  0  0  0  0  0  0  0  0  0  0  0
   -6.1801   -0.0846    0.9239 H   0  0  0  0  0  0  0  0  0  0  0  0
   -1.9959   -2.9079    1.7798 H   0  0  0  0  0  0  0  0  0  0  0  0
   -2.2722   -1.7856    3.1335 H   0  0  0  0  0  0  0  0  0  0  0  0
   -3.1712   -3.3197    3.0515 H   0  0  0  0  0  0  0  0  0  0  0  0
    1.9266    2.1805    2.1686 H   0  0  0  0  0  0  0  0  0  0  0  0
    5.6071    1.8140    0.0298 H   0  0  0  0  0  0  0  0  0  0  0  0
    0.9853   -0.6422   -1.4525 H   0  0  0  0  0  0  0  0  0  0  0  0
    2.5160   -0.7888   -2.3489 H   0  0  0  0  0  0  0  0  0  0  0  0
    1.5748   -4.5979    0.2008 H   0  0  0  0  0  0  0  0  0  0  0  0
    1.5965   -5.3691   -1.4033 H   0  0  0  0  0  0  0  0  0  0  0  0
    3.1055   -4.7445   -0.6957 H   0  0  0  0  0  0  0  0  0  0  0  0
    5.2020   -0.7964   -1.3840 H   0  0  0  0  0  0  0  0  0  0  0  0
    4.8170    2.6648    2.7917 H   0  0  0  0  0  0  0  0  0  0  0  0
  1  2  1  0  0  0  0
  2  3  1  0  0  0  0
  3  4  2  0  0  0  0
  4  5  1  0  0  0  0
  5  6  2  0  0  0  0
  6  7  1  0  0  0  0
  7  8  2  0  0  0  0
  3  8  1  0  0  0  0
  8  9  1  0  0  0  0
  7 10  1  0  0  0  0
 10 11  1  0  0  0  0
  5 12  1  0  0  0  0
 12 13  2  0  0  0  0
 12 14  1  0  0  0  0
 14 15  1  0  0  0  0
 15 16  2  0  0  0  0
 16 17  1  0  0  0  0
 17 18  2  0  0  0  0
 18 19  1  0  0  0  0
 19 20  2  0  0  0  0
 15 20  1  0  0  0  0
 20 21  1  0  0  0  0
 21 22  1  0  0  0  0
 22 23  2  0  0  0  0
 22 24  1  0  0  0  0
 24 25  1  0  0  0  0
 19 26  1  0  0  0  0
 17 27  1  0  0  0  0
  1 28  1  0  0  0  0
  1 29  1  0  0  0  0
  1 30  1  0  0  0  0
  4 31  1  0  0  0  0
  6 32  1  0  0  0  0
  9 33  1  0  0  0  0
 11 34  1  0  0  0  0
 11 35  1  0  0  0  0
 11 36  1  0  0  0  0
 16 37  1  0  0  0  0
 18 38  1  0  0  0  0
 21 39  1  0  0  0  0
 21 40  1  0  0  0  0
 25 41  1  0  0  0  0
 25 42  1  0  0  0  0
 25 43  1  0  0  0  0
 26 44  1  0  0  0  0
 27 45  1  0  0  0  0
M  END
$$$$
