C21H22O5
APtclcactv06281817263D 0   0.00000     0.00000
 
 48 50  0  0  0  0  0  0  0  0999 V2000
   -5.9925   -0.9378    1.3037 C   0  0  0  0  0  0  0  0  0  0  0  0
   -6.1151   -0.0309    0.1064 C   0  0  0  0  0  0  0  0  0  0  0  0
   -5.0637    0.6107   -0.3398 C   0  0  0  0  0  0  0  0  0  0  0  0
   -3.7073    0.3434    0.2601 C   0  0  0  0  0  0  0  0  0  0  0  0
   -2.7441    0.1992   -0.7856 O   0  0  0  0  0  0  0  0  0  0  0  0
   -1.4624   -0.0473   -0.4131 C   0  0  0  0  0  0  0  0  0  0  0  0
   -1.0136   -1.3576   -0.2562 C   0  0  0  0  0  0  0  0  0  0  0  0
   -1.6421   -2.6772   -0.4068 C   0  0  0  0  0  0  0  0  0  0  0  0
   -0.6947   -3.5771   -0.1159 C   0  0  0  0  0  0  0  0  0  0  0  0
    0.4559   -2.9556    0.1994 O   0  0  0  0  0  0  0  0  0  0  0  0
    0.3147   -1.6153    0.1295 C   0  0  0  0  0  0  0  0  0  0  0  0
    1.1897   -0.5567    0.3560 C   0  0  0  0  0  0  0  0  0  0  0  0
    0.7563    0.7507    0.2027 C   0  0  0  0  0  0  0  0  0  0  0  0
   -0.5743    1.0119   -0.1876 C   0  0  0  0  0  0  0  0  0  0  0  0
   -1.0092    2.4003   -0.3435 C   0  0  0  0  0  0  0  0  0  0  0  0
   -0.1063    3.3874   -0.1039 C   0  0  0  0  0  0  0  0  0  0  0  0
    1.2078    3.0571    0.2831 C   0  0  0  0  0  0  0  0  0  0  0  0
    2.0061    3.9524    0.4945 O   0  0  0  0  0  0  0  0  0  0  0  0
    1.6042    1.7826    0.4216 O   0  0  0  0  0  0  0  0  0  0  0  0
    2.4749   -0.8064    0.7295 O   0  0  0  0  0  0  0  0  0  0  0  0
    3.4377   -0.9532   -0.3162 C   0  0  0  0  0  0  0  0  0  0  0  0
    4.7936   -1.2229    0.2835 C   0  0  0  0  0  0  0  0  0  0  0  0
    5.8503   -0.6035   -0.1811 C   0  0  0  0  0  0  0  0  0  0  0  0
    5.7336    0.2747   -1.4003 C   0  0  0  0  0  0  0  0  0  0  0  0
    7.1826   -0.7691    0.5035 C   0  0  0  0  0  0  0  0  0  0  0  0
   -7.4473    0.1380   -0.5776 C   0  0  0  0  0  0  0  0  0  0  0  0
   -5.5642   -0.3823    2.1380 H   0  0  0  0  0  0  0  0  0  0  0  0
   -6.9794   -1.3077    1.5819 H   0  0  0  0  0  0  0  0  0  0  0  0
   -5.3452   -1.7795    1.0572 H   0  0  0  0  0  0  0  0  0  0  0  0
   -5.1690    1.3311   -1.1375 H   0  0  0  0  0  0  0  0  0  0  0  0
   -3.4237    1.1768    0.9029 H   0  0  0  0  0  0  0  0  0  0  0  0
   -3.7445   -0.5732    0.8488 H   0  0  0  0  0  0  0  0  0  0  0  0
   -2.6633   -2.8802   -0.6939 H   0  0  0  0  0  0  0  0  0  0  0  0
   -0.8341   -4.6480   -0.1318 H   0  0  0  0  0  0  0  0  0  0  0  0
   -2.0206    2.6344   -0.6413 H   0  0  0  0  0  0  0  0  0  0  0  0
   -0.3952    4.4226   -0.2102 H   0  0  0  0  0  0  0  0  0  0  0  0
    3.1523   -1.7863   -0.9586 H   0  0  0  0  0  0  0  0  0  0  0  0
    3.4767   -0.0369   -0.9054 H   0  0  0  0  0  0  0  0  0  0  0  0
    4.8942   -1.9268    1.0964 H   0  0  0  0  0  0  0  0  0  0  0  0
    5.4046    1.2698   -1.1011 H   0  0  0  0  0  0  0  0  0  0  0  0
    6.7041    0.3452   -1.8914 H   0  0  0  0  0  0  0  0  0  0  0  0
    5.0077   -0.1559   -2.0901 H   0  0  0  0  0  0  0  0  0  0  0  0
    7.0711   -1.4353    1.3590 H   0  0  0  0  0  0  0  0  0  0  0  0
    7.9008   -1.1947   -0.1974 H   0  0  0  0  0  0  0  0  0  0  0  0
    7.5394    0.2029    0.8440 H   0  0  0  0  0  0  0  0  0  0  0  0
   -7.9869    0.9683   -0.1221 H   0  0  0  0  0  0  0  0  0  0  0  0
   -7.2886    0.3448   -1.6360 H   0  0  0  0  0  0  0  0  0  0  0  0
   -8.0298   -0.7769   -0.4695 H   0  0  0  0  0  0  0  0  0  0  0  0
  1  2  1  0  0  0  0
  2  3  2  0  0  0  0
  3  4  1  0  0  0  0
  4  5  1  0  0  0  0
  5  6  1  0  0  0  0
  6  7  2  0  0  0  0
  7  8  1  0  0  0  0
  8  9  2  0  0  0  0
  9 10  1  0  0  0  0
 10 11  1  0  0  0  0
  7 11  1  0  0  0  0
 11 12  2  0  0  0  0
 12 13  1  0  0  0  0
 13 14  2  0  0  0  0
  6 14  1  0  0  0  0
 14 15  1  0  0  0  0
 15 16  2  0  0  0  0
 16 17  1  0  0  0  0
 17 18  2  0  0  0  0
 17 19  1  0  0  0  0
 13 19  1  0  0  0  0
 12 20  1  0  0  0  0
 20 21  1  0  0  0  0
 21 22  1  0  0  0  0
 22 23  2  0  0  0  0
 23 24  1  0  0  0  0
 23 25  1  0  0  0  0
  2 26  1  0  0  0  0
  1 27  1  0  0  0  0
  1 28  1  0  0  0  0
  1 29  1  0  0  0  0
  3 30  1  0  0  0  0
  4 31  1  0  0  0  0
  4 32  1  0  0  0  0
  8 33  1  0  0  0  0
  9 34  1  0  0  0  0
 15 35  1  0  0  0  0
 16 36  1  0  0  0  0
 21 37  1  0  0  0  0
 21 38  1  0  0  0  0
 22 39  1  0  0  0  0
 24 40  1  0  0  0  0
 24 41  1  0  0  0  0
 24 42  1  0  0  0  0
 25 43  1  0  0  0  0
 25 44  1  0  0  0  0
 25 45  1  0  0  0  0
 26 46  1  0  0  0  0
 26 47  1  0  0  0  0
 26 48  1  0  0  0  0
M  END
$$$$
