C10H8ClNO2
APtclcactv06211806343D 0   0.00000     0.00000
 
 22 23  0  0  0  0  0  0  0  0999 V2000
   -3.2475    0.6642    0.5202 C   0  0  0  0  0  0  0  0  0  0  0  0
   -3.0309   -0.6905    0.4005 C   0  0  0  0  0  0  0  0  0  0  0  0
   -1.7753   -1.1633    0.0320 C   0  0  0  0  0  0  0  0  0  0  0  0
   -0.7371   -0.2475   -0.2151 C   0  0  0  0  0  0  0  0  0  0  0  0
   -0.9725    1.1242   -0.0890 C   0  0  0  0  0  0  0  0  0  0  0  0
   -2.2234    1.5696    0.2766 C   0  0  0  0  0  0  0  0  0  0  0  0
    0.3045    2.2605   -0.3921 Cl  0  0  0  0  0  0  0  0  0  0  0  0
    0.4343   -1.0501   -0.5748 C   0  0  0  0  0  0  0  0  0  0  0  0
    0.0574   -2.3375   -0.5272 C   0  0  0  0  0  0  0  0  0  0  0  0
   -1.2597   -2.4247   -0.1664 N   0  0  0  0  0  0  0  0  0  0  0  0
    1.8028   -0.5292   -0.9312 C   0  0  0  0  0  0  0  0  0  0  0  0
    2.5966   -0.2991    0.3290 C   0  0  0  0  0  0  0  0  0  0  0  0
    2.1019   -0.5341    1.4060 O   0  0  0  0  0  0  0  0  0  0  0  0
    3.8533    0.1668    0.2549 O   0  0  0  0  0  0  0  0  0  0  0  0
   -4.2251    1.0263    0.8021 H   0  0  0  0  0  0  0  0  0  0  0  0
   -3.8350   -1.3854    0.5929 H   0  0  0  0  0  0  0  0  0  0  0  0
   -2.4087    2.6290    0.3746 H   0  0  0  0  0  0  0  0  0  0  0  0
    0.6986   -3.1796   -0.7419 H   0  0  0  0  0  0  0  0  0  0  0  0
   -1.7562   -3.2518   -0.0651 H   0  0  0  0  0  0  0  0  0  0  0  0
    2.3175   -1.2584   -1.5568 H   0  0  0  0  0  0  0  0  0  0  0  0
    1.7037    0.4104   -1.4748 H   0  0  0  0  0  0  0  0  0  0  0  0
    4.3226    0.2984    1.0901 H   0  0  0  0  0  0  0  0  0  0  0  0
  1  2  2  0  0  0  0
  2  3  1  0  0  0  0
  3  4  2  0  0  0  0
  4  5  1  0  0  0  0
  5  6  2  0  0  0  0
  1  6  1  0  0  0  0
  5  7  1  0  0  0  0
  4  8  1  0  0  0  0
  8  9  2  0  0  0  0
  9 10  1  0  0  0  0
  3 10  1  0  0  0  0
  8 11  1  0  0  0  0
 11 12  1  0  0  0  0
 12 13  2  0  0  0  0
 12 14  1  0  0  0  0
  1 15  1  0  0  0  0
  2 16  1  0  0  0  0
  6 17  1  0  0  0  0
  9 18  1  0  0  0  0
 10 19  1  0  0  0  0
 11 20  1  0  0  0  0
 11 21  1  0  0  0  0
 14 22  1  0  0  0  0
M  END
$$$$
