C29H24O5
APtclcactv06211806343D 0   0.00000     0.00000
 
 58 62  0  0  0  0  0  0  0  0999 V2000
   -3.0909   -2.4485   -0.7809 C   0  0  0  0  0  0  0  0  0  0  0  0
   -4.3371   -1.9328   -0.1144 C   0  0  0  0  0  0  0  0  0  0  0  0
   -5.4524   -2.7477   -0.0376 C   0  0  0  0  0  0  0  0  0  0  0  0
   -6.6067   -2.2918    0.5703 C   0  0  0  0  0  0  0  0  0  0  0  0
   -6.6503   -1.0173    1.1042 C   0  0  0  0  0  0  0  0  0  0  0  0
   -5.5403   -0.1997    1.0307 C   0  0  0  0  0  0  0  0  0  0  0  0
   -4.3776   -0.6552    0.4200 C   0  0  0  0  0  0  0  0  0  0  0  0
   -3.2992    0.1616    0.3578 O   0  0  0  0  0  0  0  0  0  0  0  0
   -2.0638   -0.3564    0.1655 C   0  0  0  0  0  0  0  0  0  0  0  0
   -1.8985   -1.6201   -0.3840 C   0  0  0  0  0  0  0  0  0  0  0  0
   -0.6270   -2.1342   -0.5747 C   0  0  0  0  0  0  0  0  0  0  0  0
    0.5004   -1.3765   -0.2105 C   0  0  0  0  0  0  0  0  0  0  0  0
    0.3231   -0.0960    0.3470 C   0  0  0  0  0  0  0  0  0  0  0  0
   -0.9518    0.4002    0.5289 C   0  0  0  0  0  0  0  0  0  0  0  0
   -1.1426    1.7710    1.1254 C   0  0  0  0  0  0  0  0  0  0  0  0
   -1.0602    2.8088    0.0359 C   0  0  0  0  0  0  0  0  0  0  0  0
   -0.9589    2.4178   -1.2849 C   0  0  0  0  0  0  0  0  0  0  0  0
   -0.8832    3.3697   -2.2852 C   0  0  0  0  0  0  0  0  0  0  0  0
   -0.9088    4.7146   -1.9661 C   0  0  0  0  0  0  0  0  0  0  0  0
   -1.0097    5.1109   -0.6464 C   0  0  0  0  0  0  0  0  0  0  0  0
   -1.0919    4.1580    0.3583 C   0  0  0  0  0  0  0  0  0  0  0  0
   -1.1911    4.5452    1.6572 O   0  0  0  0  0  0  0  0  0  0  0  0
    1.4004    0.6469    0.7030 O   0  0  0  0  0  0  0  0  0  0  0  0
    1.8447   -1.9138   -0.4096 C   0  0  0  0  0  0  0  0  0  0  0  0
    1.9918   -3.0182   -0.8911 O   0  0  0  0  0  0  0  0  0  0  0  0
    3.0485   -1.0965   -0.0171 C   0  0  0  0  0  0  0  0  0  0  0  0
    4.3230   -1.8839   -0.3281 C   0  0  0  0  0  0  0  0  0  0  0  0
    5.5267   -1.0667    0.0644 C   0  0  0  0  0  0  0  0  0  0  0  0
    6.0486   -1.1735    1.3399 C   0  0  0  0  0  0  0  0  0  0  0  0
    7.1528   -0.4238    1.7000 C   0  0  0  0  0  0  0  0  0  0  0  0
    7.7354    0.4324    0.7843 C   0  0  0  0  0  0  0  0  0  0  0  0
    7.2141    0.5385   -0.4916 C   0  0  0  0  0  0  0  0  0  0  0  0
    6.1125   -0.2144   -0.8530 C   0  0  0  0  0  0  0  0  0  0  0  0
   -0.4688   -3.3691   -1.1124 O   0  0  0  0  0  0  0  0  0  0  0  0
   -2.9253   -3.4835   -0.4820 H   0  0  0  0  0  0  0  0  0  0  0  0
   -3.2164   -2.4029   -1.8627 H   0  0  0  0  0  0  0  0  0  0  0  0
   -5.4210   -3.7434   -0.4546 H   0  0  0  0  0  0  0  0  0  0  0  0
   -7.4751   -2.9312    0.6281 H   0  0  0  0  0  0  0  0  0  0  0  0
   -7.5529   -0.6611    1.5785 H   0  0  0  0  0  0  0  0  0  0  0  0
   -5.5755    0.7957    1.4482 H   0  0  0  0  0  0  0  0  0  0  0  0
   -2.1194    1.8253    1.6059 H   0  0  0  0  0  0  0  0  0  0  0  0
   -0.3633    1.9573    1.8644 H   0  0  0  0  0  0  0  0  0  0  0  0
   -0.9383    1.3678   -1.5367 H   0  0  0  0  0  0  0  0  0  0  0  0
   -0.8036    3.0620   -3.3174 H   0  0  0  0  0  0  0  0  0  0  0  0
   -0.8496    5.4561   -2.7491 H   0  0  0  0  0  0  0  0  0  0  0  0
   -1.0292    6.1616   -0.3976 H   0  0  0  0  0  0  0  0  0  0  0  0
   -2.0993    4.5880    1.9866 H   0  0  0  0  0  0  0  0  0  0  0  0
    1.7352    1.2174   -0.0023 H   0  0  0  0  0  0  0  0  0  0  0  0
    3.0524   -0.1624   -0.5789 H   0  0  0  0  0  0  0  0  0  0  0  0
    3.0074   -0.8785    1.0501 H   0  0  0  0  0  0  0  0  0  0  0  0
    4.3191   -2.8180    0.2336 H   0  0  0  0  0  0  0  0  0  0  0  0
    4.3640   -2.1019   -1.3953 H   0  0  0  0  0  0  0  0  0  0  0  0
    5.5935   -1.8423    2.0554 H   0  0  0  0  0  0  0  0  0  0  0  0
    7.5601   -0.5067    2.6968 H   0  0  0  0  0  0  0  0  0  0  0  0
    8.5976    1.0186    1.0658 H   0  0  0  0  0  0  0  0  0  0  0  0
    7.6690    1.2076   -1.2069 H   0  0  0  0  0  0  0  0  0  0  0  0
    5.7052   -0.1316   -1.8498 H   0  0  0  0  0  0  0  0  0  0  0  0
   -0.4006   -3.3722   -2.0770 H   0  0  0  0  0  0  0  0  0  0  0  0
  1  2  1  0  0  0  0
  2  3  2  0  0  0  0
  3  4  1  0  0  0  0
  4  5  2  0  0  0  0
  5  6  1  0  0  0  0
  6  7  2  0  0  0  0
  2  7  1  0  0  0  0
  7  8  1  0  0  0  0
  8  9  1  0  0  0  0
  9 10  2  0  0  0  0
  1 10  1  0  0  0  0
 10 11  1  0  0  0  0
 11 12  2  0  0  0  0
 12 13  1  0  0  0  0
 13 14  2  0  0  0  0
  9 14  1  0  0  0  0
 14 15  1  0  0  0  0
 15 16  1  0  0  0  0
 16 17  2  0  0  0  0
 17 18  1  0  0  0  0
 18 19  2  0  0  0  0
 19 20  1  0  0  0  0
 20 21  2  0  0  0  0
 16 21  1  0  0  0  0
 21 22  1  0  0  0  0
 13 23  1  0  0  0  0
 12 24  1  0  0  0  0
 24 25  2  0  0  0  0
 24 26  1  0  0  0  0
 26 27  1  0  0  0  0
 27 28  1  0  0  0  0
 28 29  2  0  0  0  0
 29 30  1  0  0  0  0
 30 31  2  0  0  0  0
 31 32  1  0  0  0  0
 32 33  2  0  0  0  0
 28 33  1  0  0  0  0
 11 34  1  0  0  0  0
  1 35  1  0  0  0  0
  1 36  1  0  0  0  0
  3 37  1  0  0  0  0
  4 38  1  0  0  0  0
  5 39  1  0  0  0  0
  6 40  1  0  0  0  0
 15 41  1  0  0  0  0
 15 42  1  0  0  0  0
 17 43  1  0  0  0  0
 18 44  1  0  0  0  0
 19 45  1  0  0  0  0
 20 46  1  0  0  0  0
 22 47  1  0  0  0  0
 23 48  1  0  0  0  0
 26 49  1  0  0  0  0
 26 50  1  0  0  0  0
 27 51  1  0  0  0  0
 27 52  1  0  0  0  0
 29 53  1  0  0  0  0
 30 54  1  0  0  0  0
 31 55  1  0  0  0  0
 32 56  1  0  0  0  0
 33 57  1  0  0  0  0
 34 58  1  0  0  0  0
M  END
$$$$
