C10H16
APtclcactv06211804453D 0   0.00000     0.00000
 
 26 27  0  0  0  0  0  0  0  0999 V2000
   -1.3817    0.9945    1.3210 C   0  0  0  0  0  0  0  0  0  0  0  0
   -0.5277    0.7015    0.0858 C   0  0  0  0  0  0  0  0  0  0  0  0
    1.0001    0.9836    0.3290 C   0  0  0  0  0  0  0  0  0  0  0  0
    1.6042    0.4293   -1.0005 C   0  0  0  0  0  0  0  0  0  0  0  0
    0.7233   -0.8041   -1.3169 C   0  0  0  0  0  0  0  0  0  0  0  0
   -0.3013   -0.8385   -0.1385 C   0  0  0  0  0  0  0  0  0  0  0  0
    0.5561   -1.1582    1.0921 C   0  0  0  0  0  0  0  0  0  0  0  0
    1.3060   -0.1083    1.3615 C   0  0  0  0  0  0  0  0  0  0  0  0
   -1.5529   -1.6919   -0.3534 C   0  0  0  0  0  0  0  0  0  0  0  0
   -1.0622    1.4054   -1.1631 C   0  0  0  0  0  0  0  0  0  0  0  0
   -1.2943    2.0494    1.5812 H   0  0  0  0  0  0  0  0  0  0  0  0
   -2.4240    0.7584    1.1064 H   0  0  0  0  0  0  0  0  0  0  0  0
   -1.0353    0.3845    2.1553 H   0  0  0  0  0  0  0  0  0  0  0  0
    1.2724    2.0052    0.5940 H   0  0  0  0  0  0  0  0  0  0  0  0
    1.5254    1.1707   -1.7956 H   0  0  0  0  0  0  0  0  0  0  0  0
    2.6425    0.1313   -0.8546 H   0  0  0  0  0  0  0  0  0  0  0  0
    0.2084   -0.6731   -2.2687 H   0  0  0  0  0  0  0  0  0  0  0  0
    1.3255   -1.7125   -1.3277 H   0  0  0  0  0  0  0  0  0  0  0  0
    0.5468   -2.0861    1.6446 H   0  0  0  0  0  0  0  0  0  0  0  0
    2.0156   -0.0303    2.1719 H   0  0  0  0  0  0  0  0  0  0  0  0
   -1.2620   -2.7307   -0.5092 H   0  0  0  0  0  0  0  0  0  0  0  0
   -2.1953   -1.6222    0.5245 H   0  0  0  0  0  0  0  0  0  0  0  0
   -2.0931   -1.3306   -1.2285 H   0  0  0  0  0  0  0  0  0  0  0  0
   -1.0762    2.4823   -0.9952 H   0  0  0  0  0  0  0  0  0  0  0  0
   -0.4174    1.1784   -2.0121 H   0  0  0  0  0  0  0  0  0  0  0  0
   -2.0737    1.0571   -1.3717 H   0  0  0  0  0  0  0  0  0  0  0  0
  1  2  1  0  0  0  0
  2  3  1  0  0  0  0
  3  4  1  0  0  0  0
  4  5  1  0  0  0  0
  5  6  1  0  0  0  0
  2  6  1  0  0  0  0
  6  7  1  0  0  0  0
  7  8  2  0  0  0  0
  3  8  1  0  0  0  0
  6  9  1  0  0  0  0
  2 10  1  0  0  0  0
  1 11  1  0  0  0  0
  1 12  1  0  0  0  0
  1 13  1  0  0  0  0
  3 14  1  0  0  0  0
  4 15  1  0  0  0  0
  4 16  1  0  0  0  0
  5 17  1  0  0  0  0
  5 18  1  0  0  0  0
  7 19  1  0  0  0  0
  8 20  1  0  0  0  0
  9 21  1  0  0  0  0
  9 22  1  0  0  0  0
  9 23  1  0  0  0  0
 10 24  1  0  0  0  0
 10 25  1  0  0  0  0
 10 26  1  0  0  0  0
M  END
$$$$
