C13H16N2O2S2
APtclcactv06281817263D 0   0.00000     0.00000
 
 35 37  0  0  0  0  0  0  0  0999 V2000
    0.8738    3.5493    0.2699 C   0  0  0  0  0  0  0  0  0  0  0  0
    0.2927    2.3031   -0.1194 O   0  0  0  0  0  0  0  0  0  0  0  0
    0.8703    1.1660    0.5251 C   0  0  0  0  0  0  0  0  0  0  0  0
   -0.0286   -0.0647    0.3681 C   0  0  0  0  0  0  0  0  0  0  0  0
   -0.9601   -0.2597    1.5569 C   0  0  0  0  0  0  0  0  0  0  0  0
   -2.3475   -0.2339    1.1346 N   0  0  0  0  0  0  0  0  0  0  0  0
   -2.6329   -0.0615   -0.1096 C   0  0  0  0  0  0  0  0  0  0  0  0
   -1.1433    0.1116   -1.0501 S   0  0  0  0  0  0  0  0  0  0  0  0
   -4.2630   -0.0070   -0.7762 S   0  0  0  0  0  0  0  0  0  0  0  0
   -5.2289   -0.2493    0.7352 C   0  0  0  0  0  0  0  0  0  0  0  0
    0.9295   -1.2070    0.1821 C   0  0  0  0  0  0  0  0  0  0  0  0
    0.7729   -2.5753    0.2570 C   0  0  0  0  0  0  0  0  0  0  0  0
    1.8523   -3.4129    0.0432 C   0  0  0  0  0  0  0  0  0  0  0  0
    3.0935   -2.8774   -0.2474 C   0  0  0  0  0  0  0  0  0  0  0  0
    3.2576   -1.5102   -0.3275 C   0  0  0  0  0  0  0  0  0  0  0  0
    2.1756   -0.6588   -0.1171 C   0  0  0  0  0  0  0  0  0  0  0  0
    2.1102    0.7406   -0.1669 N   0  0  0  0  0  0  0  0  0  0  0  0
    3.2898    1.3431    0.4544 O   0  0  0  0  0  0  0  0  0  0  0  0
    4.1843    1.9601   -0.4736 C   0  0  0  0  0  0  0  0  0  0  0  0
    0.4380    4.3540   -0.3221 H   0  0  0  0  0  0  0  0  0  0  0  0
    0.6762    3.7278    1.3269 H   0  0  0  0  0  0  0  0  0  0  0  0
    1.9502    3.5165    0.1019 H   0  0  0  0  0  0  0  0  0  0  0  0
    1.0619    1.3746    1.5777 H   0  0  0  0  0  0  0  0  0  0  0  0
   -0.7459   -1.2196    2.0268 H   0  0  0  0  0  0  0  0  0  0  0  0
   -0.7903    0.5379    2.2802 H   0  0  0  0  0  0  0  0  0  0  0  0
   -6.2915   -0.2415    0.4926 H   0  0  0  0  0  0  0  0  0  0  0  0
   -4.9660   -1.2069    1.1848 H   0  0  0  0  0  0  0  0  0  0  0  0
   -5.0109    0.5544    1.4385 H   0  0  0  0  0  0  0  0  0  0  0  0
   -0.1964   -2.9942    0.4838 H   0  0  0  0  0  0  0  0  0  0  0  0
    1.7261   -4.4838    0.1035 H   0  0  0  0  0  0  0  0  0  0  0  0
    3.9370   -3.5315   -0.4117 H   0  0  0  0  0  0  0  0  0  0  0  0
    4.2297   -1.0979   -0.5544 H   0  0  0  0  0  0  0  0  0  0  0  0
    4.9857    2.4592    0.0712 H   0  0  0  0  0  0  0  0  0  0  0  0
    4.6092    1.1999   -1.1290 H   0  0  0  0  0  0  0  0  0  0  0  0
    3.6404    2.6920   -1.0708 H   0  0  0  0  0  0  0  0  0  0  0  0
  1  2  1  0  0  0  0
  2  3  1  0  0  0  0
  3  4  1  0  0  0  0
  4  5  1  0  0  0  0
  5  6  1  0  0  0  0
  6  7  2  0  0  0  0
  7  8  1  0  0  0  0
  4  8  1  0  0  0  0
  7  9  1  0  0  0  0
  9 10  1  0  0  0  0
  4 11  1  0  0  0  0
 11 12  2  0  0  0  0
 12 13  1  0  0  0  0
 13 14  2  0  0  0  0
 14 15  1  0  0  0  0
 15 16  2  0  0  0  0
 11 16  1  0  0  0  0
 16 17  1  0  0  0  0
  3 17  1  0  0  0  0
 17 18  1  0  0  0  0
 18 19  1  0  0  0  0
  1 20  1  0  0  0  0
  1 21  1  0  0  0  0
  1 22  1  0  0  0  0
  3 23  1  0  0  0  0
  5 24  1  0  0  0  0
  5 25  1  0  0  0  0
 10 26  1  0  0  0  0
 10 27  1  0  0  0  0
 10 28  1  0  0  0  0
 12 29  1  0  0  0  0
 13 30  1  0  0  0  0
 14 31  1  0  0  0  0
 15 32  1  0  0  0  0
 19 33  1  0  0  0  0
 19 34  1  0  0  0  0
 19 35  1  0  0  0  0
M  END
$$$$
