C3H5O6P
APtclcactv06211804333D 0   0.00000     0.00000
 
 15 14  0  0  0  0  0  0  0  0999 V2000
   -0.8051    1.6694    0.1720 C   0  0  0  0  0  0  0  0  0  0  0  0
   -0.9543    0.3522    0.3217 C   0  0  0  0  0  0  0  0  0  0  0  0
   -2.2603   -0.2762    0.0558 C   0  0  0  0  0  0  0  0  0  0  0  0
   -2.3962   -1.4760    0.1921 O   0  0  0  0  0  0  0  0  0  0  0  0
   -3.3041    0.4797   -0.3387 O   0  0  0  0  0  0  0  0  0  0  0  0
    0.0989   -0.4106    0.7197 O   0  0  0  0  0  0  0  0  0  0  0  0
    1.4654   -0.1061   -0.0754 P   0  0  0  0  0  0  0  0  0  0  0  0
    1.2208   -0.2031   -1.5318 O   0  0  0  0  0  0  0  0  0  0  0  0
    1.9771    1.3771    0.2852 O   0  0  0  0  0  0  0  0  0  0  0  0
    2.5862   -1.1795    0.3532 O   0  0  0  0  0  0  0  0  0  0  0  0
    0.1231    2.1434    0.4552 H   0  0  0  0  0  0  0  0  0  0  0  0
   -1.6108    2.2612   -0.2367 H   0  0  0  0  0  0  0  0  0  0  0  0
   -4.1406    0.0226   -0.5011 H   0  0  0  0  0  0  0  0  0  0  0  0
    2.1577    1.5132    1.2254 H   0  0  0  0  0  0  0  0  0  0  0  0
    3.4379   -1.0564   -0.0880 H   0  0  0  0  0  0  0  0  0  0  0  0
  1  2  2  0  0  0  0
  2  3  1  0  0  0  0
  3  4  2  0  0  0  0
  3  5  1  0  0  0  0
  2  6  1  0  0  0  0
  6  7  1  0  0  0  0
  7  8  2  0  0  0  0
  7  9  1  0  0  0  0
  7 10  1  0  0  0  0
  1 11  1  0  0  0  0
  1 12  1  0  0  0  0
  5 13  1  0  0  0  0
  9 14  1  0  0  0  0
 10 15  1  0  0  0  0
M  END
$$$$
