C13H12O3
APtclcactv06211806343D 0   0.00000     0.00000
 
 28 29  0  0  0  0  0  0  0  0999 V2000
    2.4400   -2.3507   -0.0421 C   0  0  0  0  0  0  0  0  0  0  0  0
    1.2150   -1.4731   -0.0288 C   0  0  0  0  0  0  0  0  0  0  0  0
    1.3637   -0.0707   -0.0348 C   0  0  0  0  0  0  0  0  0  0  0  0
    0.2373    0.7575   -0.0223 C   0  0  0  0  0  0  0  0  0  0  0  0
   -1.0439    0.1759   -0.0040 C   0  0  0  0  0  0  0  0  0  0  0  0
   -1.1707   -1.2352    0.0013 C   0  0  0  0  0  0  0  0  0  0  0  0
   -0.0144   -2.0417   -0.0168 C   0  0  0  0  0  0  0  0  0  0  0  0
   -2.4498   -1.8115    0.0200 C   0  0  0  0  0  0  0  0  0  0  0  0
   -3.5564   -1.0157    0.0325 C   0  0  0  0  0  0  0  0  0  0  0  0
   -3.4436    0.3702    0.0269 C   0  0  0  0  0  0  0  0  0  0  0  0
   -2.2048    0.9750    0.0096 C   0  0  0  0  0  0  0  0  0  0  0  0
   -2.1041    2.3283    0.0038 O   0  0  0  0  0  0  0  0  0  0  0  0
    0.3777    2.1037   -0.0272 O   0  0  0  0  0  0  0  0  0  0  0  0
    2.7030    0.5204   -0.0539 C   0  0  0  0  0  0  0  0  0  0  0  0
    3.2097    0.8414   -1.1089 O   0  0  0  0  0  0  0  0  0  0  0  0
    3.4525    0.7302    1.2366 C   0  0  0  0  0  0  0  0  0  0  0  0
    2.8049   -2.4807    0.9768 H   0  0  0  0  0  0  0  0  0  0  0  0
    2.1858   -3.3232   -0.4637 H   0  0  0  0  0  0  0  0  0  0  0  0
    3.2154   -1.8831   -0.6488 H   0  0  0  0  0  0  0  0  0  0  0  0
   -0.1091   -3.1176   -0.0132 H   0  0  0  0  0  0  0  0  0  0  0  0
   -2.5577   -2.8861    0.0243 H   0  0  0  0  0  0  0  0  0  0  0  0
   -4.5367   -1.4688    0.0465 H   0  0  0  0  0  0  0  0  0  0  0  0
   -4.3355    0.9791    0.0367 H   0  0  0  0  0  0  0  0  0  0  0  0
   -2.0639    2.7235    0.8855 H   0  0  0  0  0  0  0  0  0  0  0  0
    0.4071    2.4929   -0.9119 H   0  0  0  0  0  0  0  0  0  0  0  0
    2.8816    0.3041    2.0617 H   0  0  0  0  0  0  0  0  0  0  0  0
    4.4244    0.2404    1.1761 H   0  0  0  0  0  0  0  0  0  0  0  0
    3.5935    1.7977    1.4054 H   0  0  0  0  0  0  0  0  0  0  0  0
  1  2  1  0  0  0  0
  2  3  2  0  0  0  0
  3  4  1  0  0  0  0
  4  5  2  0  0  0  0
  5  6  1  0  0  0  0
  6  7  2  0  0  0  0
  2  7  1  0  0  0  0
  6  8  1  0  0  0  0
  8  9  2  0  0  0  0
  9 10  1  0  0  0  0
 10 11  2  0  0  0  0
  5 11  1  0  0  0  0
 11 12  1  0  0  0  0
  4 13  1  0  0  0  0
  3 14  1  0  0  0  0
 14 15  2  0  0  0  0
 14 16  1  0  0  0  0
  1 17  1  0  0  0  0
  1 18  1  0  0  0  0
  1 19  1  0  0  0  0
  7 20  1  0  0  0  0
  8 21  1  0  0  0  0
  9 22  1  0  0  0  0
 10 23  1  0  0  0  0
 12 24  1  0  0  0  0
 13 25  1  0  0  0  0
 16 26  1  0  0  0  0
 16 27  1  0  0  0  0
 16 28  1  0  0  0  0
M  END
$$$$
