C30H32O6
APtclcactv06281817263D 0   0.00000     0.00000
 
 68 71  0  0  0  0  0  0  0  0999 V2000
   -0.7266   -4.9251   -0.7677 C   0  0  0  0  0  0  0  0  0  0  0  0
    0.0481   -4.5342    0.4644 C   0  0  0  0  0  0  0  0  0  0  0  0
    0.9406   -3.5775    0.4008 C   0  0  0  0  0  0  0  0  0  0  0  0
    1.1036   -2.7822   -0.8688 C   0  0  0  0  0  0  0  0  0  0  0  0
    0.9077   -1.3176   -0.5729 C   0  0  0  0  0  0  0  0  0  0  0  0
    1.9893   -0.5366   -0.2172 C   0  0  0  0  0  0  0  0  0  0  0  0
    1.8235    0.8361    0.0387 C   0  0  0  0  0  0  0  0  0  0  0  0
    0.5585    1.4126   -0.0284 C   0  0  0  0  0  0  0  0  0  0  0  0
   -0.5359    0.6099   -0.3703 C   0  0  0  0  0  0  0  0  0  0  0  0
   -0.3611   -0.7554   -0.6644 C   0  0  0  0  0  0  0  0  0  0  0  0
   -1.4131   -1.5144   -1.0279 O   0  0  0  0  0  0  0  0  0  0  0  0
   -2.6655   -1.1125   -0.8101 C   0  0  0  0  0  0  0  0  0  0  0  0
   -2.9920    0.1734   -0.5212 C   0  0  0  0  0  0  0  0  0  0  0  0
   -1.8995    1.1643   -0.4333 C   0  0  0  0  0  0  0  0  0  0  0  0
   -2.1140    2.3642   -0.4063 O   0  0  0  0  0  0  0  0  0  0  0  0
   -4.4042    0.5723   -0.3053 C   0  0  0  0  0  0  0  0  0  0  0  0
   -5.1143    0.0655    0.7816 C   0  0  0  0  0  0  0  0  0  0  0  0
   -6.4314    0.4400    0.9794 C   0  0  0  0  0  0  0  0  0  0  0  0
   -7.0446    1.3216    0.0932 C   0  0  0  0  0  0  0  0  0  0  0  0
   -6.3375    1.8249   -0.9880 C   0  0  0  0  0  0  0  0  0  0  0  0
   -5.0214    1.4590   -1.1859 C   0  0  0  0  0  0  0  0  0  0  0  0
   -8.3394    1.6894    0.2882 O   0  0  0  0  0  0  0  0  0  0  0  0
   -7.1270   -0.0531    2.0388 O   0  0  0  0  0  0  0  0  0  0  0  0
    0.3888    2.7323    0.2339 O   0  0  0  0  0  0  0  0  0  0  0  0
    3.0176    1.6446    0.3589 C   0  0  0  0  0  0  0  0  0  0  0  0
    4.2172    1.1139    0.1392 C   0  0  0  0  0  0  0  0  0  0  0  0
    4.3405   -0.2634   -0.4562 C   0  0  0  0  0  0  0  0  0  0  0  0
    3.2280   -1.0776   -0.0877 O   0  0  0  0  0  0  0  0  0  0  0  0
    4.3974   -0.1493   -1.9808 C   0  0  0  0  0  0  0  0  0  0  0  0
    5.6299   -0.9155    0.0470 C   0  0  0  0  0  0  0  0  0  0  0  0
    5.4582    1.8948    0.4872 C   0  0  0  0  0  0  0  0  0  0  0  0
    6.3416    2.0287   -0.7548 C   0  0  0  0  0  0  0  0  0  0  0  0
    5.0624    3.2867    0.9841 C   0  0  0  0  0  0  0  0  0  0  0  0
    6.2191    1.1727    1.5692 C   0  0  0  0  0  0  0  0  0  0  0  0
    7.4470    0.7721    1.3507 C   0  0  0  0  0  0  0  0  0  0  0  0
   -0.2041   -5.2439    1.7697 C   0  0  0  0  0  0  0  0  0  0  0  0
   -0.0319   -5.1747   -1.5697 H   0  0  0  0  0  0  0  0  0  0  0  0
   -1.3507   -5.7906   -0.5451 H   0  0  0  0  0  0  0  0  0  0  0  0
   -1.3576   -4.0928   -1.0794 H   0  0  0  0  0  0  0  0  0  0  0  0
    1.5597   -3.3586    1.2583 H   0  0  0  0  0  0  0  0  0  0  0  0
    2.1041   -2.9410   -1.2711 H   0  0  0  0  0  0  0  0  0  0  0  0
    0.3626   -3.1076   -1.5990 H   0  0  0  0  0  0  0  0  0  0  0  0
   -3.4577   -1.8443   -0.8663 H   0  0  0  0  0  0  0  0  0  0  0  0
   -4.6374   -0.6185    1.4679 H   0  0  0  0  0  0  0  0  0  0  0  0
   -6.8161    2.5080   -1.6741 H   0  0  0  0  0  0  0  0  0  0  0  0
   -4.4727    1.8523   -2.0289 H   0  0  0  0  0  0  0  0  0  0  0  0
   -8.4458    2.4779    0.8378 H   0  0  0  0  0  0  0  0  0  0  0  0
   -7.0602    0.4862    2.8386 H   0  0  0  0  0  0  0  0  0  0  0  0
    0.4699    3.3014   -0.5436 H   0  0  0  0  0  0  0  0  0  0  0  0
    2.9189    2.6421    0.7611 H   0  0  0  0  0  0  0  0  0  0  0  0
    5.2600    0.4519   -2.2682 H   0  0  0  0  0  0  0  0  0  0  0  0
    4.4868   -1.1444   -2.4166 H   0  0  0  0  0  0  0  0  0  0  0  0
    3.4861    0.3259   -2.3439 H   0  0  0  0  0  0  0  0  0  0  0  0
    5.6470   -0.8933    1.1367 H   0  0  0  0  0  0  0  0  0  0  0  0
    5.6720   -1.9493   -0.2960 H   0  0  0  0  0  0  0  0  0  0  0  0
    6.4891   -0.3686   -0.3412 H   0  0  0  0  0  0  0  0  0  0  0  0
    5.7912    2.5510   -1.5374 H   0  0  0  0  0  0  0  0  0  0  0  0
    7.2392    2.5935   -0.5031 H   0  0  0  0  0  0  0  0  0  0  0  0
    6.6235    1.0371   -1.1088 H   0  0  0  0  0  0  0  0  0  0  0  0
    4.4947    3.1941    1.9099 H   0  0  0  0  0  0  0  0  0  0  0  0
    5.9608    3.8765    1.1662 H   0  0  0  0  0  0  0  0  0  0  0  0
    4.4499    3.7810    0.2301 H   0  0  0  0  0  0  0  0  0  0  0  0
    5.7521    0.9856    2.5249 H   0  0  0  0  0  0  0  0  0  0  0  0
    7.9923    0.2546    2.1261 H   0  0  0  0  0  0  0  0  0  0  0  0
    7.9141    0.9592    0.3950 H   0  0  0  0  0  0  0  0  0  0  0  0
   -0.9741   -6.0023    1.6282 H   0  0  0  0  0  0  0  0  0  0  0  0
    0.7164   -5.7196    2.1084 H   0  0  0  0  0  0  0  0  0  0  0  0
   -0.5368   -4.5233    2.5168 H   0  0  0  0  0  0  0  0  0  0  0  0
  1  2  1  0  0  0  0
  2  3  2  0  0  0  0
  3  4  1  0  0  0  0
  4  5  1  0  0  0  0
  5  6  2  0  0  0  0
  6  7  1  0  0  0  0
  7  8  2  0  0  0  0
  8  9  1  0  0  0  0
  9 10  2  0  0  0  0
  5 10  1  0  0  0  0
 10 11  1  0  0  0  0
 11 12  1  0  0  0  0
 12 13  2  0  0  0  0
 13 14  1  0  0  0  0
  9 14  1  0  0  0  0
 14 15  2  0  0  0  0
 13 16  1  0  0  0  0
 16 17  2  0  0  0  0
 17 18  1  0  0  0  0
 18 19  2  0  0  0  0
 19 20  1  0  0  0  0
 20 21  2  0  0  0  0
 16 21  1  0  0  0  0
 19 22  1  0  0  0  0
 18 23  1  0  0  0  0
  8 24  1  0  0  0  0
  7 25  1  0  0  0  0
 25 26  2  0  0  0  0
 26 27  1  0  0  0  0
 27 28  1  0  0  0  0
  6 28  1  0  0  0  0
 27 29  1  0  0  0  0
 27 30  1  0  0  0  0
 26 31  1  0  0  0  0
 31 32  1  0  0  0  0
 31 33  1  0  0  0  0
 31 34  1  0  0  0  0
 34 35  2  0  0  0  0
  2 36  1  0  0  0  0
  1 37  1  0  0  0  0
  1 38  1  0  0  0  0
  1 39  1  0  0  0  0
  3 40  1  0  0  0  0
  4 41  1  0  0  0  0
  4 42  1  0  0  0  0
 12 43  1  0  0  0  0
 17 44  1  0  0  0  0
 20 45  1  0  0  0  0
 21 46  1  0  0  0  0
 22 47  1  0  0  0  0
 23 48  1  0  0  0  0
 24 49  1  0  0  0  0
 25 50  1  0  0  0  0
 29 51  1  0  0  0  0
 29 52  1  0  0  0  0
 29 53  1  0  0  0  0
 30 54  1  0  0  0  0
 30 55  1  0  0  0  0
 30 56  1  0  0  0  0
 32 57  1  0  0  0  0
 32 58  1  0  0  0  0
 32 59  1  0  0  0  0
 33 60  1  0  0  0  0
 33 61  1  0  0  0  0
 33 62  1  0  0  0  0
 34 63  1  0  0  0  0
 35 64  1  0  0  0  0
 35 65  1  0  0  0  0
 36 66  1  0  0  0  0
 36 67  1  0  0  0  0
 36 68  1  0  0  0  0
M  END
$$$$
