C26H26O7
APtclcactv06281817263D 0   0.00000     0.00000
 
 59 62  0  0  0  0  0  0  0  0999 V2000
    0.9395   -3.9754    0.4890 C   0  0  0  0  0  0  0  0  0  0  0  0
    1.9708   -3.4565    1.4577 C   0  0  0  0  0  0  0  0  0  0  0  0
    2.9126   -2.6473    1.0404 C   0  0  0  0  0  0  0  0  0  0  0  0
    2.9072   -2.1556   -0.3841 C   0  0  0  0  0  0  0  0  0  0  0  0
    2.9284   -0.6488   -0.3955 C   0  0  0  0  0  0  0  0  0  0  0  0
    4.1388    0.0266   -0.4113 C   0  0  0  0  0  0  0  0  0  0  0  0
    4.1747    1.4168   -0.4212 C   0  0  0  0  0  0  0  0  0  0  0  0
    2.9972    2.1416   -0.4167 C   0  0  0  0  0  0  0  0  0  0  0  0
    1.7713    1.4654   -0.4037 C   0  0  0  0  0  0  0  0  0  0  0  0
    1.7375    0.0606   -0.3961 C   0  0  0  0  0  0  0  0  0  0  0  0
    0.5506   -0.5821   -0.3779 O   0  0  0  0  0  0  0  0  0  0  0  0
   -0.6213    0.0696   -0.4353 C   0  0  0  0  0  0  0  0  0  0  0  0
   -0.6932    1.4343   -0.4120 C   0  0  0  0  0  0  0  0  0  0  0  0
    0.4928    2.1978   -0.4022 C   0  0  0  0  0  0  0  0  0  0  0  0
    0.4613    3.4179   -0.3843 O   0  0  0  0  0  0  0  0  0  0  0  0
   -2.0354    2.1152   -0.3799 C   0  0  0  0  0  0  0  0  0  0  0  0
   -3.0003    1.3486   -1.0999 O   0  0  0  0  0  0  0  0  0  0  0  0
   -3.0614    0.0157   -0.8540 C   0  0  0  0  0  0  0  0  0  0  0  0
   -4.2629   -0.6642   -0.9316 C   0  0  0  0  0  0  0  0  0  0  0  0
   -4.3025   -2.0301   -0.6945 C   0  0  0  0  0  0  0  0  0  0  0  0
   -3.1357   -2.7262   -0.3783 C   0  0  0  0  0  0  0  0  0  0  0  0
   -1.9309   -2.0556   -0.2923 C   0  0  0  0  0  0  0  0  0  0  0  0
   -1.8881   -0.6815   -0.5229 C   0  0  0  0  0  0  0  0  0  0  0  0
   -3.1844   -4.0673   -0.1538 O   0  0  0  0  0  0  0  0  0  0  0  0
   -5.4850   -2.6943   -0.7702 O   0  0  0  0  0  0  0  0  0  0  0  0
   -2.4844    2.2644    1.0509 C   0  0  0  0  0  0  0  0  0  0  0  0
   -2.7639    3.4515    1.5292 C   0  0  0  0  0  0  0  0  0  0  0  0
   -2.5194    4.6789    0.6897 C   0  0  0  0  0  0  0  0  0  0  0  0
   -3.3300    3.5897    2.9190 C   0  0  0  0  0  0  0  0  0  0  0  0
    3.0295    3.4984   -0.4244 O   0  0  0  0  0  0  0  0  0  0  0  0
    5.3004   -0.6759   -0.4167 O   0  0  0  0  0  0  0  0  0  0  0  0
    6.5143    0.0779   -0.4330 C   0  0  0  0  0  0  0  0  0  0  0  0
    1.9185   -3.8686    2.9063 C   0  0  0  0  0  0  0  0  0  0  0  0
    1.3237   -4.8661   -0.0082 H   0  0  0  0  0  0  0  0  0  0  0  0
    0.0269   -4.2263    1.0297 H   0  0  0  0  0  0  0  0  0  0  0  0
    0.7219   -3.2092   -0.2551 H   0  0  0  0  0  0  0  0  0  0  0  0
    3.6931   -2.3325    1.7174 H   0  0  0  0  0  0  0  0  0  0  0  0
    3.7874   -2.5353   -0.9029 H   0  0  0  0  0  0  0  0  0  0  0  0
    2.0076   -2.5101   -0.8873 H   0  0  0  0  0  0  0  0  0  0  0  0
    5.1242    1.9313   -0.4320 H   0  0  0  0  0  0  0  0  0  0  0  0
   -1.9494    3.1030   -0.8325 H   0  0  0  0  0  0  0  0  0  0  0  0
   -5.1700   -0.1319   -1.1771 H   0  0  0  0  0  0  0  0  0  0  0  0
   -1.0267   -2.5934   -0.0481 H   0  0  0  0  0  0  0  0  0  0  0  0
   -3.0546   -4.6040   -0.9476 H   0  0  0  0  0  0  0  0  0  0  0  0
   -5.6864   -3.0397   -1.6507 H   0  0  0  0  0  0  0  0  0  0  0  0
   -2.5758    1.3927    1.6819 H   0  0  0  0  0  0  0  0  0  0  0  0
   -3.3762    4.8499    0.0380 H   0  0  0  0  0  0  0  0  0  0  0  0
   -2.3799    5.5422    1.3404 H   0  0  0  0  0  0  0  0  0  0  0  0
   -1.6254    4.5323    0.0837 H   0  0  0  0  0  0  0  0  0  0  0  0
   -3.4362    2.6021    3.3680 H   0  0  0  0  0  0  0  0  0  0  0  0
   -2.6573    4.1947    3.5269 H   0  0  0  0  0  0  0  0  0  0  0  0
   -4.3060    4.0722    2.8675 H   0  0  0  0  0  0  0  0  0  0  0  0
    3.0325    3.8867   -1.3100 H   0  0  0  0  0  0  0  0  0  0  0  0
    7.3651   -0.6034   -0.4357 H   0  0  0  0  0  0  0  0  0  0  0  0
    6.5439    0.6997   -1.3278 H   0  0  0  0  0  0  0  0  0  0  0  0
    6.5599    0.7125    0.4521 H   0  0  0  0  0  0  0  0  0  0  0  0
    1.0733   -4.5388    3.0632 H   0  0  0  0  0  0  0  0  0  0  0  0
    2.8430   -4.3814    3.1717 H   0  0  0  0  0  0  0  0  0  0  0  0
    1.8015   -2.9836    3.5318 H   0  0  0  0  0  0  0  0  0  0  0  0
  1  2  1  0  0  0  0
  2  3  2  0  0  0  0
  3  4  1  0  0  0  0
  4  5  1  0  0  0  0
  5  6  2  0  0  0  0
  6  7  1  0  0  0  0
  7  8  2  0  0  0  0
  8  9  1  0  0  0  0
  9 10  2  0  0  0  0
  5 10  1  0  0  0  0
 10 11  1  0  0  0  0
 11 12  1  0  0  0  0
 12 13  2  0  0  0  0
 13 14  1  0  0  0  0
  9 14  1  0  0  0  0
 14 15  2  0  0  0  0
 13 16  1  0  0  0  0
 16 17  1  0  0  0  0
 17 18  1  0  0  0  0
 18 19  2  0  0  0  0
 19 20  1  0  0  0  0
 20 21  2  0  0  0  0
 21 22  1  0  0  0  0
 22 23  2  0  0  0  0
 18 23  1  0  0  0  0
 12 23  1  0  0  0  0
 21 24  1  0  0  0  0
 20 25  1  0  0  0  0
 16 26  1  0  0  0  0
 26 27  2  0  0  0  0
 27 28  1  0  0  0  0
 27 29  1  0  0  0  0
  8 30  1  0  0  0  0
  6 31  1  0  0  0  0
 31 32  1  0  0  0  0
  2 33  1  0  0  0  0
  1 34  1  0  0  0  0
  1 35  1  0  0  0  0
  1 36  1  0  0  0  0
  3 37  1  0  0  0  0
  4 38  1  0  0  0  0
  4 39  1  0  0  0  0
  7 40  1  0  0  0  0
 16 41  1  0  0  0  0
 19 42  1  0  0  0  0
 22 43  1  0  0  0  0
 24 44  1  0  0  0  0
 25 45  1  0  0  0  0
 26 46  1  0  0  0  0
 28 47  1  0  0  0  0
 28 48  1  0  0  0  0
 28 49  1  0  0  0  0
 29 50  1  0  0  0  0
 29 51  1  0  0  0  0
 29 52  1  0  0  0  0
 30 53  1  0  0  0  0
 32 54  1  0  0  0  0
 32 55  1  0  0  0  0
 32 56  1  0  0  0  0
 33 57  1  0  0  0  0
 33 58  1  0  0  0  0
 33 59  1  0  0  0  0
M  END
$$$$
