C16H12O5
APtclcactv06281817263D 0   0.00000     0.00000
 
 33 35  0  0  0  0  0  0  0  0999 V2000
    3.4898    2.9817   -0.2202 C   0  0  0  0  0  0  0  0  0  0  0  0
    3.5897    1.5585   -0.3009 O   0  0  0  0  0  0  0  0  0  0  0  0
    2.4353    0.8528   -0.1957 C   0  0  0  0  0  0  0  0  0  0  0  0
    2.4656   -0.5301   -0.2660 C   0  0  0  0  0  0  0  0  0  0  0  0
    1.2904   -1.2647   -0.1597 C   0  0  0  0  0  0  0  0  0  0  0  0
    0.0716   -0.6018    0.0188 C   0  0  0  0  0  0  0  0  0  0  0  0
    0.0452    0.8063    0.0899 C   0  0  0  0  0  0  0  0  0  0  0  0
    1.2276    1.5245   -0.0118 C   0  0  0  0  0  0  0  0  0  0  0  0
   -1.2453    1.5053    0.2773 C   0  0  0  0  0  0  0  0  0  0  0  0
   -1.2696    2.6799    0.5877 O   0  0  0  0  0  0  0  0  0  0  0  0
   -2.5055    0.7559    0.0816 C   0  0  0  0  0  0  0  0  0  0  0  0
   -3.7179    1.4273   -0.0338 C   0  0  0  0  0  0  0  0  0  0  0  0
   -4.8872    0.7090   -0.2175 C   0  0  0  0  0  0  0  0  0  0  0  0
   -4.8581   -0.6715   -0.2864 C   0  0  0  0  0  0  0  0  0  0  0  0
   -3.6592   -1.3552   -0.1732 C   0  0  0  0  0  0  0  0  0  0  0  0
   -2.4758   -0.6493    0.0107 C   0  0  0  0  0  0  0  0  0  0  0  0
   -1.1846   -1.3622    0.1320 C   0  0  0  0  0  0  0  0  0  0  0  0
   -1.1611   -2.5628    0.3226 O   0  0  0  0  0  0  0  0  0  0  0  0
    1.3252   -2.6183   -0.2292 O   0  0  0  0  0  0  0  0  0  0  0  0
    3.7796   -1.2422   -0.4594 C   0  0  0  0  0  0  0  0  0  0  0  0
    4.3566   -1.5316    0.8155 O   0  0  0  0  0  0  0  0  0  0  0  0
    4.4821    3.4218   -0.3187 H   0  0  0  0  0  0  0  0  0  0  0  0
    2.8490    3.3470   -1.0228 H   0  0  0  0  0  0  0  0  0  0  0  0
    3.0620    3.2619    0.7423 H   0  0  0  0  0  0  0  0  0  0  0  0
    1.2116    2.6030    0.0426 H   0  0  0  0  0  0  0  0  0  0  0  0
   -3.7473    2.5055    0.0200 H   0  0  0  0  0  0  0  0  0  0  0  0
   -5.8286    1.2307   -0.3073 H   0  0  0  0  0  0  0  0  0  0  0  0
   -5.7770   -1.2207   -0.4291 H   0  0  0  0  0  0  0  0  0  0  0  0
   -3.6436   -2.4337   -0.2273 H   0  0  0  0  0  0  0  0  0  0  0  0
    1.4409   -3.0532    0.6267 H   0  0  0  0  0  0  0  0  0  0  0  0
    3.6124   -2.1725   -1.0021 H   0  0  0  0  0  0  0  0  0  0  0  0
    4.4572   -0.6060   -1.0288 H   0  0  0  0  0  0  0  0  0  0  0  0
    5.2063   -1.9908    0.7676 H   0  0  0  0  0  0  0  0  0  0  0  0
  1  2  1  0  0  0  0
  2  3  1  0  0  0  0
  3  4  2  0  0  0  0
  4  5  1  0  0  0  0
  5  6  2  0  0  0  0
  6  7  1  0  0  0  0
  7  8  2  0  0  0  0
  3  8  1  0  0  0  0
  7  9  1  0  0  0  0
  9 10  2  0  0  0  0
  9 11  1  0  0  0  0
 11 12  2  0  0  0  0
 12 13  1  0  0  0  0
 13 14  2  0  0  0  0
 14 15  1  0  0  0  0
 15 16  2  0  0  0  0
 11 16  1  0  0  0  0
 16 17  1  0  0  0  0
  6 17  1  0  0  0  0
 17 18  2  0  0  0  0
  5 19  1  0  0  0  0
  4 20  1  0  0  0  0
 20 21  1  0  0  0  0
  1 22  1  0  0  0  0
  1 23  1  0  0  0  0
  1 24  1  0  0  0  0
  8 25  1  0  0  0  0
 12 26  1  0  0  0  0
 13 27  1  0  0  0  0
 14 28  1  0  0  0  0
 15 29  1  0  0  0  0
 19 30  1  0  0  0  0
 20 31  1  0  0  0  0
 20 32  1  0  0  0  0
 21 33  1  0  0  0  0
M  END
$$$$
