C13H16O10
APtclcactv06281817263D 0   0.00000     0.00000
 
 39 40  0  0  0  0  0  0  0  0999 V2000
   -3.1277    1.3863   -0.1686 C   0  0  0  0  0  0  0  0  0  0  0  0
   -3.6399    0.1042    0.0486 C   0  0  0  0  0  0  0  0  0  0  0  0
   -2.7906   -0.9229    0.4694 C   0  0  0  0  0  0  0  0  0  0  0  0
   -1.4469   -0.6683    0.6695 C   0  0  0  0  0  0  0  0  0  0  0  0
   -0.9394    0.6101    0.4528 C   0  0  0  0  0  0  0  0  0  0  0  0
   -1.7832    1.6352    0.0331 C   0  0  0  0  0  0  0  0  0  0  0  0
   -1.2841    2.8826   -0.1776 O   0  0  0  0  0  0  0  0  0  0  0  0
    0.3820    0.8577    0.6507 O   0  0  0  0  0  0  0  0  0  0  0  0
    1.2238    0.8489   -0.5040 C   0  0  0  0  0  0  0  0  0  0  0  0
    2.5427    1.5552   -0.1796 C   0  0  0  0  0  0  0  0  0  0  0  0
    3.2663    0.7847    0.9290 C   0  0  0  0  0  0  0  0  0  0  0  0
    3.4784   -0.6628    0.4750 C   0  0  0  0  0  0  0  0  0  0  0  0
    2.1233   -1.2834    0.1253 C   0  0  0  0  0  0  0  0  0  0  0  0
    1.4901   -0.5012   -0.8893 O   0  0  0  0  0  0  0  0  0  0  0  0
    2.3322   -2.7101   -0.3864 C   0  0  0  0  0  0  0  0  0  0  0  0
    1.0631   -3.3160   -0.6397 O   0  0  0  0  0  0  0  0  0  0  0  0
    4.3242   -0.6830   -0.6766 O   0  0  0  0  0  0  0  0  0  0  0  0
    4.5324    1.3950    1.1873 O   0  0  0  0  0  0  0  0  0  0  0  0
    3.3638    1.5937   -1.3485 O   0  0  0  0  0  0  0  0  0  0  0  0
   -0.6198   -1.6673    1.0789 O   0  0  0  0  0  0  0  0  0  0  0  0
   -5.0742   -0.1643   -0.1653 C   0  0  0  0  0  0  0  0  0  0  0  0
   -5.8117    0.7296   -0.5307 O   0  0  0  0  0  0  0  0  0  0  0  0
   -5.5668   -1.4008    0.0445 O   0  0  0  0  0  0  0  0  0  0  0  0
   -3.7809    2.1807   -0.4980 H   0  0  0  0  0  0  0  0  0  0  0  0
   -3.1839   -1.9144    0.6383 H   0  0  0  0  0  0  0  0  0  0  0  0
   -0.9742    3.0349   -1.0809 H   0  0  0  0  0  0  0  0  0  0  0  0
    0.7246    1.3687   -1.3217 H   0  0  0  0  0  0  0  0  0  0  0  0
    2.3385    2.5716    0.1569 H   0  0  0  0  0  0  0  0  0  0  0  0
    2.6621    0.7975    1.8361 H   0  0  0  0  0  0  0  0  0  0  0  0
    3.9432   -1.2326    1.2795 H   0  0  0  0  0  0  0  0  0  0  0  0
    1.4929   -1.3046    1.0143 H   0  0  0  0  0  0  0  0  0  0  0  0
    2.9129   -2.6840   -1.3085 H   0  0  0  0  0  0  0  0  0  0  0  0
    2.8686   -3.2905    0.3644 H   0  0  0  0  0  0  0  0  0  0  0  0
    1.1191   -4.2240   -0.9674 H   0  0  0  0  0  0  0  0  0  0  0  0
    5.1996   -0.2998   -0.5284 H   0  0  0  0  0  0  0  0  0  0  0  0
    4.4736    2.3169    1.4731 H   0  0  0  0  0  0  0  0  0  0  0  0
    2.9651    2.0632   -2.0940 H   0  0  0  0  0  0  0  0  0  0  0  0
   -0.2850   -2.2203    0.3598 H   0  0  0  0  0  0  0  0  0  0  0  0
   -6.5130   -1.5283   -0.1089 H   0  0  0  0  0  0  0  0  0  0  0  0
  1  2  2  0  0  0  0
  2  3  1  0  0  0  0
  3  4  2  0  0  0  0
  4  5  1  0  0  0  0
  5  6  2  0  0  0  0
  1  6  1  0  0  0  0
  6  7  1  0  0  0  0
  5  8  1  0  0  0  0
  8  9  1  0  0  0  0
  9 10  1  0  0  0  0
 10 11  1  0  0  0  0
 11 12  1  0  0  0  0
 12 13  1  0  0  0  0
 13 14  1  0  0  0  0
  9 14  1  0  0  0  0
 13 15  1  0  0  0  0
 15 16  1  0  0  0  0
 12 17  1  0  0  0  0
 11 18  1  0  0  0  0
 10 19  1  0  0  0  0
  4 20  1  0  0  0  0
  2 21  1  0  0  0  0
 21 22  2  0  0  0  0
 21 23  1  0  0  0  0
  1 24  1  0  0  0  0
  3 25  1  0  0  0  0
  7 26  1  0  0  0  0
  9 27  1  0  0  0  0
 10 28  1  0  0  0  0
 11 29  1  0  0  0  0
 12 30  1  0  0  0  0
 13 31  1  0  0  0  0
 15 32  1  0  0  0  0
 15 33  1  0  0  0  0
 16 34  1  0  0  0  0
 17 35  1  0  0  0  0
 18 36  1  0  0  0  0
 19 37  1  0  0  0  0
 20 38  1  0  0  0  0
 23 39  1  0  0  0  0
M  END
$$$$
