C17H18O4
APtclcactv06281817263D 0   0.00000     0.00000
 
 39 40  0  0  0  0  0  0  0  0999 V2000
    5.1684   -1.1466    0.0226 C   0  0  0  0  0  0  0  0  0  0  0  0
    3.8597   -0.3995    0.0168 C   0  0  0  0  0  0  0  0  0  0  0  0
    3.8555    0.9897    0.0134 C   0  0  0  0  0  0  0  0  0  0  0  0
    2.6554    1.6901    0.0086 C   0  0  0  0  0  0  0  0  0  0  0  0
    1.4529    1.0093    0.0070 C   0  0  0  0  0  0  0  0  0  0  0  0
    1.4465   -0.3984    0.0099 C   0  0  0  0  0  0  0  0  0  0  0  0
    2.6674   -1.0986    0.0092 C   0  0  0  0  0  0  0  0  0  0  0  0
    2.6739   -2.4547    0.0120 O   0  0  0  0  0  0  0  0  0  0  0  0
    0.1803   -1.1280    0.0089 C   0  0  0  0  0  0  0  0  0  0  0  0
    0.1793   -2.3418    0.0114 O   0  0  0  0  0  0  0  0  0  0  0  0
   -1.1242   -0.3734    0.0047 C   0  0  0  0  0  0  0  0  0  0  0  0
   -2.2879   -1.3667    0.0044 C   0  0  0  0  0  0  0  0  0  0  0  0
   -3.5924   -0.6121    0.0002 C   0  0  0  0  0  0  0  0  0  0  0  0
   -4.1882   -0.2685   -1.1989 C   0  0  0  0  0  0  0  0  0  0  0  0
   -5.3848    0.4237   -1.2028 C   0  0  0  0  0  0  0  0  0  0  0  0
   -5.9857    0.7719   -0.0076 C   0  0  0  0  0  0  0  0  0  0  0  0
   -5.3903    0.4275    1.1915 C   0  0  0  0  0  0  0  0  0  0  0  0
   -4.1960   -0.2685    1.1954 C   0  0  0  0  0  0  0  0  0  0  0  0
    0.2829    1.6950    0.0032 O   0  0  0  0  0  0  0  0  0  0  0  0
    0.3670    3.1216    0.0009 C   0  0  0  0  0  0  0  0  0  0  0  0
    5.0311    1.6671    0.0154 O   0  0  0  0  0  0  0  0  0  0  0  0
    5.4808   -1.3243    1.0516 H   0  0  0  0  0  0  0  0  0  0  0  0
    5.0443   -2.1009   -0.4893 H   0  0  0  0  0  0  0  0  0  0  0  0
    5.9267   -0.5551   -0.4904 H   0  0  0  0  0  0  0  0  0  0  0  0
    2.6624    2.7701    0.0063 H   0  0  0  0  0  0  0  0  0  0  0  0
    2.6742   -2.8498   -0.8706 H   0  0  0  0  0  0  0  0  0  0  0  0
   -1.1832    0.2551    0.8932 H   0  0  0  0  0  0  0  0  0  0  0  0
   -1.1796    0.2514   -0.8867 H   0  0  0  0  0  0  0  0  0  0  0  0
   -2.2289   -1.9953   -0.8842 H   0  0  0  0  0  0  0  0  0  0  0  0
   -2.2325   -1.9916    0.8958 H   0  0  0  0  0  0  0  0  0  0  0  0
   -3.7188   -0.5406   -2.1327 H   0  0  0  0  0  0  0  0  0  0  0  0
   -5.8499    0.6928   -2.1396 H   0  0  0  0  0  0  0  0  0  0  0  0
   -6.9202    1.3134   -0.0106 H   0  0  0  0  0  0  0  0  0  0  0  0
   -5.8596    0.6999    2.1253 H   0  0  0  0  0  0  0  0  0  0  0  0
   -3.7308   -0.5375    2.1322 H   0  0  0  0  0  0  0  0  0  0  0  0
    0.8992    3.4556    0.8915 H   0  0  0  0  0  0  0  0  0  0  0  0
    0.9033    3.4525   -0.8885 H   0  0  0  0  0  0  0  0  0  0  0  0
   -0.6376    3.5447   -0.0022 H   0  0  0  0  0  0  0  0  0  0  0  0
    5.3745    1.8614   -0.8675 H   0  0  0  0  0  0  0  0  0  0  0  0
  1  2  1  0  0  0  0
  2  3  2  0  0  0  0
  3  4  1  0  0  0  0
  4  5  2  0  0  0  0
  5  6  1  0  0  0  0
  6  7  2  0  0  0  0
  2  7  1  0  0  0  0
  7  8  1  0  0  0  0
  6  9  1  0  0  0  0
  9 10  2  0  0  0  0
  9 11  1  0  0  0  0
 11 12  1  0  0  0  0
 12 13  1  0  0  0  0
 13 14  2  0  0  0  0
 14 15  1  0  0  0  0
 15 16  2  0  0  0  0
 16 17  1  0  0  0  0
 17 18  2  0  0  0  0
 13 18  1  0  0  0  0
  5 19  1  0  0  0  0
 19 20  1  0  0  0  0
  3 21  1  0  0  0  0
  1 22  1  0  0  0  0
  1 23  1  0  0  0  0
  1 24  1  0  0  0  0
  4 25  1  0  0  0  0
  8 26  1  0  0  0  0
 11 27  1  0  0  0  0
 11 28  1  0  0  0  0
 12 29  1  0  0  0  0
 12 30  1  0  0  0  0
 14 31  1  0  0  0  0
 15 32  1  0  0  0  0
 16 33  1  0  0  0  0
 17 34  1  0  0  0  0
 18 35  1  0  0  0  0
 20 36  1  0  0  0  0
 20 37  1  0  0  0  0
 20 38  1  0  0  0  0
 21 39  1  0  0  0  0
M  END
$$$$
