C30H27O15
APtclcactv06291803033D 0   0.00000     0.00000
 
 72 76  0  0  0  0  0  0  0  0999 V2000
    5.8880   -0.5813    0.2094 C   0  0  0  0  0  0  0  0  0  0  0  0
    6.8117   -1.5973    0.3165 C   0  0  0  0  0  0  0  0  0  0  0  0
    8.1699   -1.3160    0.2476 C   0  0  0  0  0  0  0  0  0  0  0  0
    8.6062   -0.0035    0.0700 C   0  0  0  0  0  0  0  0  0  0  0  0
    7.6872    1.0213   -0.0384 C   0  0  0  0  0  0  0  0  0  0  0  0
    6.3179    0.7387    0.0305 C   0  0  0  0  0  0  0  0  0  0  0  0
    5.3346    1.8248   -0.0847 C   0  0  0  0  0  0  0  0  0  0  0  0
    4.0136    1.5499   -0.0180 C   0  0  0  0  0  0  0  0  0  0  0  0
    3.0650    2.5976   -0.1291 C   0  0  0  0  0  0  0  0  0  0  0  0
    3.4405    3.7442   -0.2845 O   0  3  0  0  0  0  0  0  0  0  0  0
    2.7568    4.4244   -0.3550 H   0  0  0  0  0  0  0  0  0  0  0  0
    1.7455    2.3231   -0.0624 O   0  0  0  0  0  0  0  0  0  0  0  0
    0.8463    3.4272   -0.1819 C   0  0  0  0  0  0  0  0  0  0  0  0
   -0.5952    2.9239   -0.0831 C   0  0  0  0  0  0  0  0  0  0  0  0
   -1.5540    4.1174   -0.0857 C   0  0  0  0  0  0  0  0  0  0  0  0
   -2.9965    3.6036   -0.0473 C   0  0  0  0  0  0  0  0  0  0  0  0
   -3.2265    2.6706   -1.2402 C   0  0  0  0  0  0  0  0  0  0  0  0
   -2.2031    1.5330   -1.1930 C   0  0  0  0  0  0  0  0  0  0  0  0
   -0.8832    2.0807   -1.2003 O   0  0  0  0  0  0  0  0  0  0  0  0
   -2.3951    0.7684   -0.0011 O   0  0  0  0  0  0  0  0  0  0  0  0
   -1.8635   -0.4830    0.0220 C   0  0  0  0  0  0  0  0  0  0  0  0
   -2.6970   -1.5939    0.0987 C   0  0  0  0  0  0  0  0  0  0  0  0
   -2.1957   -2.8393    0.1233 O   0  0  0  0  0  0  0  0  0  0  0  0
   -0.8653   -3.0573    0.0741 C   0  0  0  0  0  0  0  0  0  0  0  0
   -0.3652   -4.3442    0.0998 C   0  0  0  0  0  0  0  0  0  0  0  0
    1.0169   -4.5565    0.0477 C   0  0  0  0  0  0  0  0  0  0  0  0
    1.4973   -5.8004    0.0722 O   0  0  0  0  0  0  0  0  0  0  0  0
    1.9021   -3.4676   -0.0309 C   0  0  0  0  0  0  0  0  0  0  0  0
    1.4228   -2.1912   -0.0571 C   0  0  0  0  0  0  0  0  0  0  0  0
    0.0287   -1.9627   -0.0051 C   0  0  0  0  0  0  0  0  0  0  0  0
   -0.4861   -0.6564   -0.0367 C   0  0  0  0  0  0  0  0  0  0  0  0
    2.2816   -1.1434   -0.1326 O   0  0  0  0  0  0  0  0  0  0  0  0
   -4.1543   -1.4009    0.1544 C   0  0  0  0  0  0  0  0  0  0  0  0
   -4.9945   -2.1615   -0.6668 C   0  0  0  0  0  0  0  0  0  0  0  0
   -6.3627   -1.9778   -0.6115 C   0  0  0  0  0  0  0  0  0  0  0  0
   -6.9062   -1.0370    0.2602 C   0  0  0  0  0  0  0  0  0  0  0  0
   -6.0730   -0.2782    1.0789 C   0  0  0  0  0  0  0  0  0  0  0  0
   -4.7042   -0.4602    1.0328 C   0  0  0  0  0  0  0  0  0  0  0  0
   -6.6079    0.6392    1.9285 O   0  0  0  0  0  0  0  0  0  0  0  0
   -8.2525   -0.8587    0.3116 O   0  0  0  0  0  0  0  0  0  0  0  0
   -7.1799   -2.7161   -1.4094 O   0  0  0  0  0  0  0  0  0  0  0  0
   -4.5469    2.1281   -1.1746 O   0  0  0  0  0  0  0  0  0  0  0  0
   -3.2166    2.8872    1.1693 O   0  0  0  0  0  0  0  0  0  0  0  0
   -1.3063    4.9315    1.0623 O   0  0  0  0  0  0  0  0  0  0  0  0
    9.9373    0.2673    0.0040 O   0  0  0  0  0  0  0  0  0  0  0  0
    9.0760   -2.3222    0.3540 O   0  0  0  0  0  0  0  0  0  0  0  0
    4.8323   -0.8036    0.2589 H   0  0  0  0  0  0  0  0  0  0  0  0
    6.4789   -2.6154    0.4549 H   0  0  0  0  0  0  0  0  0  0  0  0
    8.0239    2.0382   -0.1757 H   0  0  0  0  0  0  0  0  0  0  0  0
    5.6680    2.8427   -0.2227 H   0  0  0  0  0  0  0  0  0  0  0  0
    3.6802    0.5319    0.1200 H   0  0  0  0  0  0  0  0  0  0  0  0
    1.0379    4.1403    0.6199 H   0  0  0  0  0  0  0  0  0  0  0  0
    0.9956    3.9148   -1.1452 H   0  0  0  0  0  0  0  0  0  0  0  0
   -0.7205    2.3590    0.8407 H   0  0  0  0  0  0  0  0  0  0  0  0
   -1.4008    4.7057   -0.9904 H   0  0  0  0  0  0  0  0  0  0  0  0
   -3.6854    4.4463   -0.1055 H   0  0  0  0  0  0  0  0  0  0  0  0
   -3.1071    3.2297   -2.1682 H   0  0  0  0  0  0  0  0  0  0  0  0
   -2.3345    0.8895   -2.0629 H   0  0  0  0  0  0  0  0  0  0  0  0
   -1.0397   -5.1855    0.1604 H   0  0  0  0  0  0  0  0  0  0  0  0
    2.9671   -3.6426   -0.0703 H   0  0  0  0  0  0  0  0  0  0  0  0
    0.1747    0.1954   -0.1014 H   0  0  0  0  0  0  0  0  0  0  0  0
    3.2134   -1.4000   -0.1632 H   0  0  0  0  0  0  0  0  0  0  0  0
   -4.5738   -2.8908   -1.3432 H   0  0  0  0  0  0  0  0  0  0  0  0
   -4.0588    0.1282    1.6681 H   0  0  0  0  0  0  0  0  0  0  0  0
   -6.8200    0.2878    2.8040 H   0  0  0  0  0  0  0  0  0  0  0  0
   -8.6997   -1.4238    0.9563 H   0  0  0  0  0  0  0  0  0  0  0  0
   -7.4736   -3.5466   -1.0105 H   0  0  0  0  0  0  0  0  0  0  0  0
   -4.7616    1.5268   -1.9008 H   0  0  0  0  0  0  0  0  0  0  0  0
   -4.1116    2.5328    1.2607 H   0  0  0  0  0  0  0  0  0  0  0  0
   -1.8794    5.7078    1.1251 H   0  0  0  0  0  0  0  0  0  0  0  0
   10.3015    0.2339   -0.8912 H   0  0  0  0  0  0  0  0  0  0  0  0
    9.3171   -2.7254   -0.4913 H   0  0  0  0  0  0  0  0  0  0  0  0
  1  2  2  0  0  0  0
  2  3  1  0  0  0  0
  3  4  2  0  0  0  0
  4  5  1  0  0  0  0
  5  6  2  0  0  0  0
  1  6  1  0  0  0  0
  6  7  1  0  0  0  0
  7  8  2  0  0  0  0
  8  9  1  0  0  0  0
  9 10  2  0  0  0  0
 10 11  1  0  0  0  0
  9 12  1  0  0  0  0
 12 13  1  0  0  0  0
 13 14  1  0  0  0  0
 14 15  1  0  0  0  0
 15 16  1  0  0  0  0
 16 17  1  0  0  0  0
 17 18  1  0  0  0  0
 18 19  1  0  0  0  0
 14 19  1  0  0  0  0
 18 20  1  0  0  0  0
 20 21  1  0  0  0  0
 21 22  2  0  0  0  0
 22 23  1  0  0  0  0
 23 24  1  0  0  0  0
 24 25  2  0  0  0  0
 25 26  1  0  0  0  0
 26 27  2  0  0  0  0
 26 28  1  0  0  0  0
 28 29  2  0  0  0  0
 29 30  1  0  0  0  0
 24 30  1  0  0  0  0
 30 31  2  0  0  0  0
 21 31  1  0  0  0  0
 29 32  1  0  0  0  0
 22 33  1  0  0  0  0
 33 34  2  0  0  0  0
 34 35  1  0  0  0  0
 35 36  2  0  0  0  0
 36 37  1  0  0  0  0
 37 38  2  0  0  0  0
 33 38  1  0  0  0  0
 37 39  1  0  0  0  0
 36 40  1  0  0  0  0
 35 41  1  0  0  0  0
 17 42  1  0  0  0  0
 16 43  1  0  0  0  0
 15 44  1  0  0  0  0
  4 45  1  0  0  0  0
  3 46  1  0  0  0  0
  1 47  1  0  0  0  0
  2 48  1  0  0  0  0
  5 49  1  0  0  0  0
  7 50  1  0  0  0  0
  8 51  1  0  0  0  0
 13 52  1  0  0  0  0
 13 53  1  0  0  0  0
 14 54  1  0  0  0  0
 15 55  1  0  0  0  0
 16 56  1  0  0  0  0
 17 57  1  0  0  0  0
 18 58  1  0  0  0  0
 25 59  1  0  0  0  0
 28 60  1  0  0  0  0
 31 61  1  0  0  0  0
 32 62  1  0  0  0  0
 34 63  1  0  0  0  0
 38 64  1  0  0  0  0
 39 65  1  0  0  0  0
 40 66  1  0  0  0  0
 41 67  1  0  0  0  0
 42 68  1  0  0  0  0
 43 69  1  0  0  0  0
 44 70  1  0  0  0  0
 45 71  1  0  0  0  0
 46 72  1  0  0  0  0
M  CHG  1  10   1
M  END
$$$$
