C20H18N4O2
APtclcactv06291803033D 0   0.00000     0.00000
 
 44 47  0  0  0  0  0  0  0  0999 V2000
    1.8867    2.4816   -0.9088 C   0  0  0  0  0  0  0  0  0  0  0  0
    0.7924    2.6064   -1.7435 C   0  0  0  0  0  0  0  0  0  0  0  0
   -0.4365    2.0951   -1.3582 C   0  0  0  0  0  0  0  0  0  0  0  0
   -0.5646    1.4533   -0.1228 C   0  0  0  0  0  0  0  0  0  0  0  0
    0.5449    1.3330    0.7109 C   0  0  0  0  0  0  0  0  0  0  0  0
    1.7630    1.8468    0.3146 C   0  0  0  0  0  0  0  0  0  0  0  0
    2.9625    1.7161    1.2174 C   0  0  0  0  0  0  0  0  0  0  0  0
    3.6870    0.4316    0.9071 C   0  0  0  0  0  0  0  0  0  0  0  0
    3.1556   -0.7603    0.9061 N   0  0  0  0  0  0  0  0  0  0  0  0
    4.0944   -1.6630    0.5857 C   0  0  0  0  0  0  0  0  0  0  0  0
    5.2517   -1.0056    0.3805 C   0  0  0  0  0  0  0  0  0  0  0  0
    4.9924    0.3238    0.5786 N   0  0  0  0  0  0  0  0  0  0  0  0
   -1.8761    0.9033    0.2984 C   0  0  0  0  0  0  0  0  0  0  0  0
   -2.4225   -0.1900   -0.3714 C   0  0  0  0  0  0  0  0  0  0  0  0
   -3.6421   -0.6994    0.0230 C   0  0  0  0  0  0  0  0  0  0  0  0
   -4.3252   -0.1245    1.0858 C   0  0  0  0  0  0  0  0  0  0  0  0
   -3.7834    0.9648    1.7551 C   0  0  0  0  0  0  0  0  0  0  0  0
   -2.5621    1.4753    1.3689 C   0  0  0  0  0  0  0  0  0  0  0  0
   -5.5267   -0.6283    1.4717 O   0  0  0  0  0  0  0  0  0  0  0  0
   -1.6818   -0.8145   -1.5257 C   0  0  0  0  0  0  0  0  0  0  0  0
   -0.7477   -1.8772   -1.0071 C   0  0  0  0  0  0  0  0  0  0  0  0
    0.1688   -1.7047   -0.0942 N   0  0  0  0  0  0  0  0  0  0  0  0
    0.8076   -2.8651    0.1162 C   0  0  0  0  0  0  0  0  0  0  0  0
    0.2665   -3.7920   -0.6972 C   0  0  0  0  0  0  0  0  0  0  0  0
   -0.7241   -3.1673   -1.4058 N   0  0  0  0  0  0  0  0  0  0  0  0
   -1.5131    2.2176   -2.1777 O   0  0  0  0  0  0  0  0  0  0  0  0
    2.8439    2.8774   -1.2146 H   0  0  0  0  0  0  0  0  0  0  0  0
    0.8950    3.1032   -2.6970 H   0  0  0  0  0  0  0  0  0  0  0  0
    0.4519    0.8385    1.6665 H   0  0  0  0  0  0  0  0  0  0  0  0
    3.6332    2.5598    1.0550 H   0  0  0  0  0  0  0  0  0  0  0  0
    2.6355    1.7068    2.2571 H   0  0  0  0  0  0  0  0  0  0  0  0
    3.9481   -2.7301    0.5066 H   0  0  0  0  0  0  0  0  0  0  0  0
    6.2009   -1.4427    0.1078 H   0  0  0  0  0  0  0  0  0  0  0  0
    5.6290    1.0518    0.5034 H   0  0  0  0  0  0  0  0  0  0  0  0
   -4.0662   -1.5464   -0.4959 H   0  0  0  0  0  0  0  0  0  0  0  0
   -4.3173    1.4100    2.5816 H   0  0  0  0  0  0  0  0  0  0  0  0
   -2.1412    2.3226    1.8898 H   0  0  0  0  0  0  0  0  0  0  0  0
   -5.4651   -1.3218    2.1428 H   0  0  0  0  0  0  0  0  0  0  0  0
   -2.3963   -1.2640   -2.2153 H   0  0  0  0  0  0  0  0  0  0  0  0
   -1.1073   -0.0482   -2.0460 H   0  0  0  0  0  0  0  0  0  0  0  0
    1.6148   -3.0276    0.8151 H   0  0  0  0  0  0  0  0  0  0  0  0
    0.5556   -4.8298   -0.7728 H   0  0  0  0  0  0  0  0  0  0  0  0
   -1.2976   -3.5736   -2.0742 H   0  0  0  0  0  0  0  0  0  0  0  0
   -1.5782    1.5236   -2.8479 H   0  0  0  0  0  0  0  0  0  0  0  0
  1  2  2  0  0  0  0
  2  3  1  0  0  0  0
  3  4  2  0  0  0  0
  4  5  1  0  0  0  0
  5  6  2  0  0  0  0
  1  6  1  0  0  0  0
  6  7  1  0  0  0  0
  7  8  1  0  0  0  0
  8  9  2  0  0  0  0
  9 10  1  0  0  0  0
 10 11  2  0  0  0  0
 11 12  1  0  0  0  0
  8 12  1  0  0  0  0
  4 13  1  0  0  0  0
 13 14  2  0  0  0  0
 14 15  1  0  0  0  0
 15 16  2  0  0  0  0
 16 17  1  0  0  0  0
 17 18  2  0  0  0  0
 13 18  1  0  0  0  0
 16 19  1  0  0  0  0
 14 20  1  0  0  0  0
 20 21  1  0  0  0  0
 21 22  2  0  0  0  0
 22 23  1  0  0  0  0
 23 24  2  0  0  0  0
 24 25  1  0  0  0  0
 21 25  1  0  0  0  0
  3 26  1  0  0  0  0
  1 27  1  0  0  0  0
  2 28  1  0  0  0  0
  5 29  1  0  0  0  0
  7 30  1  0  0  0  0
  7 31  1  0  0  0  0
 10 32  1  0  0  0  0
 11 33  1  0  0  0  0
 12 34  1  0  0  0  0
 15 35  1  0  0  0  0
 17 36  1  0  0  0  0
 18 37  1  0  0  0  0
 19 38  1  0  0  0  0
 20 39  1  0  0  0  0
 20 40  1  0  0  0  0
 23 41  1  0  0  0  0
 24 42  1  0  0  0  0
 25 43  1  0  0  0  0
 26 44  1  0  0  0  0
M  END
$$$$
