C26H26O7
APtclcactv06281817263D 0   0.00000     0.00000
 
 59 62  0  0  0  0  0  0  0  0999 V2000
    5.6044   -2.7336    0.1524 C   0  0  0  0  0  0  0  0  0  0  0  0
    4.6235   -2.3421    1.2274 C   0  0  0  0  0  0  0  0  0  0  0  0
    3.5172   -1.7172    0.9085 C   0  0  0  0  0  0  0  0  0  0  0  0
    3.2893   -1.2653   -0.5110 C   0  0  0  0  0  0  0  0  0  0  0  0
    2.9598    0.2052   -0.5234 C   0  0  0  0  0  0  0  0  0  0  0  0
    3.9789    1.1427   -0.5861 C   0  0  0  0  0  0  0  0  0  0  0  0
    3.6907    2.5031   -0.5974 C   0  0  0  0  0  0  0  0  0  0  0  0
    2.3781    2.9351   -0.5473 C   0  0  0  0  0  0  0  0  0  0  0  0
    1.3441    1.9931   -0.4867 C   0  0  0  0  0  0  0  0  0  0  0  0
    1.6376    0.6189   -0.4777 C   0  0  0  0  0  0  0  0  0  0  0  0
    0.6338   -0.2813   -0.4134 O   0  0  0  0  0  0  0  0  0  0  0  0
   -0.6586    0.0803   -0.4254 C   0  0  0  0  0  0  0  0  0  0  0  0
   -1.0444    1.3913   -0.3994 C   0  0  0  0  0  0  0  0  0  0  0  0
   -0.0685    2.4090   -0.4357 C   0  0  0  0  0  0  0  0  0  0  0  0
   -0.3816    3.5887   -0.4166 O   0  0  0  0  0  0  0  0  0  0  0  0
   -2.5058    1.7425   -0.3153 C   0  0  0  0  0  0  0  0  0  0  0  0
   -3.2928    0.7665   -0.9972 O   0  0  0  0  0  0  0  0  0  0  0  0
   -3.0336   -0.5419   -0.7491 C   0  0  0  0  0  0  0  0  0  0  0  0
   -4.0465   -1.4826   -0.7800 C   0  0  0  0  0  0  0  0  0  0  0  0
   -3.7589   -2.8183   -0.5414 C   0  0  0  0  0  0  0  0  0  0  0  0
   -2.4514   -3.2218   -0.2707 C   0  0  0  0  0  0  0  0  0  0  0  0
   -1.4328   -2.2894   -0.2316 C   0  0  0  0  0  0  0  0  0  0  0  0
   -1.7189   -0.9449   -0.4637 C   0  0  0  0  0  0  0  0  0  0  0  0
   -2.1789   -4.5356   -0.0444 O   0  0  0  0  0  0  0  0  0  0  0  0
   -0.8421   -4.8642    0.3388 C   0  0  0  0  0  0  0  0  0  0  0  0
   -4.7570   -3.7392   -0.5712 O   0  0  0  0  0  0  0  0  0  0  0  0
   -2.9229    1.7965    1.1318 C   0  0  0  0  0  0  0  0  0  0  0  0
   -3.4836    2.8787    1.6120 C   0  0  0  0  0  0  0  0  0  0  0  0
   -3.5933    4.1138    0.7556 C   0  0  0  0  0  0  0  0  0  0  0  0
   -4.0189    2.8884    3.0207 C   0  0  0  0  0  0  0  0  0  0  0  0
    2.0943    4.2622   -0.5563 O   0  0  0  0  0  0  0  0  0  0  0  0
    5.2708    0.7288   -0.6365 O   0  0  0  0  0  0  0  0  0  0  0  0
    4.9152   -2.6694    2.6692 C   0  0  0  0  0  0  0  0  0  0  0  0
    6.2676   -1.8944   -0.0575 H   0  0  0  0  0  0  0  0  0  0  0  0
    6.1932   -3.5861    0.4909 H   0  0  0  0  0  0  0  0  0  0  0  0
    5.0619   -3.0035   -0.7537 H   0  0  0  0  0  0  0  0  0  0  0  0
    2.7684   -1.5258    1.6629 H   0  0  0  0  0  0  0  0  0  0  0  0
    4.1914   -1.4405   -1.0973 H   0  0  0  0  0  0  0  0  0  0  0  0
    2.4608   -1.8270   -0.9425 H   0  0  0  0  0  0  0  0  0  0  0  0
    4.4938    3.2237   -0.6451 H   0  0  0  0  0  0  0  0  0  0  0  0
   -2.6685    2.7192   -0.7710 H   0  0  0  0  0  0  0  0  0  0  0  0
   -5.0610   -1.1775   -0.9902 H   0  0  0  0  0  0  0  0  0  0  0  0
   -0.4199   -2.6005   -0.0227 H   0  0  0  0  0  0  0  0  0  0  0  0
   -0.1489   -4.5185   -0.4281 H   0  0  0  0  0  0  0  0  0  0  0  0
   -0.6064   -4.3802    1.2865 H   0  0  0  0  0  0  0  0  0  0  0  0
   -0.7512   -5.9447    0.4502 H   0  0  0  0  0  0  0  0  0  0  0  0
   -4.9058   -4.1299   -1.4431 H   0  0  0  0  0  0  0  0  0  0  0  0
   -2.7595    0.9429    1.7731 H   0  0  0  0  0  0  0  0  0  0  0  0
   -4.4900    4.0501    0.1391 H   0  0  0  0  0  0  0  0  0  0  0  0
   -3.6537    4.9948    1.3946 H   0  0  0  0  0  0  0  0  0  0  0  0
   -2.7157    4.1900    0.1137 H   0  0  0  0  0  0  0  0  0  0  0  0
   -3.8508    1.9144    3.4800 H   0  0  0  0  0  0  0  0  0  0  0  0
   -3.5054    3.6564    3.5991 H   0  0  0  0  0  0  0  0  0  0  0  0
   -5.0877    3.1016    3.0017 H   0  0  0  0  0  0  0  0  0  0  0  0
    1.9737    4.6326   -1.4414 H   0  0  0  0  0  0  0  0  0  0  0  0
    5.6055    0.5928   -1.5335 H   0  0  0  0  0  0  0  0  0  0  0  0
    5.4644   -1.8454    3.1249 H   0  0  0  0  0  0  0  0  0  0  0  0
    3.9778   -2.8211    3.2042 H   0  0  0  0  0  0  0  0  0  0  0  0
    5.5146   -3.5783    2.7213 H   0  0  0  0  0  0  0  0  0  0  0  0
  1  2  1  0  0  0  0
  2  3  2  0  0  0  0
  3  4  1  0  0  0  0
  4  5  1  0  0  0  0
  5  6  2  0  0  0  0
  6  7  1  0  0  0  0
  7  8  2  0  0  0  0
  8  9  1  0  0  0  0
  9 10  2  0  0  0  0
  5 10  1  0  0  0  0
 10 11  1  0  0  0  0
 11 12  1  0  0  0  0
 12 13  2  0  0  0  0
 13 14  1  0  0  0  0
  9 14  1  0  0  0  0
 14 15  2  0  0  0  0
 13 16  1  0  0  0  0
 16 17  1  0  0  0  0
 17 18  1  0  0  0  0
 18 19  2  0  0  0  0
 19 20  1  0  0  0  0
 20 21  2  0  0  0  0
 21 22  1  0  0  0  0
 22 23  2  0  0  0  0
 18 23  1  0  0  0  0
 12 23  1  0  0  0  0
 21 24  1  0  0  0  0
 24 25  1  0  0  0  0
 20 26  1  0  0  0  0
 16 27  1  0  0  0  0
 27 28  2  0  0  0  0
 28 29  1  0  0  0  0
 28 30  1  0  0  0  0
  8 31  1  0  0  0  0
  6 32  1  0  0  0  0
  2 33  1  0  0  0  0
  1 34  1  0  0  0  0
  1 35  1  0  0  0  0
  1 36  1  0  0  0  0
  3 37  1  0  0  0  0
  4 38  1  0  0  0  0
  4 39  1  0  0  0  0
  7 40  1  0  0  0  0
 16 41  1  0  0  0  0
 19 42  1  0  0  0  0
 22 43  1  0  0  0  0
 25 44  1  0  0  0  0
 25 45  1  0  0  0  0
 25 46  1  0  0  0  0
 26 47  1  0  0  0  0
 27 48  1  0  0  0  0
 29 49  1  0  0  0  0
 29 50  1  0  0  0  0
 29 51  1  0  0  0  0
 30 52  1  0  0  0  0
 30 53  1  0  0  0  0
 30 54  1  0  0  0  0
 31 55  1  0  0  0  0
 32 56  1  0  0  0  0
 33 57  1  0  0  0  0
 33 58  1  0  0  0  0
 33 59  1  0  0  0  0
M  END
$$$$
