C36H36O17
APtclcactv06291803033D 0   0.00000     0.00000
 
 89 94  0  0  0  0  0  0  0  0999 V2000
    7.3150   -2.4849   -0.7297 C   0  0  0  0  0  0  0  0  0  0  0  0
    7.8866   -3.7295   -0.5916 C   0  0  0  0  0  0  0  0  0  0  0  0
    9.2225   -3.9244   -0.9239 C   0  0  0  0  0  0  0  0  0  0  0  0
    9.9879   -2.8646   -1.3972 C   0  0  0  0  0  0  0  0  0  0  0  0
    9.4260   -1.6161   -1.5390 C   0  0  0  0  0  0  0  0  0  0  0  0
    8.0812   -1.4145   -1.2063 C   0  0  0  0  0  0  0  0  0  0  0  0
    7.4760   -0.0837   -1.3562 C   0  0  0  0  0  0  0  0  0  0  0  0
    6.1781    0.1082   -1.0344 C   0  0  0  0  0  0  0  0  0  0  0  0
    5.5943    1.3921   -1.1790 C   0  0  0  0  0  0  0  0  0  0  0  0
    6.2621    2.3208   -1.5929 O   0  0  0  0  0  0  0  0  0  0  0  0
    4.2979    1.5838   -0.8576 O   0  0  0  0  0  0  0  0  0  0  0  0
    3.7754    2.9028   -1.0282 C   0  0  0  0  0  0  0  0  0  0  0  0
    2.3022    2.9252   -0.6157 C   0  0  0  0  0  0  0  0  0  0  0  0
    1.7760    4.3614   -0.6792 C   0  0  0  0  0  0  0  0  0  0  0  0
    0.2861    4.3672   -0.3234 C   0  0  0  0  0  0  0  0  0  0  0  0
   -0.4597    3.4319   -1.2801 C   0  0  0  0  0  0  0  0  0  0  0  0
    0.1529    2.0316   -1.1934 C   0  0  0  0  0  0  0  0  0  0  0  0
    1.5456    2.1022   -1.5058 O   0  0  0  0  0  0  0  0  0  0  0  0
   -0.0132    1.5199    0.1305 O   0  0  0  0  0  0  0  0  0  0  0  0
    0.4249    0.1692    0.2909 C   0  0  0  0  0  0  0  0  0  0  0  0
    1.9023    0.1549    0.6954 C   0  0  0  0  0  0  0  0  0  0  0  0
    2.0551    0.8463    2.0537 C   0  0  0  0  0  0  0  0  0  0  0  0
    1.1649    0.1404    3.0798 C   0  0  0  0  0  0  0  0  0  0  0  0
   -0.1906    0.1626    2.6278 O   0  0  0  0  0  0  0  0  0  0  0  0
   -0.4023   -0.5104    1.3851 C   0  0  0  0  0  0  0  0  0  0  0  0
   -1.8637   -0.4479    1.0223 C   0  0  0  0  0  0  0  0  0  0  0  0
   -2.5594    0.7490    1.1504 C   0  0  0  0  0  0  0  0  0  0  0  0
   -3.9043    0.8234    0.8213 C   0  0  0  0  0  0  0  0  0  0  0  0
   -4.5687   -0.3018    0.3594 C   0  0  0  0  0  0  0  0  0  0  0  0
   -3.8675   -1.5131    0.2285 C   0  0  0  0  0  0  0  0  0  0  0  0
   -2.5081   -1.5797    0.5573 C   0  0  0  0  0  0  0  0  0  0  0  0
   -1.8306   -2.7489    0.4311 O   0  0  0  0  0  0  0  0  0  0  0  0
   -4.5940   -2.6957   -0.2640 C   0  0  0  0  0  0  0  0  0  0  0  0
   -4.0358   -3.7729   -0.3969 O   0  0  0  0  0  0  0  0  0  0  0  0
   -5.9645   -2.5345   -0.5768 C   0  0  0  0  0  0  0  0  0  0  0  0
   -6.5508   -1.3178   -0.4148 C   0  0  0  0  0  0  0  0  0  0  0  0
   -5.8781   -0.2468    0.0354 O   0  0  0  0  0  0  0  0  0  0  0  0
   -7.9805   -1.1696   -0.7462 C   0  0  0  0  0  0  0  0  0  0  0  0
   -8.6114    0.0679   -0.5905 C   0  0  0  0  0  0  0  0  0  0  0  0
   -9.9463    0.2020   -0.9015 C   0  0  0  0  0  0  0  0  0  0  0  0
  -10.6660   -0.8909   -1.3696 C   0  0  0  0  0  0  0  0  0  0  0  0
  -10.0428   -2.1232   -1.5255 C   0  0  0  0  0  0  0  0  0  0  0  0
   -8.7068   -2.2648   -1.2223 C   0  0  0  0  0  0  0  0  0  0  0  0
  -11.9817   -0.7544   -1.6750 O   0  0  0  0  0  0  0  0  0  0  0  0
   -1.9159    1.8555    1.6025 O   0  0  0  0  0  0  0  0  0  0  0  0
    1.6248   -1.3097    3.2426 C   0  0  0  0  0  0  0  0  0  0  0  0
    0.8961   -1.9239    4.3074 O   0  0  0  0  0  0  0  0  0  0  0  0
    3.4187    0.7749    2.4751 O   0  0  0  0  0  0  0  0  0  0  0  0
    2.3582   -1.1959    0.7925 O   0  0  0  0  0  0  0  0  0  0  0  0
   -1.8392    3.3733   -0.9120 O   0  0  0  0  0  0  0  0  0  0  0  0
    0.1138    3.9128    1.0204 O   0  0  0  0  0  0  0  0  0  0  0  0
    2.4926    5.1742    0.2523 O   0  0  0  0  0  0  0  0  0  0  0  0
    9.7814   -5.1535   -0.7854 O   0  0  0  0  0  0  0  0  0  0  0  0
    6.2762   -2.3355   -0.4752 H   0  0  0  0  0  0  0  0  0  0  0  0
    7.2964   -4.5559   -0.2241 H   0  0  0  0  0  0  0  0  0  0  0  0
   11.0253   -3.0212   -1.6536 H   0  0  0  0  0  0  0  0  0  0  0  0
   10.0216   -0.7934   -1.9064 H   0  0  0  0  0  0  0  0  0  0  0  0
    8.0689    0.7408   -1.7236 H   0  0  0  0  0  0  0  0  0  0  0  0
    5.5852   -0.7164   -0.6669 H   0  0  0  0  0  0  0  0  0  0  0  0
    4.3375    3.5995   -0.4062 H   0  0  0  0  0  0  0  0  0  0  0  0
    3.8643    3.1964   -2.0741 H   0  0  0  0  0  0  0  0  0  0  0  0
    2.2039    2.5467    0.4017 H   0  0  0  0  0  0  0  0  0  0  0  0
    1.9114    4.7547   -1.6868 H   0  0  0  0  0  0  0  0  0  0  0  0
   -0.1082    5.3787   -0.4211 H   0  0  0  0  0  0  0  0  0  0  0  0
   -0.3695    3.8064   -2.2998 H   0  0  0  0  0  0  0  0  0  0  0  0
   -0.3459    1.3719   -1.9034 H   0  0  0  0  0  0  0  0  0  0  0  0
    0.2994   -0.3684   -0.6490 H   0  0  0  0  0  0  0  0  0  0  0  0
    2.4903    0.6866   -0.0527 H   0  0  0  0  0  0  0  0  0  0  0  0
    1.7539    1.8902    1.9670 H   0  0  0  0  0  0  0  0  0  0  0  0
    1.2369    0.6545    4.0383 H   0  0  0  0  0  0  0  0  0  0  0  0
   -0.0952   -1.5520    1.4789 H   0  0  0  0  0  0  0  0  0  0  0  0
   -4.4345    1.7585    0.9252 H   0  0  0  0  0  0  0  0  0  0  0  0
   -1.4229   -2.8755   -0.4365 H   0  0  0  0  0  0  0  0  0  0  0  0
   -6.5411   -3.3716   -0.9419 H   0  0  0  0  0  0  0  0  0  0  0  0
   -8.0530    0.9176   -0.2264 H   0  0  0  0  0  0  0  0  0  0  0  0
  -10.4347    1.1577   -0.7811 H   0  0  0  0  0  0  0  0  0  0  0  0
  -10.6059   -2.9701   -1.8889 H   0  0  0  0  0  0  0  0  0  0  0  0
   -8.2231   -3.2227   -1.3441 H   0  0  0  0  0  0  0  0  0  0  0  0
  -12.1481   -0.5009   -2.5933 H   0  0  0  0  0  0  0  0  0  0  0  0
   -1.5143    2.3900    0.9038 H   0  0  0  0  0  0  0  0  0  0  0  0
    1.4430   -1.8547    2.3163 H   0  0  0  0  0  0  0  0  0  0  0  0
    2.6900   -1.3294    3.4726 H   0  0  0  0  0  0  0  0  0  0  0  0
    1.1365   -2.8467    4.4675 H   0  0  0  0  0  0  0  0  0  0  0  0
    3.5886    1.1939    3.3299 H   0  0  0  0  0  0  0  0  0  0  0  0
    3.2877   -1.2801    1.0455 H   0  0  0  0  0  0  0  0  0  0  0  0
   -2.3729    2.7977   -1.4768 H   0  0  0  0  0  0  0  0  0  0  0  0
   -0.8076    3.8910    1.3132 H   0  0  0  0  0  0  0  0  0  0  0  0
    2.2106    6.0991    0.2656 H   0  0  0  0  0  0  0  0  0  0  0  0
    9.7083   -5.7098   -1.5730 H   0  0  0  0  0  0  0  0  0  0  0  0
  1  2  2  0  0  0  0
  2  3  1  0  0  0  0
  3  4  2  0  0  0  0
  4  5  1  0  0  0  0
  5  6  2  0  0  0  0
  1  6  1  0  0  0  0
  6  7  1  0  0  0  0
  7  8  2  0  0  0  0
  8  9  1  0  0  0  0
  9 10  2  0  0  0  0
  9 11  1  0  0  0  0
 11 12  1  0  0  0  0
 12 13  1  0  0  0  0
 13 14  1  0  0  0  0
 14 15  1  0  0  0  0
 15 16  1  0  0  0  0
 16 17  1  0  0  0  0
 17 18  1  0  0  0  0
 13 18  1  0  0  0  0
 17 19  1  0  0  0  0
 19 20  1  0  0  0  0
 20 21  1  0  0  0  0
 21 22  1  0  0  0  0
 22 23  1  0  0  0  0
 23 24  1  0  0  0  0
 24 25  1  0  0  0  0
 20 25  1  0  0  0  0
 25 26  1  0  0  0  0
 26 27  2  0  0  0  0
 27 28  1  0  0  0  0
 28 29  2  0  0  0  0
 29 30  1  0  0  0  0
 30 31  2  0  0  0  0
 26 31  1  0  0  0  0
 31 32  1  0  0  0  0
 30 33  1  0  0  0  0
 33 34  2  0  0  0  0
 33 35  1  0  0  0  0
 35 36  2  0  0  0  0
 36 37  1  0  0  0  0
 29 37  1  0  0  0  0
 36 38  1  0  0  0  0
 38 39  2  0  0  0  0
 39 40  1  0  0  0  0
 40 41  2  0  0  0  0
 41 42  1  0  0  0  0
 42 43  2  0  0  0  0
 38 43  1  0  0  0  0
 41 44  1  0  0  0  0
 27 45  1  0  0  0  0
 23 46  1  0  0  0  0
 46 47  1  0  0  0  0
 22 48  1  0  0  0  0
 21 49  1  0  0  0  0
 16 50  1  0  0  0  0
 15 51  1  0  0  0  0
 14 52  1  0  0  0  0
  3 53  1  0  0  0  0
  1 54  1  0  0  0  0
  2 55  1  0  0  0  0
  4 56  1  0  0  0  0
  5 57  1  0  0  0  0
  7 58  1  0  0  0  0
  8 59  1  0  0  0  0
 12 60  1  0  0  0  0
 12 61  1  0  0  0  0
 13 62  1  0  0  0  0
 14 63  1  0  0  0  0
 15 64  1  0  0  0  0
 16 65  1  0  0  0  0
 17 66  1  0  0  0  0
 20 67  1  0  0  0  0
 21 68  1  0  0  0  0
 22 69  1  0  0  0  0
 23 70  1  0  0  0  0
 25 71  1  0  0  0  0
 28 72  1  0  0  0  0
 32 73  1  0  0  0  0
 35 74  1  0  0  0  0
 39 75  1  0  0  0  0
 40 76  1  0  0  0  0
 42 77  1  0  0  0  0
 43 78  1  0  0  0  0
 44 79  1  0  0  0  0
 45 80  1  0  0  0  0
 46 81  1  0  0  0  0
 46 82  1  0  0  0  0
 47 83  1  0  0  0  0
 48 84  1  0  0  0  0
 49 85  1  0  0  0  0
 50 86  1  0  0  0  0
 51 87  1  0  0  0  0
 52 88  1  0  0  0  0
 53 89  1  0  0  0  0
M  END
$$$$
