C25H25O14
APtclcactv06291803033D 0   0.00000     0.00000
 
 64 67  0  0  0  0  0  0  0  0999 V2000
   -3.1516    0.1791   -1.2705 C   0  0  0  0  0  0  0  0  0  0  0  0
   -4.3177   -0.0019   -1.9835 C   0  0  0  0  0  0  0  0  0  0  0  0
   -5.2550    1.0187   -2.0571 C   0  0  0  0  0  0  0  0  0  0  0  0
   -5.0211    2.2309   -1.4109 C   0  0  0  0  0  0  0  0  0  0  0  0
   -3.8539    2.4181   -0.6946 C   0  0  0  0  0  0  0  0  0  0  0  0
   -2.9115    1.3909   -0.6206 C   0  0  0  0  0  0  0  0  0  0  0  0
   -1.6611    1.5861    0.1450 C   0  0  0  0  0  0  0  0  0  0  0  0
   -1.1690    0.5175    0.9161 C   0  0  0  0  0  0  0  0  0  0  0  0
   -0.0026    0.7165    1.6227 C   0  0  0  0  0  0  0  0  0  0  0  0
    0.5776    1.9953    1.4901 C   0  0  0  0  0  0  0  0  0  0  0  0
    1.7696    2.3350    2.1557 C   0  0  0  0  0  0  0  0  0  0  0  0
    2.2979    3.5861    1.9989 C   0  0  0  0  0  0  0  0  0  0  0  0
    1.6641    4.5271    1.1852 C   0  0  0  0  0  0  0  0  0  0  0  0
    0.4956    4.2203    0.5226 C   0  0  0  0  0  0  0  0  0  0  0  0
   -0.0724    2.9446    0.6614 C   0  0  0  0  0  0  0  0  0  0  0  0
   -1.1017    2.6563    0.0782 O   0  3  0  0  0  0  0  0  0  0  0  0
    2.2072    5.7639    1.0449 O   0  0  0  0  0  0  0  0  0  0  0  0
    2.3914    1.4259    2.9493 O   0  0  0  0  0  0  0  0  0  0  0  0
   -1.8231   -0.6731    0.9631 O   0  0  0  0  0  0  0  0  0  0  0  0
   -1.2462   -1.6988    1.7738 C   0  0  0  0  0  0  0  0  0  0  0  0
   -2.1790   -2.9123    1.8022 C   0  0  0  0  0  0  0  0  0  0  0  0
   -2.3240   -3.4685    0.3824 C   0  0  0  0  0  0  0  0  0  0  0  0
   -0.9351   -3.8156   -0.1625 C   0  0  0  0  0  0  0  0  0  0  0  0
   -0.0503   -2.5672   -0.1151 C   0  0  0  0  0  0  0  0  0  0  0  0
    0.0172   -2.0835    1.2279 O   0  0  0  0  0  0  0  0  0  0  0  0
    1.3566   -2.9202   -0.6017 C   0  0  0  0  0  0  0  0  0  0  0  0
    2.1622   -1.7140   -0.6692 O   0  0  0  0  0  0  0  0  0  0  0  0
    3.4322   -1.8518   -1.0813 C   0  0  0  0  0  0  0  0  0  0  0  0
    3.8567   -2.9440   -1.3758 O   0  0  0  0  0  0  0  0  0  0  0  0
    4.3287   -0.6441   -1.1765 C   0  0  0  0  0  0  0  0  0  0  0  0
    5.7126   -1.0737   -1.6675 C   0  0  0  0  0  0  0  0  0  0  0  0
    6.6090    0.1339   -1.7628 C   0  0  0  0  0  0  0  0  0  0  0  0
    6.1846    1.2261   -1.4682 O   0  0  0  0  0  0  0  0  0  0  0  0
    7.8791   -0.0038   -2.1749 O   0  0  0  0  0  0  0  0  0  0  0  0
   -0.3516   -4.8452    0.6384 O   0  0  0  0  0  0  0  0  0  0  0  0
   -3.1343   -4.6453    0.4104 O   0  0  0  0  0  0  0  0  0  0  0  0
   -1.6284   -3.9180    2.6552 O   0  0  0  0  0  0  0  0  0  0  0  0
   -5.9410    3.2298   -1.4853 O   0  0  0  0  0  0  0  0  0  0  0  0
   -6.4028    0.8359   -2.7609 O   0  0  0  0  0  0  0  0  0  0  0  0
   -2.4257   -0.6185   -1.2111 H   0  0  0  0  0  0  0  0  0  0  0  0
   -4.5019   -0.9399   -2.4862 H   0  0  0  0  0  0  0  0  0  0  0  0
   -3.6711    3.3572   -0.1936 H   0  0  0  0  0  0  0  0  0  0  0  0
    0.4375   -0.0550    2.2371 H   0  0  0  0  0  0  0  0  0  0  0  0
    3.2129    3.8488    2.5090 H   0  0  0  0  0  0  0  0  0  0  0  0
    0.0178    4.9601   -0.1024 H   0  0  0  0  0  0  0  0  0  0  0  0
    2.8326    5.8379    0.3111 H   0  0  0  0  0  0  0  0  0  0  0  0
    3.0396    0.8777    2.4863 H   0  0  0  0  0  0  0  0  0  0  0  0
   -1.1054   -1.3246    2.7878 H   0  0  0  0  0  0  0  0  0  0  0  0
   -3.1572   -2.6111    2.1771 H   0  0  0  0  0  0  0  0  0  0  0  0
   -2.7897   -2.7187   -0.2571 H   0  0  0  0  0  0  0  0  0  0  0  0
   -1.0238   -4.1604   -1.1927 H   0  0  0  0  0  0  0  0  0  0  0  0
   -0.4748   -1.7962   -0.7582 H   0  0  0  0  0  0  0  0  0  0  0  0
    1.8149   -3.6248    0.0923 H   0  0  0  0  0  0  0  0  0  0  0  0
    1.2959   -3.3724   -1.5916 H   0  0  0  0  0  0  0  0  0  0  0  0
    3.9004    0.0718   -1.8780 H   0  0  0  0  0  0  0  0  0  0  0  0
    4.4194   -0.1806   -0.1942 H   0  0  0  0  0  0  0  0  0  0  0  0
    6.1409   -1.7897   -0.9660 H   0  0  0  0  0  0  0  0  0  0  0  0
    5.6219   -1.5373   -2.6498 H   0  0  0  0  0  0  0  0  0  0  0  0
    8.4156    0.7994   -2.2198 H   0  0  0  0  0  0  0  0  0  0  0  0
   -0.8630   -5.6656    0.6581 H   0  0  0  0  0  0  0  0  0  0  0  0
   -4.0273   -4.4999    0.7518 H   0  0  0  0  0  0  0  0  0  0  0  0
   -1.5043   -3.6325    3.5707 H   0  0  0  0  0  0  0  0  0  0  0  0
   -6.6030    3.2081   -0.7809 H   0  0  0  0  0  0  0  0  0  0  0  0
   -7.1307    0.4719   -2.2386 H   0  0  0  0  0  0  0  0  0  0  0  0
  1  2  2  0  0  0  0
  2  3  1  0  0  0  0
  3  4  2  0  0  0  0
  4  5  1  0  0  0  0
  5  6  2  0  0  0  0
  1  6  1  0  0  0  0
  6  7  1  0  0  0  0
  7  8  2  0  0  0  0
  8  9  1  0  0  0  0
  9 10  2  0  0  0  0
 10 11  1  0  0  0  0
 11 12  2  0  0  0  0
 12 13  1  0  0  0  0
 13 14  2  0  0  0  0
 14 15  1  0  0  0  0
 10 15  1  0  0  0  0
 15 16  2  0  0  0  0
  7 16  1  0  0  0  0
 13 17  1  0  0  0  0
 11 18  1  0  0  0  0
  8 19  1  0  0  0  0
 19 20  1  0  0  0  0
 20 21  1  0  0  0  0
 21 22  1  0  0  0  0
 22 23  1  0  0  0  0
 23 24  1  0  0  0  0
 24 25  1  0  0  0  0
 20 25  1  0  0  0  0
 24 26  1  0  0  0  0
 26 27  1  0  0  0  0
 27 28  1  0  0  0  0
 28 29  2  0  0  0  0
 28 30  1  0  0  0  0
 30 31  1  0  0  0  0
 31 32  1  0  0  0  0
 32 33  2  0  0  0  0
 32 34  1  0  0  0  0
 23 35  1  0  0  0  0
 22 36  1  0  0  0  0
 21 37  1  0  0  0  0
  4 38  1  0  0  0  0
  3 39  1  0  0  0  0
  1 40  1  0  0  0  0
  2 41  1  0  0  0  0
  5 42  1  0  0  0  0
  9 43  1  0  0  0  0
 12 44  1  0  0  0  0
 14 45  1  0  0  0  0
 17 46  1  0  0  0  0
 18 47  1  0  0  0  0
 20 48  1  0  0  0  0
 21 49  1  0  0  0  0
 22 50  1  0  0  0  0
 23 51  1  0  0  0  0
 24 52  1  0  0  0  0
 26 53  1  0  0  0  0
 26 54  1  0  0  0  0
 30 55  1  0  0  0  0
 30 56  1  0  0  0  0
 31 57  1  0  0  0  0
 31 58  1  0  0  0  0
 34 59  1  0  0  0  0
 35 60  1  0  0  0  0
 36 61  1  0  0  0  0
 37 62  1  0  0  0  0
 38 63  1  0  0  0  0
 39 64  1  0  0  0  0
M  CHG  1  16   1
M  END
$$$$
