C15H12O5
APtclcactv06281817263D 0   0.00000     0.00000
 
 32 33  0  0  0  0  0  0  0  0999 V2000
    3.7544   -1.8192   -0.0162 C   0  0  0  0  0  0  0  0  0  0  0  0
    2.5604   -1.1573   -0.0104 C   0  0  0  0  0  0  0  0  0  0  0  0
    2.5346    0.2434   -0.0109 C   0  0  0  0  0  0  0  0  0  0  0  0
    3.7432    0.9619   -0.0171 C   0  0  0  0  0  0  0  0  0  0  0  0
    4.9458    0.2771   -0.0225 C   0  0  0  0  0  0  0  0  0  0  0  0
    4.9525   -1.1106   -0.0224 C   0  0  0  0  0  0  0  0  0  0  0  0
    6.1331   -1.7802   -0.0273 O   0  0  0  0  0  0  0  0  0  0  0  0
    3.7306    2.3186   -0.0181 O   0  0  0  0  0  0  0  0  0  0  0  0
    1.2533    0.9568   -0.0056 C   0  0  0  0  0  0  0  0  0  0  0  0
    0.0919    0.2619   -0.0001 C   0  0  0  0  0  0  0  0  0  0  0  0
   -1.1464    0.9514    0.0050 C   0  0  0  0  0  0  0  0  0  0  0  0
   -1.1654    2.1696    0.0045 O   0  0  0  0  0  0  0  0  0  0  0  0
   -2.4118    0.1943    0.0110 C   0  0  0  0  0  0  0  0  0  0  0  0
   -3.6393    0.8740    0.0161 C   0  0  0  0  0  0  0  0  0  0  0  0
   -4.8225    0.1556    0.0217 C   0  0  0  0  0  0  0  0  0  0  0  0
   -4.7927   -1.2312    0.0227 C   0  0  0  0  0  0  0  0  0  0  0  0
   -3.5757   -1.9068    0.0181 C   0  0  0  0  0  0  0  0  0  0  0  0
   -2.3933   -1.2040    0.0058 C   0  0  0  0  0  0  0  0  0  0  0  0
   -5.9548   -1.9322    0.0287 O   0  0  0  0  0  0  0  0  0  0  0  0
   -3.6664    2.2304    0.0160 O   0  0  0  0  0  0  0  0  0  0  0  0
    3.7695   -2.8991   -0.0116 H   0  0  0  0  0  0  0  0  0  0  0  0
    1.6349   -1.7140   -0.0057 H   0  0  0  0  0  0  0  0  0  0  0  0
    5.8782    0.8221   -0.0276 H   0  0  0  0  0  0  0  0  0  0  0  0
    6.4789   -1.9741    0.8547 H   0  0  0  0  0  0  0  0  0  0  0  0
    3.7309    2.7127    0.8650 H   0  0  0  0  0  0  0  0  0  0  0  0
    1.2365    2.0367   -0.0060 H   0  0  0  0  0  0  0  0  0  0  0  0
    0.1087   -0.8179    0.0003 H   0  0  0  0  0  0  0  0  0  0  0  0
   -5.7693    0.6751    0.0256 H   0  0  0  0  0  0  0  0  0  0  0  0
   -3.5598   -2.9867    0.0197 H   0  0  0  0  0  0  0  0  0  0  0  0
   -1.4510   -1.7319    0.0022 H   0  0  0  0  0  0  0  0  0  0  0  0
   -6.2957   -2.1360   -0.8530 H   0  0  0  0  0  0  0  0  0  0  0  0
   -3.6780    2.6235   -0.8675 H   0  0  0  0  0  0  0  0  0  0  0  0
  1  2  2  0  0  0  0
  2  3  1  0  0  0  0
  3  4  2  0  0  0  0
  4  5  1  0  0  0  0
  5  6  2  0  0  0  0
  1  6  1  0  0  0  0
  6  7  1  0  0  0  0
  4  8  1  0  0  0  0
  3  9  1  0  0  0  0
  9 10  2  0  0  0  0
 10 11  1  0  0  0  0
 11 12  2  0  0  0  0
 11 13  1  0  0  0  0
 13 14  2  0  0  0  0
 14 15  1  0  0  0  0
 15 16  2  0  0  0  0
 16 17  1  0  0  0  0
 17 18  2  0  0  0  0
 13 18  1  0  0  0  0
 16 19  1  0  0  0  0
 14 20  1  0  0  0  0
  1 21  1  0  0  0  0
  2 22  1  0  0  0  0
  5 23  1  0  0  0  0
  7 24  1  0  0  0  0
  8 25  1  0  0  0  0
  9 26  1  0  0  0  0
 10 27  1  0  0  0  0
 15 28  1  0  0  0  0
 17 29  1  0  0  0  0
 18 30  1  0  0  0  0
 19 31  1  0  0  0  0
 20 32  1  0  0  0  0
M  END
$$$$
