C14H16NO2
APtclcactv06281817263D 0   0.00000     0.00000
 
 33 35  0  0  0  0  0  0  0  0999 V2000
   -4.0066    2.0094   -0.0667 C   0  0  0  0  0  0  0  0  0  0  0  0
   -3.5780    0.6464   -0.0408 O   0  0  0  0  0  0  0  0  0  0  0  0
   -2.2381    0.4215   -0.0149 C   0  0  0  0  0  0  0  0  0  0  0  0
   -1.7574   -0.8965    0.0112 C   0  0  0  0  0  0  0  0  0  0  0  0
   -0.4175   -1.1546    0.0361 C   0  0  0  0  0  0  0  0  0  0  0  0
    0.4930   -0.0852    0.0358 C   0  0  0  0  0  0  0  0  0  0  0  0
    1.8841   -0.3023    0.0593 C   0  0  0  0  0  0  0  0  0  0  0  0
    2.7109    0.7176    0.0627 N   0  3  0  0  0  0  0  0  0  0  0  0
    4.1164    0.2647    0.0944 C   0  0  0  0  0  0  0  0  0  0  0  0
    4.0830   -1.2181   -0.3307 C   0  0  0  0  0  0  0  0  0  0  0  0
    2.6468   -1.6133    0.0796 C   0  0  0  0  0  0  0  0  0  0  0  0
    2.2662    1.9782    0.0401 C   0  0  0  0  0  0  0  0  0  0  0  0
    0.9459    2.2915    0.0144 C   0  0  0  0  0  0  0  0  0  0  0  0
    0.0050    1.2460    0.0108 C   0  0  0  0  0  0  0  0  0  0  0  0
   -1.3760    1.4814   -0.0204 C   0  0  0  0  0  0  0  0  0  0  0  0
   -2.6390   -1.9312    0.0122 O   0  0  0  0  0  0  0  0  0  0  0  0
   -2.0908   -3.2506    0.0395 C   0  0  0  0  0  0  0  0  0  0  0  0
   -3.6103    2.4980   -0.9568 H   0  0  0  0  0  0  0  0  0  0  0  0
   -5.0957    2.0474   -0.0857 H   0  0  0  0  0  0  0  0  0  0  0  0
   -3.6406    2.5223    0.8227 H   0  0  0  0  0  0  0  0  0  0  0  0
   -0.0600   -2.1735    0.0563 H   0  0  0  0  0  0  0  0  0  0  0  0
    4.7152    0.8447   -0.6079 H   0  0  0  0  0  0  0  0  0  0  0  0
    4.5201    0.3588    1.1025 H   0  0  0  0  0  0  0  0  0  0  0  0
    4.2261   -1.3212   -1.4063 H   0  0  0  0  0  0  0  0  0  0  0  0
    4.8223   -1.8005    0.2192 H   0  0  0  0  0  0  0  0  0  0  0  0
    2.6404   -2.0436    1.0811 H   0  0  0  0  0  0  0  0  0  0  0  0
    2.2228   -2.3131   -0.6405 H   0  0  0  0  0  0  0  0  0  0  0  0
    2.9883    2.7813    0.0427 H   0  0  0  0  0  0  0  0  0  0  0  0
    0.6244    3.3224   -0.0036 H   0  0  0  0  0  0  0  0  0  0  0  0
   -1.7557    2.4921   -0.0443 H   0  0  0  0  0  0  0  0  0  0  0  0
   -2.9003   -3.9805    0.0372 H   0  0  0  0  0  0  0  0  0  0  0  0
   -1.4631   -3.4015   -0.8388 H   0  0  0  0  0  0  0  0  0  0  0  0
   -1.4908   -3.3762    0.9407 H   0  0  0  0  0  0  0  0  0  0  0  0
  1  2  1  0  0  0  0
  2  3  1  0  0  0  0
  3  4  2  0  0  0  0
  4  5  1  0  0  0  0
  5  6  2  0  0  0  0
  6  7  1  0  0  0  0
  7  8  2  0  0  0  0
  8  9  1  0  0  0  0
  9 10  1  0  0  0  0
 10 11  1  0  0  0  0
  7 11  1  0  0  0  0
  8 12  1  0  0  0  0
 12 13  2  0  0  0  0
 13 14  1  0  0  0  0
  6 14  1  0  0  0  0
 14 15  2  0  0  0  0
  3 15  1  0  0  0  0
  4 16  1  0  0  0  0
 16 17  1  0  0  0  0
  1 18  1  0  0  0  0
  1 19  1  0  0  0  0
  1 20  1  0  0  0  0
  5 21  1  0  0  0  0
  9 22  1  0  0  0  0
  9 23  1  0  0  0  0
 10 24  1  0  0  0  0
 10 25  1  0  0  0  0
 11 26  1  0  0  0  0
 11 27  1  0  0  0  0
 12 28  1  0  0  0  0
 13 29  1  0  0  0  0
 15 30  1  0  0  0  0
 17 31  1  0  0  0  0
 17 32  1  0  0  0  0
 17 33  1  0  0  0  0
M  CHG  1   8   1
M  END
$$$$
