C10H18O
APtclcactv06211804453D 0   0.00000     0.00000
 
 29 30  0  0  0  0  0  0  0  0999 V2000
   -2.5094    1.2196   -0.6080 C   0  0  0  0  0  0  0  0  0  0  0  0
   -2.0655   -0.0128    0.1825 C   0  0  0  0  0  0  0  0  0  0  0  0
   -2.4718   -1.2783   -0.5753 C   0  0  0  0  0  0  0  0  0  0  0  0
   -0.5455    0.0123    0.3552 C   0  0  0  0  0  0  0  0  0  0  0  0
    0.0570   -1.1876    1.1459 C   0  0  0  0  0  0  0  0  0  0  0  0
    1.5341   -1.2010    0.6763 C   0  0  0  0  0  0  0  0  0  0  0  0
    1.5890   -0.0070   -0.3234 C   0  0  0  0  0  0  0  0  0  0  0  0
    0.2354   -0.0409   -0.8836 O   0  0  0  0  0  0  0  0  0  0  0  0
    1.5198    1.2741    0.5610 C   0  0  0  0  0  0  0  0  0  0  0  0
    0.0278    1.2878    1.0425 C   0  0  0  0  0  0  0  0  0  0  0  0
    2.7296   -0.0561   -1.3419 C   0  0  0  0  0  0  0  0  0  0  0  0
   -2.0322    1.2140   -1.5880 H   0  0  0  0  0  0  0  0  0  0  0  0
   -3.5923    1.2017   -0.7310 H   0  0  0  0  0  0  0  0  0  0  0  0
   -2.2199    2.1212   -0.0681 H   0  0  0  0  0  0  0  0  0  0  0  0
   -2.5426   -0.0072    1.1625 H   0  0  0  0  0  0  0  0  0  0  0  0
   -1.9946   -1.2840   -1.5553 H   0  0  0  0  0  0  0  0  0  0  0  0
   -2.1555   -2.1564   -0.0122 H   0  0  0  0  0  0  0  0  0  0  0  0
   -3.5547   -1.2963   -0.6984 H   0  0  0  0  0  0  0  0  0  0  0  0
   -0.0052   -1.0126    2.2199 H   0  0  0  0  0  0  0  0  0  0  0  0
   -0.4425   -2.1180    0.8756 H   0  0  0  0  0  0  0  0  0  0  0  0
    2.2079   -1.0326    1.5164 H   0  0  0  0  0  0  0  0  0  0  0  0
    1.7706   -2.1379    0.1720 H   0  0  0  0  0  0  0  0  0  0  0  0
    2.1950    1.1923    1.4127 H   0  0  0  0  0  0  0  0  0  0  0  0
    1.7457    2.1628   -0.0283 H   0  0  0  0  0  0  0  0  0  0  0  0
   -0.4839    2.1829    0.6887 H   0  0  0  0  0  0  0  0  0  0  0  0
   -0.0282    1.2135    2.1285 H   0  0  0  0  0  0  0  0  0  0  0  0
    2.6394   -0.9595   -1.9451 H   0  0  0  0  0  0  0  0  0  0  0  0
    2.6770    0.8196   -1.9889 H   0  0  0  0  0  0  0  0  0  0  0  0
    3.6851   -0.0634   -0.8174 H   0  0  0  0  0  0  0  0  0  0  0  0
  1  2  1  0  0  0  0
  2  3  1  0  0  0  0
  2  4  1  0  0  0  0
  4  5  1  0  0  0  0
  5  6  1  0  0  0  0
  6  7  1  0  0  0  0
  7  8  1  0  0  0  0
  4  8  1  0  0  0  0
  7  9  1  0  0  0  0
  9 10  1  0  0  0  0
  4 10  1  0  0  0  0
  7 11  1  0  0  0  0
  1 12  1  0  0  0  0
  1 13  1  0  0  0  0
  1 14  1  0  0  0  0
  2 15  1  0  0  0  0
  3 16  1  0  0  0  0
  3 17  1  0  0  0  0
  3 18  1  0  0  0  0
  5 19  1  0  0  0  0
  5 20  1  0  0  0  0
  6 21  1  0  0  0  0
  6 22  1  0  0  0  0
  9 23  1  0  0  0  0
  9 24  1  0  0  0  0
 10 25  1  0  0  0  0
 10 26  1  0  0  0  0
 11 27  1  0  0  0  0
 11 28  1  0  0  0  0
 11 29  1  0  0  0  0
M  END
$$$$
