C20H27NO2
APtclcactv06291803033D 0   0.00000     0.00000
 
 50 51  0  0  0  0  0  0  0  0999 V2000
    9.7938    0.4482   -1.1839 C   0  0  0  0  0  0  0  0  0  0  0  0
    8.5669    0.2031   -0.3439 C   0  0  0  0  0  0  0  0  0  0  0  0
    8.6806   -0.0514    0.8311 O   0  0  0  0  0  0  0  0  0  0  0  0
    7.1981    0.2756   -0.9701 C   0  0  0  0  0  0  0  0  0  0  0  0
    6.1353   -0.0108    0.0925 C   0  0  0  0  0  0  0  0  0  0  0  0
    4.7456    0.0628   -0.5433 C   0  0  0  0  0  0  0  0  0  0  0  0
    3.6827   -0.2237    0.5193 C   0  0  0  0  0  0  0  0  0  0  0  0
    2.2931   -0.1501   -0.1165 C   0  0  0  0  0  0  0  0  0  0  0  0
    1.2302   -0.4365    0.9461 C   0  0  0  0  0  0  0  0  0  0  0  0
   -0.1595   -0.3629    0.3103 C   0  0  0  0  0  0  0  0  0  0  0  0
   -1.2223   -0.6494    1.3729 C   0  0  0  0  0  0  0  0  0  0  0  0
   -2.5911   -0.5769    0.7467 C   0  0  0  0  0  0  0  0  0  0  0  0
   -3.1676   -1.7173    0.3139 C   0  0  0  0  0  0  0  0  0  0  0  0
   -4.4516   -1.6826   -0.2789 C   0  0  0  0  0  0  0  0  0  0  0  0
   -4.9901   -2.7026   -0.6766 O   0  0  0  0  0  0  0  0  0  0  0  0
   -5.1171   -0.3735   -0.3994 C   0  0  0  0  0  0  0  0  0  0  0  0
   -6.3832   -0.2501   -0.9705 C   0  0  0  0  0  0  0  0  0  0  0  0
   -6.9666    0.9831   -1.0634 C   0  0  0  0  0  0  0  0  0  0  0  0
   -6.3088    2.1115   -0.5946 C   0  0  0  0  0  0  0  0  0  0  0  0
   -5.0571    2.0113   -0.0269 C   0  0  0  0  0  0  0  0  0  0  0  0
   -4.4453    0.7658    0.0780 C   0  0  0  0  0  0  0  0  0  0  0  0
   -3.1978    0.6304    0.6448 N   0  0  0  0  0  0  0  0  0  0  0  0
   -2.5070    1.8216    1.1448 C   0  0  0  0  0  0  0  0  0  0  0  0
   10.6844    0.3537   -0.5626 H   0  0  0  0  0  0  0  0  0  0  0  0
    9.8342   -0.2839   -1.9904 H   0  0  0  0  0  0  0  0  0  0  0  0
    9.7504    1.4521   -1.6063 H   0  0  0  0  0  0  0  0  0  0  0  0
    7.0398    1.2719   -1.3831 H   0  0  0  0  0  0  0  0  0  0  0  0
    7.1236   -0.4641   -1.7672 H   0  0  0  0  0  0  0  0  0  0  0  0
    6.2936   -1.0071    0.5054 H   0  0  0  0  0  0  0  0  0  0  0  0
    6.2098    0.7289    0.8896 H   0  0  0  0  0  0  0  0  0  0  0  0
    4.5873    1.0590   -0.9563 H   0  0  0  0  0  0  0  0  0  0  0  0
    4.6711   -0.6770   -1.3404 H   0  0  0  0  0  0  0  0  0  0  0  0
    3.8411   -1.2199    0.9323 H   0  0  0  0  0  0  0  0  0  0  0  0
    3.7573    0.5161    1.3164 H   0  0  0  0  0  0  0  0  0  0  0  0
    2.1347    0.8462   -0.5295 H   0  0  0  0  0  0  0  0  0  0  0  0
    2.2186   -0.8898   -0.9136 H   0  0  0  0  0  0  0  0  0  0  0  0
    1.3885   -1.4328    1.3591 H   0  0  0  0  0  0  0  0  0  0  0  0
    1.3047    0.3032    1.7432 H   0  0  0  0  0  0  0  0  0  0  0  0
   -0.3178    0.6333   -0.1026 H   0  0  0  0  0  0  0  0  0  0  0  0
   -0.2340   -1.1027   -0.4868 H   0  0  0  0  0  0  0  0  0  0  0  0
   -1.0640   -1.6456    1.7859 H   0  0  0  0  0  0  0  0  0  0  0  0
   -1.1478    0.0904    2.1700 H   0  0  0  0  0  0  0  0  0  0  0  0
   -2.6479   -2.6581    0.4198 H   0  0  0  0  0  0  0  0  0  0  0  0
   -6.9003   -1.1241   -1.3379 H   0  0  0  0  0  0  0  0  0  0  0  0
   -7.9472    1.0797   -1.5055 H   0  0  0  0  0  0  0  0  0  0  0  0
   -6.7827    3.0785   -0.6759 H   0  0  0  0  0  0  0  0  0  0  0  0
   -4.5531    2.8954    0.3347 H   0  0  0  0  0  0  0  0  0  0  0  0
   -2.8379    2.0337    2.1615 H   0  0  0  0  0  0  0  0  0  0  0  0
   -1.4312    1.6458    1.1421 H   0  0  0  0  0  0  0  0  0  0  0  0
   -2.7378    2.6717    0.5028 H   0  0  0  0  0  0  0  0  0  0  0  0
  1  2  1  0  0  0  0
  2  3  2  0  0  0  0
  2  4  1  0  0  0  0
  4  5  1  0  0  0  0
  5  6  1  0  0  0  0
  6  7  1  0  0  0  0
  7  8  1  0  0  0  0
  8  9  1  0  0  0  0
  9 10  1  0  0  0  0
 10 11  1  0  0  0  0
 11 12  1  0  0  0  0
 12 13  2  0  0  0  0
 13 14  1  0  0  0  0
 14 15  2  0  0  0  0
 14 16  1  0  0  0  0
 16 17  2  0  0  0  0
 17 18  1  0  0  0  0
 18 19  2  0  0  0  0
 19 20  1  0  0  0  0
 20 21  2  0  0  0  0
 16 21  1  0  0  0  0
 21 22  1  0  0  0  0
 12 22  1  0  0  0  0
 22 23  1  0  0  0  0
  1 24  1  0  0  0  0
  1 25  1  0  0  0  0
  1 26  1  0  0  0  0
  4 27  1  0  0  0  0
  4 28  1  0  0  0  0
  5 29  1  0  0  0  0
  5 30  1  0  0  0  0
  6 31  1  0  0  0  0
  6 32  1  0  0  0  0
  7 33  1  0  0  0  0
  7 34  1  0  0  0  0
  8 35  1  0  0  0  0
  8 36  1  0  0  0  0
  9 37  1  0  0  0  0
  9 38  1  0  0  0  0
 10 39  1  0  0  0  0
 10 40  1  0  0  0  0
 11 41  1  0  0  0  0
 11 42  1  0  0  0  0
 13 43  1  0  0  0  0
 17 44  1  0  0  0  0
 18 45  1  0  0  0  0
 19 46  1  0  0  0  0
 20 47  1  0  0  0  0
 23 48  1  0  0  0  0
 23 49  1  0  0  0  0
 23 50  1  0  0  0  0
M  END
$$$$
