C42H47O24
APtclcactv06291803033D 0   0.00000     0.00000
 
113119  0  0  0  0  0  0  0  0999 V2000
    7.0575   -2.3816    1.0872 C   0  0  0  0  0  0  0  0  0  0  0  0
    7.3310   -3.5300    1.7969 C   0  0  0  0  0  0  0  0  0  0  0  0
    8.6106   -4.0693    1.7859 C   0  0  0  0  0  0  0  0  0  0  0  0
    9.6260   -3.4512    1.0568 C   0  0  0  0  0  0  0  0  0  0  0  0
    9.3609   -2.2996    0.3424 C   0  0  0  0  0  0  0  0  0  0  0  0
    8.0712   -1.7554    0.3525 C   0  0  0  0  0  0  0  0  0  0  0  0
    7.7823   -0.5304   -0.4061 C   0  0  0  0  0  0  0  0  0  0  0  0
    6.5369   -0.0069   -0.3950 C   0  0  0  0  0  0  0  0  0  0  0  0
    6.2582    1.1750   -1.1268 C   0  0  0  0  0  0  0  0  0  0  0  0
    7.1404    1.7177   -1.7647 O   0  0  0  0  0  0  0  0  0  0  0  0
    5.0143    1.6978   -1.1157 O   0  0  0  0  0  0  0  0  0  0  0  0
    4.8049    2.8900   -1.8753 C   0  0  0  0  0  0  0  0  0  0  0  0
    3.3454    3.3296   -1.7424 C   0  0  0  0  0  0  0  0  0  0  0  0
    3.1499    4.6718   -2.4522 C   0  0  0  0  0  0  0  0  0  0  0  0
    1.6748    5.0757   -2.3667 C   0  0  0  0  0  0  0  0  0  0  0  0
    0.8162    3.9642   -2.9780 C   0  0  0  0  0  0  0  0  0  0  0  0
    1.1019    2.6493   -2.2478 C   0  0  0  0  0  0  0  0  0  0  0  0
    2.4958    2.3481   -2.3397 O   0  0  0  0  0  0  0  0  0  0  0  0
    0.7315    2.7772   -0.8736 O   0  0  0  0  0  0  0  0  0  0  0  0
    0.8527    1.5666   -0.1239 C   0  0  0  0  0  0  0  0  0  0  0  0
    1.1750    1.8989    1.3362 C   0  0  0  0  0  0  0  0  0  0  0  0
    1.2255    0.5990    2.1450 C   0  0  0  0  0  0  0  0  0  0  0  0
   -0.1089   -0.1368    1.9974 C   0  0  0  0  0  0  0  0  0  0  0  0
   -0.3625   -0.3877    0.6136 O   0  0  0  0  0  0  0  0  0  0  0  0
   -0.4673    0.7935   -0.1839 C   0  0  0  0  0  0  0  0  0  0  0  0
   -1.5238    1.6148    0.3174 O   0  0  0  0  0  0  0  0  0  0  0  0
   -2.7852    1.1144    0.2379 C   0  0  0  0  0  0  0  0  0  0  0  0
   -3.8888    1.8504    0.7056 C   0  0  0  0  0  0  0  0  0  0  0  0
   -5.0232    1.4347    0.6498 O   0  3  0  0  0  0  0  0  0  0  0  0
   -5.3499    0.3540    0.1938 C   0  0  0  0  0  0  0  0  0  0  0  0
   -6.6976   -0.0365    0.1742 C   0  0  0  0  0  0  0  0  0  0  0  0
   -7.0494   -1.2629   -0.3459 C   0  0  0  0  0  0  0  0  0  0  0  0
   -6.0829   -2.1310   -0.8578 C   0  0  0  0  0  0  0  0  0  0  0  0
   -4.7616   -1.7803   -0.8529 C   0  0  0  0  0  0  0  0  0  0  0  0
   -4.3750   -0.5336   -0.3280 C   0  0  0  0  0  0  0  0  0  0  0  0
   -3.0243   -0.1279   -0.3089 C   0  0  0  0  0  0  0  0  0  0  0  0
   -3.8280   -2.6300   -1.3524 O   0  0  0  0  0  0  0  0  0  0  0  0
   -4.2961   -3.8774   -1.8689 C   0  0  0  0  0  0  0  0  0  0  0  0
   -3.1270   -4.6413   -2.4961 C   0  0  0  0  0  0  0  0  0  0  0  0
   -2.0877   -4.9473   -1.4133 C   0  0  0  0  0  0  0  0  0  0  0  0
   -2.7591   -5.7362   -0.2849 C   0  0  0  0  0  0  0  0  0  0  0  0
   -3.9424   -4.9299    0.2569 C   0  0  0  0  0  0  0  0  0  0  0  0
   -4.8554   -4.6531   -0.8070 O   0  0  0  0  0  0  0  0  0  0  0  0
   -4.6550   -5.7373    1.3437 C   0  0  0  0  0  0  0  0  0  0  0  0
   -5.6863   -4.9405    1.9300 O   0  0  0  0  0  0  0  0  0  0  0  0
   -3.2259   -6.9887   -0.7901 O   0  0  0  0  0  0  0  0  0  0  0  0
   -1.0274   -5.7239   -1.9742 O   0  0  0  0  0  0  0  0  0  0  0  0
   -3.6036   -5.8649   -3.0598 O   0  0  0  0  0  0  0  0  0  0  0  0
   -8.3559   -1.6331   -0.3606 O   0  0  0  0  0  0  0  0  0  0  0  0
   -3.6521    3.1883    1.2906 C   0  0  0  0  0  0  0  0  0  0  0  0
   -4.5346    4.2357    1.0206 C   0  0  0  0  0  0  0  0  0  0  0  0
   -4.3093    5.4841    1.5694 C   0  0  0  0  0  0  0  0  0  0  0  0
   -3.2032    5.6949    2.3902 C   0  0  0  0  0  0  0  0  0  0  0  0
   -2.3263    4.6534    2.6582 C   0  0  0  0  0  0  0  0  0  0  0  0
   -2.5491    3.4044    2.1182 C   0  0  0  0  0  0  0  0  0  0  0  0
   -2.9825    6.9227    2.9287 O   0  0  0  0  0  0  0  0  0  0  0  0
   -5.1669    6.5067    1.3080 O   0  0  0  0  0  0  0  0  0  0  0  0
   -0.0453   -1.4654    2.7536 C   0  0  0  0  0  0  0  0  0  0  0  0
   -1.3261   -2.0978    2.7139 O   0  0  0  0  0  0  0  0  0  0  0  0
    2.2833   -0.2275    1.6550 O   0  0  0  0  0  0  0  0  0  0  0  0
    2.4417    2.5563    1.4085 O   0  0  0  0  0  0  0  0  0  0  0  0
   -0.5664    4.2973   -2.8384 O   0  0  0  0  0  0  0  0  0  0  0  0
    1.3094    5.2640   -0.9981 O   0  0  0  0  0  0  0  0  0  0  0  0
    3.9553    5.6684   -1.8197 O   0  0  0  0  0  0  0  0  0  0  0  0
   10.8779   -3.9824    1.0497 O   0  0  0  0  0  0  0  0  0  0  0  0
    8.8741   -5.2018    2.4876 O   0  0  0  0  0  0  0  0  0  0  0  0
    6.0603   -1.9669    1.0940 H   0  0  0  0  0  0  0  0  0  0  0  0
    6.5482   -4.0120    2.3637 H   0  0  0  0  0  0  0  0  0  0  0  0
   10.1466   -1.8199   -0.2223 H   0  0  0  0  0  0  0  0  0  0  0  0
    8.5655   -0.0486   -0.9724 H   0  0  0  0  0  0  0  0  0  0  0  0
    5.7536   -0.4887    0.1714 H   0  0  0  0  0  0  0  0  0  0  0  0
    5.4575    3.6787   -1.5009 H   0  0  0  0  0  0  0  0  0  0  0  0
    5.0323    2.6974   -2.9237 H   0  0  0  0  0  0  0  0  0  0  0  0
    3.0925    3.4361   -0.6875 H   0  0  0  0  0  0  0  0  0  0  0  0
    3.4414    4.5766   -3.4982 H   0  0  0  0  0  0  0  0  0  0  0  0
    1.5180    6.0027   -2.9182 H   0  0  0  0  0  0  0  0  0  0  0  0
    1.0605    3.8546   -4.0346 H   0  0  0  0  0  0  0  0  0  0  0  0
    0.5254    1.8461   -2.7066 H   0  0  0  0  0  0  0  0  0  0  0  0
    1.6526    0.9567   -0.5438 H   0  0  0  0  0  0  0  0  0  0  0  0
    0.4009    2.5505    1.7413 H   0  0  0  0  0  0  0  0  0  0  0  0
    1.3996    0.8303    3.1958 H   0  0  0  0  0  0  0  0  0  0  0  0
   -0.9101    0.4775    2.4083 H   0  0  0  0  0  0  0  0  0  0  0  0
   -0.6801    0.5171   -1.2165 H   0  0  0  0  0  0  0  0  0  0  0  0
   -7.4576    0.6230    0.5665 H   0  0  0  0  0  0  0  0  0  0  0  0
   -6.3817   -3.0875   -1.2605 H   0  0  0  0  0  0  0  0  0  0  0  0
   -2.2301   -0.7507   -0.6933 H   0  0  0  0  0  0  0  0  0  0  0  0
   -5.0585   -3.6942   -2.6260 H   0  0  0  0  0  0  0  0  0  0  0  0
   -2.6712   -4.0326   -3.2769 H   0  0  0  0  0  0  0  0  0  0  0  0
   -1.6877   -4.0137   -1.0176 H   0  0  0  0  0  0  0  0  0  0  0  0
   -2.0401   -5.9104    0.5156 H   0  0  0  0  0  0  0  0  0  0  0  0
   -3.5807   -3.9922    0.6787 H   0  0  0  0  0  0  0  0  0  0  0  0
   -5.0938   -6.6323    0.9026 H   0  0  0  0  0  0  0  0  0  0  0  0
   -3.9373   -6.0252    2.1119 H   0  0  0  0  0  0  0  0  0  0  0  0
   -6.1811   -5.3898    2.6288 H   0  0  0  0  0  0  0  0  0  0  0  0
   -2.5283   -7.5505   -1.1545 H   0  0  0  0  0  0  0  0  0  0  0  0
   -0.5617   -5.2872   -2.7005 H   0  0  0  0  0  0  0  0  0  0  0  0
   -4.2698   -5.7464   -3.7506 H   0  0  0  0  0  0  0  0  0  0  0  0
   -8.8290   -1.3745   -1.1634 H   0  0  0  0  0  0  0  0  0  0  0  0
   -5.3913    4.0710    0.3840 H   0  0  0  0  0  0  0  0  0  0  0  0
   -1.4699    4.8203    3.2948 H   0  0  0  0  0  0  0  0  0  0  0  0
   -1.8650    2.5955    2.3284 H   0  0  0  0  0  0  0  0  0  0  0  0
   -3.4001    7.0549    3.7908 H   0  0  0  0  0  0  0  0  0  0  0  0
   -5.8966    6.5790    1.9384 H   0  0  0  0  0  0  0  0  0  0  0  0
    0.6950   -2.1145    2.2860 H   0  0  0  0  0  0  0  0  0  0  0  0
    0.2366   -1.2804    3.7901 H   0  0  0  0  0  0  0  0  0  0  0  0
   -1.3598   -2.9473    3.1747 H   0  0  0  0  0  0  0  0  0  0  0  0
    2.3734   -1.0693    2.1224 H   0  0  0  0  0  0  0  0  0  0  0  0
    2.7096    2.7963    2.3061 H   0  0  0  0  0  0  0  0  0  0  0  0
   -1.1693    3.6359   -3.2047 H   0  0  0  0  0  0  0  0  0  0  0  0
    0.3863    5.5217   -0.8693 H   0  0  0  0  0  0  0  0  0  0  0  0
    3.8808    6.5460   -2.2188 H   0  0  0  0  0  0  0  0  0  0  0  0
   11.0292   -4.6231    0.3413 H   0  0  0  0  0  0  0  0  0  0  0  0
    8.7392   -6.0166    1.9846 H   0  0  0  0  0  0  0  0  0  0  0  0
  1  2  2  0  0  0  0
  2  3  1  0  0  0  0
  3  4  2  0  0  0  0
  4  5  1  0  0  0  0
  5  6  2  0  0  0  0
  1  6  1  0  0  0  0
  6  7  1  0  0  0  0
  7  8  2  0  0  0  0
  8  9  1  0  0  0  0
  9 10  2  0  0  0  0
  9 11  1  0  0  0  0
 11 12  1  0  0  0  0
 12 13  1  0  0  0  0
 13 14  1  0  0  0  0
 14 15  1  0  0  0  0
 15 16  1  0  0  0  0
 16 17  1  0  0  0  0
 17 18  1  0  0  0  0
 13 18  1  0  0  0  0
 17 19  1  0  0  0  0
 19 20  1  0  0  0  0
 20 21  1  0  0  0  0
 21 22  1  0  0  0  0
 22 23  1  0  0  0  0
 23 24  1  0  0  0  0
 24 25  1  0  0  0  0
 20 25  1  0  0  0  0
 25 26  1  0  0  0  0
 26 27  1  0  0  0  0
 27 28  2  0  0  0  0
 28 29  1  0  0  0  0
 29 30  2  0  0  0  0
 30 31  1  0  0  0  0
 31 32  2  0  0  0  0
 32 33  1  0  0  0  0
 33 34  2  0  0  0  0
 34 35  1  0  0  0  0
 30 35  1  0  0  0  0
 35 36  2  0  0  0  0
 27 36  1  0  0  0  0
 34 37  1  0  0  0  0
 37 38  1  0  0  0  0
 38 39  1  0  0  0  0
 39 40  1  0  0  0  0
 40 41  1  0  0  0  0
 41 42  1  0  0  0  0
 42 43  1  0  0  0  0
 38 43  1  0  0  0  0
 42 44  1  0  0  0  0
 44 45  1  0  0  0  0
 41 46  1  0  0  0  0
 40 47  1  0  0  0  0
 39 48  1  0  0  0  0
 32 49  1  0  0  0  0
 28 50  1  0  0  0  0
 50 51  2  0  0  0  0
 51 52  1  0  0  0  0
 52 53  2  0  0  0  0
 53 54  1  0  0  0  0
 54 55  2  0  0  0  0
 50 55  1  0  0  0  0
 53 56  1  0  0  0  0
 52 57  1  0  0  0  0
 23 58  1  0  0  0  0
 58 59  1  0  0  0  0
 22 60  1  0  0  0  0
 21 61  1  0  0  0  0
 16 62  1  0  0  0  0
 15 63  1  0  0  0  0
 14 64  1  0  0  0  0
  4 65  1  0  0  0  0
  3 66  1  0  0  0  0
  1 67  1  0  0  0  0
  2 68  1  0  0  0  0
  5 69  1  0  0  0  0
  7 70  1  0  0  0  0
  8 71  1  0  0  0  0
 12 72  1  0  0  0  0
 12 73  1  0  0  0  0
 13 74  1  0  0  0  0
 14 75  1  0  0  0  0
 15 76  1  0  0  0  0
 16 77  1  0  0  0  0
 17 78  1  0  0  0  0
 20 79  1  0  0  0  0
 21 80  1  0  0  0  0
 22 81  1  0  0  0  0
 23 82  1  0  0  0  0
 25 83  1  0  0  0  0
 31 84  1  0  0  0  0
 33 85  1  0  0  0  0
 36 86  1  0  0  0  0
 38 87  1  0  0  0  0
 39 88  1  0  0  0  0
 40 89  1  0  0  0  0
 41 90  1  0  0  0  0
 42 91  1  0  0  0  0
 44 92  1  0  0  0  0
 44 93  1  0  0  0  0
 45 94  1  0  0  0  0
 46 95  1  0  0  0  0
 47 96  1  0  0  0  0
 48 97  1  0  0  0  0
 49 98  1  0  0  0  0
 51 99  1  0  0  0  0
 54100  1  0  0  0  0
 55101  1  0  0  0  0
 56102  1  0  0  0  0
 57103  1  0  0  0  0
 58104  1  0  0  0  0
 58105  1  0  0  0  0
 59106  1  0  0  0  0
 60107  1  0  0  0  0
 61108  1  0  0  0  0
 62109  1  0  0  0  0
 63110  1  0  0  0  0
 64111  1  0  0  0  0
 65112  1  0  0  0  0
 66113  1  0  0  0  0
M  CHG  1  29   1
M  END
$$$$
