C48H56N2O4
APtclcactv06291803033D 0   0.00000     0.00000
 
110115  0  0  0  0  0  0  0  0999 V2000
    4.0243   -2.8282   -4.2942 C   0  0  0  0  0  0  0  0  0  0  0  0
    3.2105   -2.7129   -3.0311 C   0  0  0  0  0  0  0  0  0  0  0  0
    3.7611   -2.1123   -1.9069 C   0  0  0  0  0  0  0  0  0  0  0  0
    3.0163   -2.0004   -0.7324 C   0  0  0  0  0  0  0  0  0  0  0  0
    1.7063   -2.4968   -0.6896 C   0  0  0  0  0  0  0  0  0  0  0  0
    1.1645   -3.0999   -1.8325 C   0  0  0  0  0  0  0  0  0  0  0  0
    1.9208   -3.1992   -2.9992 C   0  0  0  0  0  0  0  0  0  0  0  0
   -0.2067   -3.5123   -1.4775 C   0  0  0  0  0  0  0  0  0  0  0  0
   -0.4035   -3.1309   -0.1419 C   0  0  0  0  0  0  0  0  0  0  0  0
    0.7541   -2.5241    0.3127 N   0  0  0  0  0  0  0  0  0  0  0  0
   -1.6238   -3.3963    0.4704 C   0  0  0  0  0  0  0  0  0  0  0  0
   -2.6289   -4.0305   -0.2371 C   0  0  0  0  0  0  0  0  0  0  0  0
   -2.4295   -4.4070   -1.5615 C   0  0  0  0  0  0  0  0  0  0  0  0
   -1.2261   -4.1506   -2.1806 C   0  0  0  0  0  0  0  0  0  0  0  0
   -3.8194   -4.2880    0.3658 O   0  0  0  0  0  0  0  0  0  0  0  0
   -4.8157   -4.9455   -0.4199 C   0  0  0  0  0  0  0  0  0  0  0  0
   -1.8507   -2.9934    1.9046 C   0  0  0  0  0  0  0  0  0  0  0  0
   -2.5163   -1.6420    1.9475 C   0  0  0  0  0  0  0  0  0  0  0  0
   -3.6267   -1.4799    2.6233 C   0  0  0  0  0  0  0  0  0  0  0  0
   -4.3014   -2.6674    3.2602 C   0  0  0  0  0  0  0  0  0  0  0  0
   -4.2295   -0.1059    2.7638 C   0  0  0  0  0  0  0  0  0  0  0  0
   -5.3178    0.0843    1.7054 C   0  0  0  0  0  0  0  0  0  0  0  0
   -5.8405    1.4963    1.7704 C   0  0  0  0  0  0  0  0  0  0  0  0
   -7.1271    1.7138    1.8861 C   0  0  0  0  0  0  0  0  0  0  0  0
   -8.0939    0.5588    1.8371 C   0  0  0  0  0  0  0  0  0  0  0  0
   -7.6404    3.1189    2.0682 C   0  0  0  0  0  0  0  0  0  0  0  0
    3.6082   -1.3596    0.4652 C   0  0  0  0  0  0  0  0  0  0  0  0
    3.5622    0.0334    0.6130 C   0  0  0  0  0  0  0  0  0  0  0  0
    4.1270    0.6206    1.7529 C   0  0  0  0  0  0  0  0  0  0  0  0
    4.7273   -0.1746    2.7279 C   0  0  0  0  0  0  0  0  0  0  0  0
    4.7685   -1.5441    2.5746 C   0  0  0  0  0  0  0  0  0  0  0  0
    4.2084   -2.1410    1.4531 C   0  0  0  0  0  0  0  0  0  0  0  0
    4.2540   -3.4919    1.3120 O   0  0  0  0  0  0  0  0  0  0  0  0
    5.4199   -2.3978    3.6319 C   0  0  0  0  0  0  0  0  0  0  0  0
    3.9222    2.0754    1.6191 C   0  0  0  0  0  0  0  0  0  0  0  0
    3.2462    2.2718    0.4057 C   0  0  0  0  0  0  0  0  0  0  0  0
    3.0395    1.0365   -0.1826 N   0  0  0  0  0  0  0  0  0  0  0  0
    2.9144    3.5637    0.0114 C   0  0  0  0  0  0  0  0  0  0  0  0
    3.2510    4.6393    0.8131 C   0  0  0  0  0  0  0  0  0  0  0  0
    3.9218    4.4399    2.0155 C   0  0  0  0  0  0  0  0  0  0  0  0
    4.2567    3.1662    2.4187 C   0  0  0  0  0  0  0  0  0  0  0  0
    2.9245    5.8997    0.4233 O   0  0  0  0  0  0  0  0  0  0  0  0
    3.3006    6.9666    1.2964 C   0  0  0  0  0  0  0  0  0  0  0  0
    2.1887    3.7915   -1.2896 C   0  0  0  0  0  0  0  0  0  0  0  0
    0.7027    3.6904   -1.0602 C   0  0  0  0  0  0  0  0  0  0  0  0
   -0.0162    2.8640   -1.7788 C   0  0  0  0  0  0  0  0  0  0  0  0
    0.6212    2.0978   -2.9091 C   0  0  0  0  0  0  0  0  0  0  0  0
   -1.4807    2.6795   -1.4750 C   0  0  0  0  0  0  0  0  0  0  0  0
   -2.3067    3.6183   -2.3567 C   0  0  0  0  0  0  0  0  0  0  0  0
   -3.7607    3.5172   -1.9738 C   0  0  0  0  0  0  0  0  0  0  0  0
   -4.6624    3.2586   -2.8883 C   0  0  0  0  0  0  0  0  0  0  0  0
   -4.2631    3.1807   -4.3394 C   0  0  0  0  0  0  0  0  0  0  0  0
   -6.0989    3.0390   -2.4893 C   0  0  0  0  0  0  0  0  0  0  0  0
    5.0314   -1.6316   -1.9507 O   0  0  0  0  0  0  0  0  0  0  0  0
    4.5767   -3.7678   -4.2861 H   0  0  0  0  0  0  0  0  0  0  0  0
    3.3599   -2.8048   -5.1580 H   0  0  0  0  0  0  0  0  0  0  0  0
    4.7250   -1.9953   -4.3523 H   0  0  0  0  0  0  0  0  0  0  0  0
    1.4983   -3.6646   -3.8775 H   0  0  0  0  0  0  0  0  0  0  0  0
    0.8795   -2.1687    1.2065 H   0  0  0  0  0  0  0  0  0  0  0  0
   -3.2204   -4.9017   -2.1057 H   0  0  0  0  0  0  0  0  0  0  0  0
   -1.0733   -4.4433   -3.2089 H   0  0  0  0  0  0  0  0  0  0  0  0
   -5.0542   -4.3339   -1.2900 H   0  0  0  0  0  0  0  0  0  0  0  0
   -4.4384   -5.9138   -0.7488 H   0  0  0  0  0  0  0  0  0  0  0  0
   -5.7142   -5.0903    0.1798 H   0  0  0  0  0  0  0  0  0  0  0  0
   -2.4906   -3.7291    2.3919 H   0  0  0  0  0  0  0  0  0  0  0  0
   -0.8936   -2.9436    2.4238 H   0  0  0  0  0  0  0  0  0  0  0  0
   -2.0778   -0.8071    1.4210 H   0  0  0  0  0  0  0  0  0  0  0  0
   -3.8526   -2.8610    4.2344 H   0  0  0  0  0  0  0  0  0  0  0  0
   -5.3638   -2.4581    3.3847 H   0  0  0  0  0  0  0  0  0  0  0  0
   -4.1757   -3.5421    2.6220 H   0  0  0  0  0  0  0  0  0  0  0  0
   -4.6663   -0.0006    3.7570 H   0  0  0  0  0  0  0  0  0  0  0  0
   -3.4535    0.6471    2.6265 H   0  0  0  0  0  0  0  0  0  0  0  0
   -4.8995   -0.1031    0.7164 H   0  0  0  0  0  0  0  0  0  0  0  0
   -6.1334   -0.6140    1.8932 H   0  0  0  0  0  0  0  0  0  0  0  0
   -5.1543    2.3289    1.7215 H   0  0  0  0  0  0  0  0  0  0  0  0
   -8.1737    0.1096    2.8271 H   0  0  0  0  0  0  0  0  0  0  0  0
   -9.0733    0.9180    1.5211 H   0  0  0  0  0  0  0  0  0  0  0  0
   -7.7340   -0.1865    1.1279 H   0  0  0  0  0  0  0  0  0  0  0  0
   -6.8110    3.8217    1.9899 H   0  0  0  0  0  0  0  0  0  0  0  0
   -8.3776    3.3394    1.2961 H   0  0  0  0  0  0  0  0  0  0  0  0
   -8.1040    3.2120    3.0503 H   0  0  0  0  0  0  0  0  0  0  0  0
    5.1613    0.2830    3.6046 H   0  0  0  0  0  0  0  0  0  0  0  0
    3.4948   -3.9531    1.6942 H   0  0  0  0  0  0  0  0  0  0  0  0
    4.6766   -2.6853    4.3755 H   0  0  0  0  0  0  0  0  0  0  0  0
    5.8370   -3.2927    3.1703 H   0  0  0  0  0  0  0  0  0  0  0  0
    6.2171   -1.8327    4.1148 H   0  0  0  0  0  0  0  0  0  0  0  0
    2.5920    0.8945   -1.0314 H   0  0  0  0  0  0  0  0  0  0  0  0
    4.1809    5.2863    2.6343 H   0  0  0  0  0  0  0  0  0  0  0  0
    4.7771    3.0133    3.3526 H   0  0  0  0  0  0  0  0  0  0  0  0
    2.9814    7.9166    0.8678 H   0  0  0  0  0  0  0  0  0  0  0  0
    2.8238    6.8274    2.2667 H   0  0  0  0  0  0  0  0  0  0  0  0
    4.3835    6.9698    1.4209 H   0  0  0  0  0  0  0  0  0  0  0  0
    2.4307    4.7832   -1.6718 H   0  0  0  0  0  0  0  0  0  0  0  0
    2.4966    3.0378   -2.0142 H   0  0  0  0  0  0  0  0  0  0  0  0
    0.2304    4.2993   -0.3035 H   0  0  0  0  0  0  0  0  0  0  0  0
    1.0723    1.1849   -2.5203 H   0  0  0  0  0  0  0  0  0  0  0  0
   -0.1380    1.8417   -3.6481 H   0  0  0  0  0  0  0  0  0  0  0  0
    1.3904    2.7126   -3.3765 H   0  0  0  0  0  0  0  0  0  0  0  0
   -1.7663    1.6470   -1.6763 H   0  0  0  0  0  0  0  0  0  0  0  0
   -1.6660    2.9097   -0.4258 H   0  0  0  0  0  0  0  0  0  0  0  0
   -1.9644    4.6435   -2.2161 H   0  0  0  0  0  0  0  0  0  0  0  0
   -2.1857    3.3349   -3.4022 H   0  0  0  0  0  0  0  0  0  0  0  0
   -4.0595    3.6579   -0.9456 H   0  0  0  0  0  0  0  0  0  0  0  0
   -3.9159    2.1729   -4.5671 H   0  0  0  0  0  0  0  0  0  0  0  0
   -5.1225    3.4193   -4.9660 H   0  0  0  0  0  0  0  0  0  0  0  0
   -3.4621    3.8937   -4.5346 H   0  0  0  0  0  0  0  0  0  0  0  0
   -6.1790    3.0453   -1.4022 H   0  0  0  0  0  0  0  0  0  0  0  0
   -6.7170    3.8354   -2.9038 H   0  0  0  0  0  0  0  0  0  0  0  0
   -6.4397    2.0774   -2.8731 H   0  0  0  0  0  0  0  0  0  0  0  0
    5.0932   -0.7086   -2.2323 H   0  0  0  0  0  0  0  0  0  0  0  0
  1  2  1  0  0  0  0
  2  3  2  0  0  0  0
  3  4  1  0  0  0  0
  4  5  2  0  0  0  0
  5  6  1  0  0  0  0
  6  7  2  0  0  0  0
  2  7  1  0  0  0  0
  6  8  1  0  0  0  0
  8  9  2  0  0  0  0
  9 10  1  0  0  0  0
  5 10  1  0  0  0  0
  9 11  1  0  0  0  0
 11 12  2  0  0  0  0
 12 13  1  0  0  0  0
 13 14  2  0  0  0  0
  8 14  1  0  0  0  0
 12 15  1  0  0  0  0
 15 16  1  0  0  0  0
 11 17  1  0  0  0  0
 17 18  1  0  0  0  0
 18 19  2  0  0  0  0
 19 20  1  0  0  0  0
 19 21  1  0  0  0  0
 21 22  1  0  0  0  0
 22 23  1  0  0  0  0
 23 24  2  0  0  0  0
 24 25  1  0  0  0  0
 24 26  1  0  0  0  0
  4 27  1  0  0  0  0
 27 28  2  0  0  0  0
 28 29  1  0  0  0  0
 29 30  2  0  0  0  0
 30 31  1  0  0  0  0
 31 32  2  0  0  0  0
 27 32  1  0  0  0  0
 32 33  1  0  0  0  0
 31 34  1  0  0  0  0
 29 35  1  0  0  0  0
 35 36  2  0  0  0  0
 36 37  1  0  0  0  0
 28 37  1  0  0  0  0
 36 38  1  0  0  0  0
 38 39  2  0  0  0  0
 39 40  1  0  0  0  0
 40 41  2  0  0  0  0
 35 41  1  0  0  0  0
 39 42  1  0  0  0  0
 42 43  1  0  0  0  0
 38 44  1  0  0  0  0
 44 45  1  0  0  0  0
 45 46  2  0  0  0  0
 46 47  1  0  0  0  0
 46 48  1  0  0  0  0
 48 49  1  0  0  0  0
 49 50  1  0  0  0  0
 50 51  2  0  0  0  0
 51 52  1  0  0  0  0
 51 53  1  0  0  0  0
  3 54  1  0  0  0  0
  1 55  1  0  0  0  0
  1 56  1  0  0  0  0
  1 57  1  0  0  0  0
  7 58  1  0  0  0  0
 10 59  1  0  0  0  0
 13 60  1  0  0  0  0
 14 61  1  0  0  0  0
 16 62  1  0  0  0  0
 16 63  1  0  0  0  0
 16 64  1  0  0  0  0
 17 65  1  0  0  0  0
 17 66  1  0  0  0  0
 18 67  1  0  0  0  0
 20 68  1  0  0  0  0
 20 69  1  0  0  0  0
 20 70  1  0  0  0  0
 21 71  1  0  0  0  0
 21 72  1  0  0  0  0
 22 73  1  0  0  0  0
 22 74  1  0  0  0  0
 23 75  1  0  0  0  0
 25 76  1  0  0  0  0
 25 77  1  0  0  0  0
 25 78  1  0  0  0  0
 26 79  1  0  0  0  0
 26 80  1  0  0  0  0
 26 81  1  0  0  0  0
 30 82  1  0  0  0  0
 33 83  1  0  0  0  0
 34 84  1  0  0  0  0
 34 85  1  0  0  0  0
 34 86  1  0  0  0  0
 37 87  1  0  0  0  0
 40 88  1  0  0  0  0
 41 89  1  0  0  0  0
 43 90  1  0  0  0  0
 43 91  1  0  0  0  0
 43 92  1  0  0  0  0
 44 93  1  0  0  0  0
 44 94  1  0  0  0  0
 45 95  1  0  0  0  0
 47 96  1  0  0  0  0
 47 97  1  0  0  0  0
 47 98  1  0  0  0  0
 48 99  1  0  0  0  0
 48100  1  0  0  0  0
 49101  1  0  0  0  0
 49102  1  0  0  0  0
 50103  1  0  0  0  0
 52104  1  0  0  0  0
 52105  1  0  0  0  0
 52106  1  0  0  0  0
 53107  1  0  0  0  0
 53108  1  0  0  0  0
 53109  1  0  0  0  0
 54110  1  0  0  0  0
M  END
$$$$
