C16H12O3
APtclcactv06291803033D 0   0.00000     0.00000
 
 31 33  0  0  0  0  0  0  0  0999 V2000
    3.7953   -1.8848    0.1440 C   0  0  0  0  0  0  0  0  0  0  0  0
    2.8515   -0.7144    0.0422 C   0  0  0  0  0  0  0  0  0  0  0  0
    3.3462    0.5702   -0.0412 C   0  0  0  0  0  0  0  0  0  0  0  0
    2.4812    1.6610   -0.1363 C   0  0  0  0  0  0  0  0  0  0  0  0
    1.1297    1.4792   -0.1482 C   0  0  0  0  0  0  0  0  0  0  0  0
    0.5993    0.1882   -0.0650 C   0  0  0  0  0  0  0  0  0  0  0  0
    1.4664   -0.9255    0.0259 C   0  0  0  0  0  0  0  0  0  0  0  0
    0.9288   -2.2309    0.1096 C   0  0  0  0  0  0  0  0  0  0  0  0
   -0.4026   -2.4435    0.1044 C   0  0  0  0  0  0  0  0  0  0  0  0
   -1.3209   -1.3703    0.0154 C   0  0  0  0  0  0  0  0  0  0  0  0
   -2.7025   -1.6071    0.0109 C   0  0  0  0  0  0  0  0  0  0  0  0
   -3.5874   -0.5502   -0.0764 C   0  0  0  0  0  0  0  0  0  0  0  0
   -3.1284    0.7586   -0.1613 C   0  0  0  0  0  0  0  0  0  0  0  0
   -1.7604    1.0260   -0.1592 C   0  0  0  0  0  0  0  0  0  0  0  0
   -0.8445   -0.0445   -0.0755 C   0  0  0  0  0  0  0  0  0  0  0  0
   -1.2764    2.4089   -0.2490 C   0  0  0  0  0  0  0  0  0  0  0  0
   -1.4738    3.1812    0.6654 O   0  0  0  0  0  0  0  0  0  0  0  0
   -4.9246   -0.7936   -0.0797 O   0  0  0  0  0  0  0  0  0  0  0  0
    4.6892    0.7758   -0.0302 O   0  0  0  0  0  0  0  0  0  0  0  0
    4.0039   -2.0932    1.1934 H   0  0  0  0  0  0  0  0  0  0  0  0
    3.3387   -2.7609   -0.3165 H   0  0  0  0  0  0  0  0  0  0  0  0
    4.7260   -1.6470   -0.3712 H   0  0  0  0  0  0  0  0  0  0  0  0
    2.8863    2.6601   -0.2007 H   0  0  0  0  0  0  0  0  0  0  0  0
    0.4700    2.3311   -0.2214 H   0  0  0  0  0  0  0  0  0  0  0  0
    1.5988   -3.0751    0.1789 H   0  0  0  0  0  0  0  0  0  0  0  0
   -0.7764   -3.4546    0.1692 H   0  0  0  0  0  0  0  0  0  0  0  0
   -3.0759   -2.6185    0.0756 H   0  0  0  0  0  0  0  0  0  0  0  0
   -3.8350    1.5725   -0.2296 H   0  0  0  0  0  0  0  0  0  0  0  0
   -0.7445    2.7388   -1.1291 H   0  0  0  0  0  0  0  0  0  0  0  0
   -5.3250   -0.8024    0.8005 H   0  0  0  0  0  0  0  0  0  0  0  0
    5.0949    0.7716   -0.9080 H   0  0  0  0  0  0  0  0  0  0  0  0
  1  2  1  0  0  0  0
  2  3  2  0  0  0  0
  3  4  1  0  0  0  0
  4  5  2  0  0  0  0
  5  6  1  0  0  0  0
  6  7  2  0  0  0  0
  2  7  1  0  0  0  0
  7  8  1  0  0  0  0
  8  9  2  0  0  0  0
  9 10  1  0  0  0  0
 10 11  2  0  0  0  0
 11 12  1  0  0  0  0
 12 13  2  0  0  0  0
 13 14  1  0  0  0  0
 14 15  2  0  0  0  0
 10 15  1  0  0  0  0
  6 15  1  0  0  0  0
 14 16  1  0  0  0  0
 16 17  2  0  0  0  0
 12 18  1  0  0  0  0
  3 19  1  0  0  0  0
  1 20  1  0  0  0  0
  1 21  1  0  0  0  0
  1 22  1  0  0  0  0
  4 23  1  0  0  0  0
  5 24  1  0  0  0  0
  8 25  1  0  0  0  0
  9 26  1  0  0  0  0
 11 27  1  0  0  0  0
 13 28  1  0  0  0  0
 16 29  1  0  0  0  0
 18 30  1  0  0  0  0
 19 31  1  0  0  0  0
M  END
$$$$
