C15H22O2
APtclcactv06291803033D 0   0.00000     0.00000
 
 39 39  0  0  0  0  0  0  0  0999 V2000
   -0.1933   -2.1269   -0.7477 C   0  0  0  0  0  0  0  0  0  0  0  0
   -1.2570   -1.1479   -0.3221 C   0  0  0  0  0  0  0  0  0  0  0  0
   -0.9223    0.1262   -0.2078 C   0  0  0  0  0  0  0  0  0  0  0  0
   -1.8824    1.2064    0.1979 C   0  0  0  0  0  0  0  0  0  0  0  0
   -3.1213    0.5912    0.8519 C   0  0  0  0  0  0  0  0  0  0  0  0
   -3.6482   -0.5260   -0.0569 C   0  0  0  0  0  0  0  0  0  0  0  0
   -2.6380   -1.6732   -0.0576 C   0  0  0  0  0  0  0  0  0  0  0  0
   -4.9059   -0.9926    0.4358 O   0  0  0  0  0  0  0  0  0  0  0  0
   -1.1978    2.1463    1.1923 C   0  0  0  0  0  0  0  0  0  0  0  0
   -2.3039    2.0014   -1.0395 C   0  0  0  0  0  0  0  0  0  0  0  0
    0.4193    0.4928   -0.4837 C   0  0  0  0  0  0  0  0  0  0  0  0
    1.4371   -0.0865    0.2050 C   0  0  0  0  0  0  0  0  0  0  0  0
    2.7704    0.1763   -0.1573 C   0  0  0  0  0  0  0  0  0  0  0  0
    3.7923   -0.4053    0.5342 C   0  0  0  0  0  0  0  0  0  0  0  0
    5.1222   -0.1432    0.1729 C   0  0  0  0  0  0  0  0  0  0  0  0
    6.0328   -0.6615    0.7890 O   0  0  0  0  0  0  0  0  0  0  0  0
    3.0701    1.1004   -1.3093 C   0  0  0  0  0  0  0  0  0  0  0  0
    0.3761   -2.4470    0.1249 H   0  0  0  0  0  0  0  0  0  0  0  0
   -0.6626   -2.9936   -1.2132 H   0  0  0  0  0  0  0  0  0  0  0  0
    0.4759   -1.6483   -1.4627 H   0  0  0  0  0  0  0  0  0  0  0  0
   -2.8546    0.1770    1.8242 H   0  0  0  0  0  0  0  0  0  0  0  0
   -3.8884    1.3558    0.9745 H   0  0  0  0  0  0  0  0  0  0  0  0
   -3.7674   -0.1468   -1.0719 H   0  0  0  0  0  0  0  0  0  0  0  0
   -2.9092   -2.3931   -0.8299 H   0  0  0  0  0  0  0  0  0  0  0  0
   -2.6509   -2.1667    0.9142 H   0  0  0  0  0  0  0  0  0  0  0  0
   -5.2970   -1.7014   -0.0930 H   0  0  0  0  0  0  0  0  0  0  0  0
   -0.3759    2.6631    0.6969 H   0  0  0  0  0  0  0  0  0  0  0  0
   -1.9194    2.8772    1.5573 H   0  0  0  0  0  0  0  0  0  0  0  0
   -0.8104    1.5680    2.0312 H   0  0  0  0  0  0  0  0  0  0  0  0
   -2.7869    1.3338   -1.7531 H   0  0  0  0  0  0  0  0  0  0  0  0
   -3.0013    2.7864   -0.7468 H   0  0  0  0  0  0  0  0  0  0  0  0
   -1.4239    2.4503   -1.5000 H   0  0  0  0  0  0  0  0  0  0  0  0
    0.6321    1.2325   -1.2413 H   0  0  0  0  0  0  0  0  0  0  0  0
    1.2223   -0.7487    1.0306 H   0  0  0  0  0  0  0  0  0  0  0  0
    3.5776   -1.0676    1.3598 H   0  0  0  0  0  0  0  0  0  0  0  0
    5.3370    0.5190   -0.6528 H   0  0  0  0  0  0  0  0  0  0  0  0
    3.1603    2.1224   -0.9413 H   0  0  0  0  0  0  0  0  0  0  0  0
    4.0054    0.8005   -1.7819 H   0  0  0  0  0  0  0  0  0  0  0  0
    2.2613    1.0467   -2.0381 H   0  0  0  0  0  0  0  0  0  0  0  0
  1  2  1  0  0  0  0
  2  3  2  0  0  0  0
  3  4  1  0  0  0  0
  4  5  1  0  0  0  0
  5  6  1  0  0  0  0
  6  7  1  0  0  0  0
  2  7  1  0  0  0  0
  6  8  1  0  0  0  0
  4  9  1  0  0  0  0
  4 10  1  0  0  0  0
  3 11  1  0  0  0  0
 11 12  2  0  0  0  0
 12 13  1  0  0  0  0
 13 14  2  0  0  0  0
 14 15  1  0  0  0  0
 15 16  2  0  0  0  0
 13 17  1  0  0  0  0
  1 18  1  0  0  0  0
  1 19  1  0  0  0  0
  1 20  1  0  0  0  0
  5 21  1  0  0  0  0
  5 22  1  0  0  0  0
  6 23  1  0  0  0  0
  7 24  1  0  0  0  0
  7 25  1  0  0  0  0
  8 26  1  0  0  0  0
  9 27  1  0  0  0  0
  9 28  1  0  0  0  0
  9 29  1  0  0  0  0
 10 30  1  0  0  0  0
 10 31  1  0  0  0  0
 10 32  1  0  0  0  0
 11 33  1  0  0  0  0
 12 34  1  0  0  0  0
 14 35  1  0  0  0  0
 15 36  1  0  0  0  0
 17 37  1  0  0  0  0
 17 38  1  0  0  0  0
 17 39  1  0  0  0  0
M  END
$$$$
