C18H18O
APtclcactv06291803033D 0   0.00000     0.00000
 
 37 39  0  0  0  0  0  0  0  0999 V2000
    5.0709    0.8598   -0.0944 C   0  0  0  0  0  0  0  0  0  0  0  0
    3.5943    0.5625   -0.0462 C   0  0  0  0  0  0  0  0  0  0  0  0
    2.6933    1.5920    0.1685 C   0  0  0  0  0  0  0  0  0  0  0  0
    1.3374    1.3348    0.2110 C   0  0  0  0  0  0  0  0  0  0  0  0
    0.8731    0.0365    0.0207 C   0  0  0  0  0  0  0  0  0  0  0  0
   -0.5851   -0.2175    0.0260 C   0  0  0  0  0  0  0  0  0  0  0  0
   -1.4629    0.8573   -0.1139 C   0  0  0  0  0  0  0  0  0  0  0  0
   -0.9241    2.2500   -0.3043 C   0  0  0  0  0  0  0  0  0  0  0  0
    0.3621    2.4467    0.4918 C   0  0  0  0  0  0  0  0  0  0  0  0
   -2.8241    0.6371   -0.0876 C   0  0  0  0  0  0  0  0  0  0  0  0
   -3.3167   -0.6522    0.0629 C   0  0  0  0  0  0  0  0  0  0  0  0
   -2.4435   -1.7247    0.1885 C   0  0  0  0  0  0  0  0  0  0  0  0
   -1.0808   -1.5111    0.1714 C   0  0  0  0  0  0  0  0  0  0  0  0
   -4.6583   -0.8653    0.0879 O   0  0  0  0  0  0  0  0  0  0  0  0
   -3.7773    1.7966   -0.2218 C   0  0  0  0  0  0  0  0  0  0  0  0
    1.7845   -1.0116   -0.1819 C   0  0  0  0  0  0  0  0  0  0  0  0
    3.1509   -0.7324   -0.2219 C   0  0  0  0  0  0  0  0  0  0  0  0
    1.3015   -2.3956   -0.3561 C   0  0  0  0  0  0  0  0  0  0  0  0
    1.9276   -3.3978    0.2475 C   0  0  0  0  0  0  0  0  0  0  0  0
    5.4913    0.7763    0.9078 H   0  0  0  0  0  0  0  0  0  0  0  0
    5.5636    0.1469   -0.7556 H   0  0  0  0  0  0  0  0  0  0  0  0
    5.2259    1.8711   -0.4704 H   0  0  0  0  0  0  0  0  0  0  0  0
    3.0531    2.6013    0.3036 H   0  0  0  0  0  0  0  0  0  0  0  0
   -0.7197    2.4139   -1.3623 H   0  0  0  0  0  0  0  0  0  0  0  0
   -1.6684    2.9716    0.0325 H   0  0  0  0  0  0  0  0  0  0  0  0
    0.1273    2.4580    1.5562 H   0  0  0  0  0  0  0  0  0  0  0  0
    0.8138    3.3991    0.2144 H   0  0  0  0  0  0  0  0  0  0  0  0
   -2.8314   -2.7264    0.2996 H   0  0  0  0  0  0  0  0  0  0  0  0
   -0.4006   -2.3441    0.2695 H   0  0  0  0  0  0  0  0  0  0  0  0
   -5.0467   -1.0295   -0.7823 H   0  0  0  0  0  0  0  0  0  0  0  0
   -3.9277    2.0230   -1.2774 H   0  0  0  0  0  0  0  0  0  0  0  0
   -4.7327    1.5362    0.2337 H   0  0  0  0  0  0  0  0  0  0  0  0
   -3.3609    2.6694    0.2812 H   0  0  0  0  0  0  0  0  0  0  0  0
    3.8612   -1.5300   -0.3822 H   0  0  0  0  0  0  0  0  0  0  0  0
    0.4385   -2.5925   -0.9750 H   0  0  0  0  0  0  0  0  0  0  0  0
    2.7905   -3.2009    0.8664 H   0  0  0  0  0  0  0  0  0  0  0  0
    1.5742   -4.4103    0.1201 H   0  0  0  0  0  0  0  0  0  0  0  0
  1  2  1  0  0  0  0
  2  3  2  0  0  0  0
  3  4  1  0  0  0  0
  4  5  2  0  0  0  0
  5  6  1  0  0  0  0
  6  7  2  0  0  0  0
  7  8  1  0  0  0  0
  8  9  1  0  0  0  0
  4  9  1  0  0  0  0
  7 10  1  0  0  0  0
 10 11  2  0  0  0  0
 11 12  1  0  0  0  0
 12 13  2  0  0  0  0
  6 13  1  0  0  0  0
 11 14  1  0  0  0  0
 10 15  1  0  0  0  0
  5 16  1  0  0  0  0
 16 17  2  0  0  0  0
  2 17  1  0  0  0  0
 16 18  1  0  0  0  0
 18 19  2  0  0  0  0
  1 20  1  0  0  0  0
  1 21  1  0  0  0  0
  1 22  1  0  0  0  0
  3 23  1  0  0  0  0
  8 24  1  0  0  0  0
  8 25  1  0  0  0  0
  9 26  1  0  0  0  0
  9 27  1  0  0  0  0
 12 28  1  0  0  0  0
 13 29  1  0  0  0  0
 14 30  1  0  0  0  0
 15 31  1  0  0  0  0
 15 32  1  0  0  0  0
 15 33  1  0  0  0  0
 17 34  1  0  0  0  0
 18 35  1  0  0  0  0
 19 36  1  0  0  0  0
 19 37  1  0  0  0  0
M  END
$$$$
