BaH6
APtclcactv06291803033D 0   0.00000     0.00000
 
  7  4  0  0  0  0  0  0  0  0999 V2000
  -19.3251   -0.1207   -0.0009 H   0  0  0  0  0  0  0  0  0  0  0  0
  -18.7915   -0.6617   -0.0053 H   0  0  0  0  0  0  0  0  0  0  0  0
  -10.2460    0.7436    0.0060 H   0  0  0  0  0  0  0  0  0  0  0  0
   -9.7123    0.2025    0.0017 H   0  0  0  0  0  0  0  0  0  0  0  0
    0.4201   -0.0012   -0.0000 Ba  0  0  0  0  0  0  0  0  0  0  0  0
   -1.1669    1.6078    0.0130 H   0  0  0  0  0  0  0  0  0  0  0  0
    2.0071   -1.6102   -0.0130 H   0  0  0  0  0  0  0  0  0  0  0  0
  1  2  1  0  0  0  0
  3  4  1  0  0  0  0
  5  6  1  0  0  0  0
  5  7  1  0  0  0  0
M  END
$$$$
