C36H36O17
APtclcactv06291803033D 0   0.00000     0.00000
 
 89 94  0  0  0  0  0  0  0  0999 V2000
   -4.9085    1.2883   -1.9454 C   0  0  0  0  0  0  0  0  0  0  0  0
   -5.9304    0.5662   -2.5189 C   0  0  0  0  0  0  0  0  0  0  0  0
   -7.0957    1.2073   -2.9240 C   0  0  0  0  0  0  0  0  0  0  0  0
   -7.2354    2.5799   -2.7523 C   0  0  0  0  0  0  0  0  0  0  0  0
   -6.2195    3.3113   -2.1799 C   0  0  0  0  0  0  0  0  0  0  0  0
   -5.0442    2.6706   -1.7699 C   0  0  0  0  0  0  0  0  0  0  0  0
   -3.9566    3.4465   -1.1577 C   0  0  0  0  0  0  0  0  0  0  0  0
   -2.8234    2.8258   -0.7629 C   0  0  0  0  0  0  0  0  0  0  0  0
   -1.7741    3.5744   -0.1723 C   0  0  0  0  0  0  0  0  0  0  0  0
   -1.8941    4.7754   -0.0212 O   0  0  0  0  0  0  0  0  0  0  0  0
   -0.6423    2.9545    0.2220 O   0  0  0  0  0  0  0  0  0  0  0  0
    0.3734    3.7704    0.8092 C   0  0  0  0  0  0  0  0  0  0  0  0
    1.5714    2.8982    1.1899 C   0  0  0  0  0  0  0  0  0  0  0  0
    2.7072    3.7869    1.7034 C   0  0  0  0  0  0  0  0  0  0  0  0
    3.8799    2.9028    2.1387 C   0  0  0  0  0  0  0  0  0  0  0  0
    3.3917    1.9122    3.2001 C   0  0  0  0  0  0  0  0  0  0  0  0
    2.2294    1.0959    2.6288 C   0  0  0  0  0  0  0  0  0  0  0  0
    1.1859    1.9803    2.2151 O   0  0  0  0  0  0  0  0  0  0  0  0
    2.6854    0.3386    1.5061 O   0  0  0  0  0  0  0  0  0  0  0  0
    1.8004   -0.5237    0.9438 C   0  0  0  0  0  0  0  0  0  0  0  0
    2.1855   -1.2885   -0.1516 C   0  0  0  0  0  0  0  0  0  0  0  0
    1.2919   -2.1700   -0.7321 C   0  0  0  0  0  0  0  0  0  0  0  0
   -0.0014   -2.2859   -0.2080 C   0  0  0  0  0  0  0  0  0  0  0  0
   -0.3879   -1.5118    0.8999 C   0  0  0  0  0  0  0  0  0  0  0  0
    0.5230   -0.6374    1.4711 C   0  0  0  0  0  0  0  0  0  0  0  0
   -1.6373   -1.6302    1.3973 O   0  0  0  0  0  0  0  0  0  0  0  0
   -2.5423   -2.4699    0.8700 C   0  0  0  0  0  0  0  0  0  0  0  0
   -2.2678   -3.2620   -0.2013 C   0  0  0  0  0  0  0  0  0  0  0  0
   -0.9846   -3.2116   -0.7956 C   0  0  0  0  0  0  0  0  0  0  0  0
   -0.7037   -3.9080   -1.7577 O   0  0  0  0  0  0  0  0  0  0  0  0
   -3.8856   -2.5366    1.4757 C   0  0  0  0  0  0  0  0  0  0  0  0
   -4.1981   -1.7355    2.5777 C   0  0  0  0  0  0  0  0  0  0  0  0
   -5.4535   -1.8010    3.1402 C   0  0  0  0  0  0  0  0  0  0  0  0
   -6.4090   -2.6620    2.6137 C   0  0  0  0  0  0  0  0  0  0  0  0
   -6.1026   -3.4603    1.5182 C   0  0  0  0  0  0  0  0  0  0  0  0
   -4.8514   -3.3969    0.9459 C   0  0  0  0  0  0  0  0  0  0  0  0
   -7.6451   -2.7238    3.1716 O   0  0  0  0  0  0  0  0  0  0  0  0
    1.6655   -2.9167   -1.8019 O   0  0  0  0  0  0  0  0  0  0  0  0
    3.5797   -1.1562   -0.7080 C   0  0  0  0  0  0  0  0  0  0  0  0
    4.4105   -2.3753   -0.2989 C   0  0  0  0  0  0  0  0  0  0  0  0
    5.8071   -2.2627   -0.9179 C   0  0  0  0  0  0  0  0  0  0  0  0
    5.6710   -2.1356   -2.4383 C   0  0  0  0  0  0  0  0  0  0  0  0
    4.7915   -0.9257   -2.7647 C   0  0  0  0  0  0  0  0  0  0  0  0
    3.5187   -1.0796   -2.1336 O   0  0  0  0  0  0  0  0  0  0  0  0
    5.4652    0.3482   -2.2508 C   0  0  0  0  0  0  0  0  0  0  0  0
    4.7235    1.4888   -2.6878 O   0  0  0  0  0  0  0  0  0  0  0  0
    6.9638   -1.9571   -3.0203 O   0  0  0  0  0  0  0  0  0  0  0  0
    6.4683   -1.1071   -0.3989 O   0  0  0  0  0  0  0  0  0  0  0  0
    4.5215   -2.4215    1.1250 O   0  0  0  0  0  0  0  0  0  0  0  0
    4.4598    1.0343    3.5612 O   0  0  0  0  0  0  0  0  0  0  0  0
    4.3821    2.1849    1.0098 O   0  0  0  0  0  0  0  0  0  0  0  0
    3.1336    4.6667    0.6611 O   0  0  0  0  0  0  0  0  0  0  0  0
   -8.1003    0.4907   -3.4893 O   0  0  0  0  0  0  0  0  0  0  0  0
   -4.0053    0.7888   -1.6274 H   0  0  0  0  0  0  0  0  0  0  0  0
   -5.8267   -0.5002   -2.6548 H   0  0  0  0  0  0  0  0  0  0  0  0
   -8.1425    3.0732   -3.0690 H   0  0  0  0  0  0  0  0  0  0  0  0
   -6.3289    4.3775   -2.0474 H   0  0  0  0  0  0  0  0  0  0  0  0
   -4.0631    4.5128   -1.0235 H   0  0  0  0  0  0  0  0  0  0  0  0
   -2.7169    1.7595   -0.8971 H   0  0  0  0  0  0  0  0  0  0  0  0
    0.6892    4.5290    0.0930 H   0  0  0  0  0  0  0  0  0  0  0  0
   -0.0212    4.2554    1.7020 H   0  0  0  0  0  0  0  0  0  0  0  0
    1.9105    2.3443    0.3145 H   0  0  0  0  0  0  0  0  0  0  0  0
    2.3564    4.3714    2.5539 H   0  0  0  0  0  0  0  0  0  0  0  0
    4.6704    3.5257    2.5574 H   0  0  0  0  0  0  0  0  0  0  0  0
    3.0547    2.4588    4.0809 H   0  0  0  0  0  0  0  0  0  0  0  0
    1.8499    0.4189    3.3942 H   0  0  0  0  0  0  0  0  0  0  0  0
    0.2354   -0.0384    2.3225 H   0  0  0  0  0  0  0  0  0  0  0  0
   -3.0239   -3.9247   -0.5954 H   0  0  0  0  0  0  0  0  0  0  0  0
   -3.4560   -1.0664    2.9876 H   0  0  0  0  0  0  0  0  0  0  0  0
   -5.6957   -1.1827    3.9919 H   0  0  0  0  0  0  0  0  0  0  0  0
   -6.8480   -4.1280    1.1122 H   0  0  0  0  0  0  0  0  0  0  0  0
   -4.6142   -4.0174    0.0943 H   0  0  0  0  0  0  0  0  0  0  0  0
   -8.2802   -2.1022    2.7902 H   0  0  0  0  0  0  0  0  0  0  0  0
    2.0514   -3.7722   -1.5689 H   0  0  0  0  0  0  0  0  0  0  0  0
    4.0437   -0.2516   -0.3147 H   0  0  0  0  0  0  0  0  0  0  0  0
    3.9254   -3.2834   -0.6571 H   0  0  0  0  0  0  0  0  0  0  0  0
    6.3857   -3.1545   -0.6769 H   0  0  0  0  0  0  0  0  0  0  0  0
    5.2114   -3.0388   -2.8397 H   0  0  0  0  0  0  0  0  0  0  0  0
    4.6560   -0.8554   -3.8440 H   0  0  0  0  0  0  0  0  0  0  0  0
    5.4945    0.3296   -1.1613 H   0  0  0  0  0  0  0  0  0  0  0  0
    6.4815    0.4045   -2.6407 H   0  0  0  0  0  0  0  0  0  0  0  0
    5.0940    2.3336   -2.3978 H   0  0  0  0  0  0  0  0  0  0  0  0
    7.5762   -2.6856   -2.8490 H   0  0  0  0  0  0  0  0  0  0  0  0
    7.3598   -0.9737   -0.7487 H   0  0  0  0  0  0  0  0  0  0  0  0
    5.0364   -3.1705    1.4552 H   0  0  0  0  0  0  0  0  0  0  0  0
    4.2209    0.3789    4.2309 H   0  0  0  0  0  0  0  0  0  0  0  0
    5.1278    1.6037    1.2132 H   0  0  0  0  0  0  0  0  0  0  0  0
    3.8530    5.2601    0.9171 H   0  0  0  0  0  0  0  0  0  0  0  0
   -8.7438    0.1470   -2.8546 H   0  0  0  0  0  0  0  0  0  0  0  0
  1  2  2  0  0  0  0
  2  3  1  0  0  0  0
  3  4  2  0  0  0  0
  4  5  1  0  0  0  0
  5  6  2  0  0  0  0
  1  6  1  0  0  0  0
  6  7  1  0  0  0  0
  7  8  2  0  0  0  0
  8  9  1  0  0  0  0
  9 10  2  0  0  0  0
  9 11  1  0  0  0  0
 11 12  1  0  0  0  0
 12 13  1  0  0  0  0
 13 14  1  0  0  0  0
 14 15  1  0  0  0  0
 15 16  1  0  0  0  0
 16 17  1  0  0  0  0
 17 18  1  0  0  0  0
 13 18  1  0  0  0  0
 17 19  1  0  0  0  0
 19 20  1  0  0  0  0
 20 21  2  0  0  0  0
 21 22  1  0  0  0  0
 22 23  2  0  0  0  0
 23 24  1  0  0  0  0
 24 25  2  0  0  0  0
 20 25  1  0  0  0  0
 24 26  1  0  0  0  0
 26 27  1  0  0  0  0
 27 28  2  0  0  0  0
 28 29  1  0  0  0  0
 23 29  1  0  0  0  0
 29 30  2  0  0  0  0
 27 31  1  0  0  0  0
 31 32  2  0  0  0  0
 32 33  1  0  0  0  0
 33 34  2  0  0  0  0
 34 35  1  0  0  0  0
 35 36  2  0  0  0  0
 31 36  1  0  0  0  0
 34 37  1  0  0  0  0
 22 38  1  0  0  0  0
 21 39  1  0  0  0  0
 39 40  1  0  0  0  0
 40 41  1  0  0  0  0
 41 42  1  0  0  0  0
 42 43  1  0  0  0  0
 43 44  1  0  0  0  0
 39 44  1  0  0  0  0
 43 45  1  0  0  0  0
 45 46  1  0  0  0  0
 42 47  1  0  0  0  0
 41 48  1  0  0  0  0
 40 49  1  0  0  0  0
 16 50  1  0  0  0  0
 15 51  1  0  0  0  0
 14 52  1  0  0  0  0
  3 53  1  0  0  0  0
  1 54  1  0  0  0  0
  2 55  1  0  0  0  0
  4 56  1  0  0  0  0
  5 57  1  0  0  0  0
  7 58  1  0  0  0  0
  8 59  1  0  0  0  0
 12 60  1  0  0  0  0
 12 61  1  0  0  0  0
 13 62  1  0  0  0  0
 14 63  1  0  0  0  0
 15 64  1  0  0  0  0
 16 65  1  0  0  0  0
 17 66  1  0  0  0  0
 25 67  1  0  0  0  0
 28 68  1  0  0  0  0
 32 69  1  0  0  0  0
 33 70  1  0  0  0  0
 35 71  1  0  0  0  0
 36 72  1  0  0  0  0
 37 73  1  0  0  0  0
 38 74  1  0  0  0  0
 39 75  1  0  0  0  0
 40 76  1  0  0  0  0
 41 77  1  0  0  0  0
 42 78  1  0  0  0  0
 43 79  1  0  0  0  0
 45 80  1  0  0  0  0
 45 81  1  0  0  0  0
 46 82  1  0  0  0  0
 47 83  1  0  0  0  0
 48 84  1  0  0  0  0
 49 85  1  0  0  0  0
 50 86  1  0  0  0  0
 51 87  1  0  0  0  0
 52 88  1  0  0  0  0
 53 89  1  0  0  0  0
M  END
$$$$
