C15H24O
APtclcactv06291803043D 0   0.00000     0.00000
 
 40 40  0  0  0  0  0  0  0  0999 V2000
    3.4178    1.1461   -0.8316 C   0  0  0  0  0  0  0  0  0  0  0  0
    2.2579    1.3857    0.1370 C   0  0  0  0  0  0  0  0  0  0  0  0
    1.1633    2.1902   -0.5671 C   0  0  0  0  0  0  0  0  0  0  0  0
   -0.1816    1.8061   -0.0058 C   0  0  0  0  0  0  0  0  0  0  0  0
   -0.9107    0.9026   -0.6124 C   0  0  0  0  0  0  0  0  0  0  0  0
   -2.2554    0.5180   -0.0512 C   0  0  0  0  0  0  0  0  0  0  0  0
   -2.2374   -0.9589    0.3482 C   0  0  0  0  0  0  0  0  0  0  0  0
   -0.8433   -1.3491    0.7670 C   0  0  0  0  0  0  0  0  0  0  0  0
   -0.0637   -1.9903   -0.0678 C   0  0  0  0  0  0  0  0  0  0  0  0
    1.3303   -2.3802    0.3515 C   0  0  0  0  0  0  0  0  0  0  0  0
    2.2906   -1.2233    0.0680 C   0  0  0  0  0  0  0  0  0  0  0  0
    1.6971    0.0611    0.5867 C   0  0  0  0  0  0  0  0  0  0  0  0
    0.7725    0.0290    1.3628 O   0  0  0  0  0  0  0  0  0  0  0  0
   -0.5605   -2.3375   -1.4476 C   0  0  0  0  0  0  0  0  0  0  0  0
   -2.5587    1.3754    1.1792 C   0  0  0  0  0  0  0  0  0  0  0  0
   -3.3348    0.7466   -1.1111 C   0  0  0  0  0  0  0  0  0  0  0  0
    3.8233    2.1042   -1.1569 H   0  0  0  0  0  0  0  0  0  0  0  0
    4.1975    0.5730   -0.3300 H   0  0  0  0  0  0  0  0  0  0  0  0
    3.0588    0.5905   -1.6979 H   0  0  0  0  0  0  0  0  0  0  0  0
    2.6168    1.9413    1.0033 H   0  0  0  0  0  0  0  0  0  0  0  0
    1.3339    3.2546   -0.4058 H   0  0  0  0  0  0  0  0  0  0  0  0
    1.1855    1.9763   -1.6357 H   0  0  0  0  0  0  0  0  0  0  0  0
   -0.5441    2.2756    0.8968 H   0  0  0  0  0  0  0  0  0  0  0  0
   -0.5483    0.4335   -1.5152 H   0  0  0  0  0  0  0  0  0  0  0  0
   -2.9246   -1.1191    1.1790 H   0  0  0  0  0  0  0  0  0  0  0  0
   -2.5457   -1.5688   -0.5010 H   0  0  0  0  0  0  0  0  0  0  0  0
   -0.4869   -1.0996    1.7555 H   0  0  0  0  0  0  0  0  0  0  0  0
    1.3391   -2.6066    1.4177 H   0  0  0  0  0  0  0  0  0  0  0  0
    1.6458   -3.2599   -0.2094 H   0  0  0  0  0  0  0  0  0  0  0  0
    3.2421   -1.4107    0.5655 H   0  0  0  0  0  0  0  0  0  0  0  0
    2.4526   -1.1407   -1.0067 H   0  0  0  0  0  0  0  0  0  0  0  0
   -0.9059   -1.4328   -1.9477 H   0  0  0  0  0  0  0  0  0  0  0  0
    0.2498   -2.7844   -2.0237 H   0  0  0  0  0  0  0  0  0  0  0  0
   -1.3846   -3.0466   -1.3692 H   0  0  0  0  0  0  0  0  0  0  0  0
   -2.5713    2.4275    0.8946 H   0  0  0  0  0  0  0  0  0  0  0  0
   -3.5313    1.0971    1.5851 H   0  0  0  0  0  0  0  0  0  0  0  0
   -1.7897    1.2123    1.9342 H   0  0  0  0  0  0  0  0  0  0  0  0
   -3.1187    0.1357   -1.9875 H   0  0  0  0  0  0  0  0  0  0  0  0
   -4.3074    0.4684   -0.7051 H   0  0  0  0  0  0  0  0  0  0  0  0
   -3.3474    1.7987   -1.3957 H   0  0  0  0  0  0  0  0  0  0  0  0
  1  2  1  0  0  0  0
  2  3  1  0  0  0  0
  3  4  1  0  0  0  0
  4  5  2  0  0  0  0
  5  6  1  0  0  0  0
  6  7  1  0  0  0  0
  7  8  1  0  0  0  0
  8  9  2  0  0  0  0
  9 10  1  0  0  0  0
 10 11  1  0  0  0  0
 11 12  1  0  0  0  0
  2 12  1  0  0  0  0
 12 13  2  0  0  0  0
  9 14  1  0  0  0  0
  6 15  1  0  0  0  0
  6 16  1  0  0  0  0
  1 17  1  0  0  0  0
  1 18  1  0  0  0  0
  1 19  1  0  0  0  0
  2 20  1  0  0  0  0
  3 21  1  0  0  0  0
  3 22  1  0  0  0  0
  4 23  1  0  0  0  0
  5 24  1  0  0  0  0
  7 25  1  0  0  0  0
  7 26  1  0  0  0  0
  8 27  1  0  0  0  0
 10 28  1  0  0  0  0
 10 29  1  0  0  0  0
 11 30  1  0  0  0  0
 11 31  1  0  0  0  0
 14 32  1  0  0  0  0
 14 33  1  0  0  0  0
 14 34  1  0  0  0  0
 15 35  1  0  0  0  0
 15 36  1  0  0  0  0
 15 37  1  0  0  0  0
 16 38  1  0  0  0  0
 16 39  1  0  0  0  0
 16 40  1  0  0  0  0
M  END
$$$$
