C24H21O13
APtclcactv06281817343D 0   0.00000     0.00000
 
 58 62  0  0  0  0  0  0  0  0999 V2000
   -2.0330   -1.0795   -1.7632 C   0  0  0  0  0  0  0  0  0  0  0  0
   -3.3713   -1.3545   -1.9490 C   0  0  0  0  0  0  0  0  0  0  0  0
   -4.0321   -2.2158   -1.0846 C   0  0  0  0  0  0  0  0  0  0  0  0
   -3.3457   -2.8065   -0.0257 C   0  0  0  0  0  0  0  0  0  0  0  0
   -2.0039   -2.5349    0.1653 C   0  0  0  0  0  0  0  0  0  0  0  0
   -1.3397   -1.6681   -0.7042 C   0  0  0  0  0  0  0  0  0  0  0  0
    0.0963   -1.3742   -0.5041 C   0  0  0  0  0  0  0  0  0  0  0  0
    0.8417   -2.3028   -0.2843 O   0  3  0  0  0  0  0  0  0  0  0  0
    2.0435   -2.2443   -0.0967 C   0  0  0  0  0  0  0  0  0  0  0  0
    2.8328   -3.3748    0.1524 C   0  0  0  0  0  0  0  0  0  0  0  0
    4.1914   -3.2288    0.3563 C   0  0  0  0  0  0  0  0  0  0  0  0
    4.8135   -1.9798    0.3232 C   0  0  0  0  0  0  0  0  0  0  0  0
    4.0672   -0.8450    0.0807 C   0  0  0  0  0  0  0  0  0  0  0  0
    2.6883   -0.9895   -0.1272 C   0  0  0  0  0  0  0  0  0  0  0  0
    1.8737    0.2017   -0.3868 C   0  0  0  0  0  0  0  0  0  0  0  0
    0.5152   -0.0301   -0.5864 C   0  0  0  0  0  0  0  0  0  0  0  0
   -0.3571    0.9804   -0.8370 O   0  0  0  0  0  0  0  0  0  0  0  0
   -0.5480    1.9448    0.2001 C   0  0  0  0  0  0  0  0  0  0  0  0
   -1.3464    3.1311   -0.3466 C   0  0  0  0  0  0  0  0  0  0  0  0
   -2.7298    2.6449   -0.7895 C   0  0  0  0  0  0  0  0  0  0  0  0
   -3.4267    1.9725    0.3974 C   0  0  0  0  0  0  0  0  0  0  0  0
   -2.5479    0.8310    0.9153 C   0  0  0  0  0  0  0  0  0  0  0  0
   -1.2662    1.3464    1.2809 O   0  0  0  0  0  0  0  0  0  0  0  0
   -3.2091    0.1927    2.1385 C   0  0  0  0  0  0  0  0  0  0  0  0
   -2.4492   -0.9449    2.5515 O   0  0  0  0  0  0  0  0  0  0  0  0
   -3.6276    2.9306    1.4384 O   0  0  0  0  0  0  0  0  0  0  0  0
   -3.5084    3.7580   -1.2330 O   0  0  0  0  0  0  0  0  0  0  0  0
   -1.4922    4.1199    0.6748 O   0  0  0  0  0  0  0  0  0  0  0  0
    2.5497    1.4917   -0.4160 C   0  0  0  0  0  0  0  0  0  0  0  0
    3.8939    1.5087   -0.2005 C   0  0  0  0  0  0  0  0  0  0  0  0
    4.6132    0.3904    0.0371 O   0  0  0  0  0  0  0  0  0  0  0  0
    4.5940    2.8032   -0.2262 C   0  0  0  0  0  0  0  0  0  0  0  0
    3.9724    3.8262   -0.4366 O   0  0  0  0  0  0  0  0  0  0  0  0
    5.9250    2.8541   -0.0165 O   0  0  0  0  0  0  0  0  0  0  0  0
    4.9441   -4.3336    0.5966 O   0  0  0  0  0  0  0  0  0  0  0  0
   -3.9959   -3.6499    0.8202 O   0  0  0  0  0  0  0  0  0  0  0  0
   -5.3513   -2.4832   -1.2711 O   0  0  0  0  0  0  0  0  0  0  0  0
   -1.5199   -0.4121   -2.4398 H   0  0  0  0  0  0  0  0  0  0  0  0
   -3.9064   -0.8984   -2.7687 H   0  0  0  0  0  0  0  0  0  0  0  0
   -1.4707   -2.9918    0.9858 H   0  0  0  0  0  0  0  0  0  0  0  0
    2.3813   -4.3554    0.1851 H   0  0  0  0  0  0  0  0  0  0  0  0
    5.8781   -1.9016    0.4876 H   0  0  0  0  0  0  0  0  0  0  0  0
    0.4218    2.2925    0.5562 H   0  0  0  0  0  0  0  0  0  0  0  0
   -0.8214    3.5616   -1.1993 H   0  0  0  0  0  0  0  0  0  0  0  0
   -2.6209    1.9272   -1.6027 H   0  0  0  0  0  0  0  0  0  0  0  0
   -4.3894    1.5744    0.0767 H   0  0  0  0  0  0  0  0  0  0  0  0
   -2.4284    0.0808    0.1336 H   0  0  0  0  0  0  0  0  0  0  0  0
   -3.2473    0.9184    2.9509 H   0  0  0  0  0  0  0  0  0  0  0  0
   -4.2214   -0.1200    1.8827 H   0  0  0  0  0  0  0  0  0  0  0  0
   -2.8111   -1.4003    3.3240 H   0  0  0  0  0  0  0  0  0  0  0  0
   -4.1729    3.6856    1.1783 H   0  0  0  0  0  0  0  0  0  0  0  0
   -3.1219    4.2357   -1.9798 H   0  0  0  0  0  0  0  0  0  0  0  0
   -0.6538    4.4694    1.0065 H   0  0  0  0  0  0  0  0  0  0  0  0
    2.0030    2.4041   -0.6027 H   0  0  0  0  0  0  0  0  0  0  0  0
    6.3405    3.7269   -0.0430 H   0  0  0  0  0  0  0  0  0  0  0  0
    5.3022   -4.7466   -0.2010 H   0  0  0  0  0  0  0  0  0  0  0  0
   -3.9722   -4.5770    0.5464 H   0  0  0  0  0  0  0  0  0  0  0  0
   -5.5214   -3.2436   -1.8437 H   0  0  0  0  0  0  0  0  0  0  0  0
  1  2  2  0  0  0  0
  2  3  1  0  0  0  0
  3  4  2  0  0  0  0
  4  5  1  0  0  0  0
  5  6  2  0  0  0  0
  1  6  1  0  0  0  0
  6  7  1  0  0  0  0
  7  8  2  0  0  0  0
  8  9  1  0  0  0  0
  9 10  2  0  0  0  0
 10 11  1  0  0  0  0
 11 12  2  0  0  0  0
 12 13  1  0  0  0  0
 13 14  2  0  0  0  0
  9 14  1  0  0  0  0
 14 15  1  0  0  0  0
 15 16  2  0  0  0  0
  7 16  1  0  0  0  0
 16 17  1  0  0  0  0
 17 18  1  0  0  0  0
 18 19  1  0  0  0  0
 19 20  1  0  0  0  0
 20 21  1  0  0  0  0
 21 22  1  0  0  0  0
 22 23  1  0  0  0  0
 18 23  1  0  0  0  0
 22 24  1  0  0  0  0
 24 25  1  0  0  0  0
 21 26  1  0  0  0  0
 20 27  1  0  0  0  0
 19 28  1  0  0  0  0
 15 29  1  0  0  0  0
 29 30  2  0  0  0  0
 30 31  1  0  0  0  0
 13 31  1  0  0  0  0
 30 32  1  0  0  0  0
 32 33  2  0  0  0  0
 32 34  1  0  0  0  0
 11 35  1  0  0  0  0
  4 36  1  0  0  0  0
  3 37  1  0  0  0  0
  1 38  1  0  0  0  0
  2 39  1  0  0  0  0
  5 40  1  0  0  0  0
 10 41  1  0  0  0  0
 12 42  1  0  0  0  0
 18 43  1  0  0  0  0
 19 44  1  0  0  0  0
 20 45  1  0  0  0  0
 21 46  1  0  0  0  0
 22 47  1  0  0  0  0
 24 48  1  0  0  0  0
 24 49  1  0  0  0  0
 25 50  1  0  0  0  0
 26 51  1  0  0  0  0
 27 52  1  0  0  0  0
 28 53  1  0  0  0  0
 29 54  1  0  0  0  0
 34 55  1  0  0  0  0
 35 56  1  0  0  0  0
 36 57  1  0  0  0  0
 37 58  1  0  0  0  0
M  CHG  1   8   1
M  END
$$$$
