C31H35O19
APtclcactv06291803043D 0   0.00000     0.00000
 
 85 89  0  0  0  0  0  0  0  0999 V2000
    5.4973   -3.2494   -3.0404 C   0  0  0  0  0  0  0  0  0  0  0  0
    6.4032   -2.5094   -2.2196 O   0  0  0  0  0  0  0  0  0  0  0  0
    5.8839   -1.9021   -1.1191 C   0  0  0  0  0  0  0  0  0  0  0  0
    6.7111   -1.1642   -0.2748 C   0  0  0  0  0  0  0  0  0  0  0  0
    6.1840   -0.5440    0.8490 C   0  0  0  0  0  0  0  0  0  0  0  0
    4.8397   -0.6550    1.1346 C   0  0  0  0  0  0  0  0  0  0  0  0
    4.0057   -1.3924    0.2926 C   0  0  0  0  0  0  0  0  0  0  0  0
    4.5344   -2.0122   -0.8409 C   0  0  0  0  0  0  0  0  0  0  0  0
    2.5634   -1.5127    0.5982 C   0  0  0  0  0  0  0  0  0  0  0  0
    1.8802   -0.3823    1.0819 C   0  0  0  0  0  0  0  0  0  0  0  0
    0.5369   -0.5119    1.3610 C   0  0  0  0  0  0  0  0  0  0  0  0
   -0.0123   -1.7895    1.1251 C   0  0  0  0  0  0  0  0  0  0  0  0
   -1.3712   -2.0622    1.3664 C   0  0  0  0  0  0  0  0  0  0  0  0
   -1.8624   -3.3147    1.1237 C   0  0  0  0  0  0  0  0  0  0  0  0
   -1.0267   -4.3230    0.6395 C   0  0  0  0  0  0  0  0  0  0  0  0
    0.3077   -4.0824    0.3948 C   0  0  0  0  0  0  0  0  0  0  0  0
    0.8433   -2.8074    0.6330 C   0  0  0  0  0  0  0  0  0  0  0  0
    2.0194   -2.5777    0.4170 O   0  3  0  0  0  0  0  0  0  0  0  0
   -1.5367   -5.5600    0.4067 O   0  0  0  0  0  0  0  0  0  0  0  0
   -2.1900   -1.0874    1.8379 O   0  0  0  0  0  0  0  0  0  0  0  0
   -3.5573   -1.4390    2.0586 C   0  0  0  0  0  0  0  0  0  0  0  0
   -4.2903   -0.2594    2.7027 C   0  0  0  0  0  0  0  0  0  0  0  0
   -4.2663    0.9330    1.7415 C   0  0  0  0  0  0  0  0  0  0  0  0
   -4.8967    0.5140    0.4098 C   0  0  0  0  0  0  0  0  0  0  0  0
   -4.1403   -0.6955   -0.1458 C   0  0  0  0  0  0  0  0  0  0  0  0
   -4.1750   -1.7574    0.8099 O   0  0  0  0  0  0  0  0  0  0  0  0
   -4.8013   -1.1574   -1.4460 C   0  0  0  0  0  0  0  0  0  0  0  0
   -4.0286   -2.2108   -2.0251 O   0  0  0  0  0  0  0  0  0  0  0  0
   -6.2668    0.1656    0.6187 O   0  0  0  0  0  0  0  0  0  0  0  0
   -5.0113    2.0152    2.3035 O   0  0  0  0  0  0  0  0  0  0  0  0
   -5.6443   -0.6282    2.9723 O   0  0  0  0  0  0  0  0  0  0  0  0
    2.5246    0.8000    1.2686 O   0  0  0  0  0  0  0  0  0  0  0  0
    1.7466    1.8917    1.7636 C   0  0  0  0  0  0  0  0  0  0  0  0
    2.6601    3.0918    2.0262 C   0  0  0  0  0  0  0  0  0  0  0  0
    3.2982    3.5364    0.7066 C   0  0  0  0  0  0  0  0  0  0  0  0
    2.1901    3.8588   -0.3006 C   0  0  0  0  0  0  0  0  0  0  0  0
    1.2947    2.6290   -0.4734 C   0  0  0  0  0  0  0  0  0  0  0  0
    0.7582    2.2500    0.7957 O   0  0  0  0  0  0  0  0  0  0  0  0
    0.1501    2.9620   -1.4324 C   0  0  0  0  0  0  0  0  0  0  0  0
   -0.6303    1.7647   -1.6889 O   0  0  0  0  0  0  0  0  0  0  0  0
   -1.6796    1.8869   -2.5170 C   0  0  0  0  0  0  0  0  0  0  0  0
   -1.9375    2.9589   -3.0112 O   0  0  0  0  0  0  0  0  0  0  0  0
   -2.5360    0.6872   -2.8303 C   0  0  0  0  0  0  0  0  0  0  0  0
   -3.6378    1.0897   -3.7763 C   0  0  0  0  0  0  0  0  0  0  0  0
   -3.7193    2.2335   -4.1571 O   0  0  0  0  0  0  0  0  0  0  0  0
   -4.5287    0.1776   -4.1960 O   0  0  0  0  0  0  0  0  0  0  0  0
    1.4094    4.9538    0.1826 O   0  0  0  0  0  0  0  0  0  0  0  0
    4.0953    4.7013    0.9295 O   0  0  0  0  0  0  0  0  0  0  0  0
    1.8919    4.1665    2.5711 O   0  0  0  0  0  0  0  0  0  0  0  0
    8.0366   -1.0521   -0.5523 O   0  0  0  0  0  0  0  0  0  0  0  0
    6.0393   -3.6814   -3.8817 H   0  0  0  0  0  0  0  0  0  0  0  0
    5.0432   -4.0471   -2.4526 H   0  0  0  0  0  0  0  0  0  0  0  0
    4.7184   -2.5842   -3.4131 H   0  0  0  0  0  0  0  0  0  0  0  0
    6.8282    0.0266    1.5016 H   0  0  0  0  0  0  0  0  0  0  0  0
    4.4320   -0.1716    2.0102 H   0  0  0  0  0  0  0  0  0  0  0  0
    3.8920   -2.5832   -1.4948 H   0  0  0  0  0  0  0  0  0  0  0  0
   -0.0556    0.3098    1.7355 H   0  0  0  0  0  0  0  0  0  0  0  0
   -2.9053   -3.5261    1.3082 H   0  0  0  0  0  0  0  0  0  0  0  0
    0.9403   -4.8735    0.0200 H   0  0  0  0  0  0  0  0  0  0  0  0
   -1.8793   -5.6819   -0.4893 H   0  0  0  0  0  0  0  0  0  0  0  0
   -3.6081   -2.3037    2.7203 H   0  0  0  0  0  0  0  0  0  0  0  0
   -3.7938    0.0133    3.6339 H   0  0  0  0  0  0  0  0  0  0  0  0
   -3.2357    1.2460    1.5745 H   0  0  0  0  0  0  0  0  0  0  0  0
   -4.8339    1.3399   -0.2988 H   0  0  0  0  0  0  0  0  0  0  0  0
   -3.1050   -0.4175   -0.3429 H   0  0  0  0  0  0  0  0  0  0  0  0
   -5.8073   -1.5193   -1.2336 H   0  0  0  0  0  0  0  0  0  0  0  0
   -4.8556   -0.3212   -2.1431 H   0  0  0  0  0  0  0  0  0  0  0  0
   -4.3896   -2.5534   -2.8542 H   0  0  0  0  0  0  0  0  0  0  0  0
   -6.8056    0.8852    0.9751 H   0  0  0  0  0  0  0  0  0  0  0  0
   -4.6711    2.3275    3.1531 H   0  0  0  0  0  0  0  0  0  0  0  0
   -5.7348   -1.3816    3.5719 H   0  0  0  0  0  0  0  0  0  0  0  0
    1.2568    1.5977    2.6919 H   0  0  0  0  0  0  0  0  0  0  0  0
    3.4414    2.8075    2.7311 H   0  0  0  0  0  0  0  0  0  0  0  0
    3.9241    2.7341    0.3157 H   0  0  0  0  0  0  0  0  0  0  0  0
    2.6353    4.1229   -1.2598 H   0  0  0  0  0  0  0  0  0  0  0  0
    1.8822    1.8059   -0.8802 H   0  0  0  0  0  0  0  0  0  0  0  0
   -0.4890    3.7233   -0.9850 H   0  0  0  0  0  0  0  0  0  0  0  0
    0.5594    3.3368   -2.3706 H   0  0  0  0  0  0  0  0  0  0  0  0
   -1.9230   -0.0856   -3.2942 H   0  0  0  0  0  0  0  0  0  0  0  0
   -2.9715    0.3010   -1.9087 H   0  0  0  0  0  0  0  0  0  0  0  0
   -5.2173    0.4831   -4.8023 H   0  0  0  0  0  0  0  0  0  0  0  0
    1.9147    5.7667    0.3201 H   0  0  0  0  0  0  0  0  0  0  0  0
    4.8137    4.5709    1.5635 H   0  0  0  0  0  0  0  0  0  0  0  0
    1.4544    3.9532    3.4067 H   0  0  0  0  0  0  0  0  0  0  0  0
    8.2590   -0.2935   -1.1093 H   0  0  0  0  0  0  0  0  0  0  0  0
  1  2  1  0  0  0  0
  2  3  1  0  0  0  0
  3  4  2  0  0  0  0
  4  5  1  0  0  0  0
  5  6  2  0  0  0  0
  6  7  1  0  0  0  0
  7  8  2  0  0  0  0
  3  8  1  0  0  0  0
  7  9  1  0  0  0  0
  9 10  2  0  0  0  0
 10 11  1  0  0  0  0
 11 12  2  0  0  0  0
 12 13  1  0  0  0  0
 13 14  2  0  0  0  0
 14 15  1  0  0  0  0
 15 16  2  0  0  0  0
 16 17  1  0  0  0  0
 12 17  1  0  0  0  0
 17 18  2  0  0  0  0
  9 18  1  0  0  0  0
 15 19  1  0  0  0  0
 13 20  1  0  0  0  0
 20 21  1  0  0  0  0
 21 22  1  0  0  0  0
 22 23  1  0  0  0  0
 23 24  1  0  0  0  0
 24 25  1  0  0  0  0
 25 26  1  0  0  0  0
 21 26  1  0  0  0  0
 25 27  1  0  0  0  0
 27 28  1  0  0  0  0
 24 29  1  0  0  0  0
 23 30  1  0  0  0  0
 22 31  1  0  0  0  0
 10 32  1  0  0  0  0
 32 33  1  0  0  0  0
 33 34  1  0  0  0  0
 34 35  1  0  0  0  0
 35 36  1  0  0  0  0
 36 37  1  0  0  0  0
 37 38  1  0  0  0  0
 33 38  1  0  0  0  0
 37 39  1  0  0  0  0
 39 40  1  0  0  0  0
 40 41  1  0  0  0  0
 41 42  2  0  0  0  0
 41 43  1  0  0  0  0
 43 44  1  0  0  0  0
 44 45  2  0  0  0  0
 44 46  1  0  0  0  0
 36 47  1  0  0  0  0
 35 48  1  0  0  0  0
 34 49  1  0  0  0  0
  4 50  1  0  0  0  0
  1 51  1  0  0  0  0
  1 52  1  0  0  0  0
  1 53  1  0  0  0  0
  5 54  1  0  0  0  0
  6 55  1  0  0  0  0
  8 56  1  0  0  0  0
 11 57  1  0  0  0  0
 14 58  1  0  0  0  0
 16 59  1  0  0  0  0
 19 60  1  0  0  0  0
 21 61  1  0  0  0  0
 22 62  1  0  0  0  0
 23 63  1  0  0  0  0
 24 64  1  0  0  0  0
 25 65  1  0  0  0  0
 27 66  1  0  0  0  0
 27 67  1  0  0  0  0
 28 68  1  0  0  0  0
 29 69  1  0  0  0  0
 30 70  1  0  0  0  0
 31 71  1  0  0  0  0
 33 72  1  0  0  0  0
 34 73  1  0  0  0  0
 35 74  1  0  0  0  0
 36 75  1  0  0  0  0
 37 76  1  0  0  0  0
 39 77  1  0  0  0  0
 39 78  1  0  0  0  0
 43 79  1  0  0  0  0
 43 80  1  0  0  0  0
 46 81  1  0  0  0  0
 47 82  1  0  0  0  0
 48 83  1  0  0  0  0
 49 84  1  0  0  0  0
 50 85  1  0  0  0  0
M  CHG  1  18   1
M  END
$$$$
