C26H28O15
APtclcactv06281817443D 0   0.00000     0.00000
 
 69 73  0  0  0  0  0  0  0  0999 V2000
   -6.4964   -1.5426   -1.1934 C   0  0  0  0  0  0  0  0  0  0  0  0
   -5.8036   -2.9152   -1.0442 C   0  0  0  0  0  0  0  0  0  0  0  0
   -4.3688   -2.5642   -0.5909 C   0  0  0  0  0  0  0  0  0  0  0  0
   -4.3645   -1.0210   -0.5199 C   0  0  0  0  0  0  0  0  0  0  0  0
   -5.7493   -0.6564   -0.3318 O   0  0  0  0  0  0  0  0  0  0  0  0
   -3.5781   -0.5761    0.5872 O   0  0  0  0  0  0  0  0  0  0  0  0
   -3.4280    0.8431    0.6605 C   0  0  0  0  0  0  0  0  0  0  0  0
   -3.2750    1.2667    2.1246 C   0  0  0  0  0  0  0  0  0  0  0  0
   -3.0371    2.7787    2.1849 C   0  0  0  0  0  0  0  0  0  0  0  0
   -1.8040    3.1272    1.3473 C   0  0  0  0  0  0  0  0  0  0  0  0
   -1.9994    2.6786    0.0047 O   0  0  0  0  0  0  0  0  0  0  0  0
   -2.1798    1.2664   -0.1182 C   0  0  0  0  0  0  0  0  0  0  0  0
   -1.0364    0.5921    0.4111 O   0  0  0  0  0  0  0  0  0  0  0  0
    0.1426    0.7775   -0.2357 C   0  0  0  0  0  0  0  0  0  0  0  0
    0.1904    1.5953   -1.3591 C   0  0  0  0  0  0  0  0  0  0  0  0
    1.3863    1.7914   -2.0254 C   0  0  0  0  0  0  0  0  0  0  0  0
    2.5465    1.1606   -1.5598 C   0  0  0  0  0  0  0  0  0  0  0  0
    2.4953    0.3343   -0.4237 C   0  0  0  0  0  0  0  0  0  0  0  0
    1.2887    0.1540    0.2337 C   0  0  0  0  0  0  0  0  0  0  0  0
    3.6191   -0.2705    0.0165 O   0  0  0  0  0  0  0  0  0  0  0  0
    4.8040   -0.1140   -0.5949 C   0  0  0  0  0  0  0  0  0  0  0  0
    4.9595    0.6635   -1.7001 C   0  0  0  0  0  0  0  0  0  0  0  0
    3.8405    1.3415   -2.2392 C   0  0  0  0  0  0  0  0  0  0  0  0
    3.9435    2.0472   -3.2296 O   0  0  0  0  0  0  0  0  0  0  0  0
    5.9825   -0.8116   -0.0469 C   0  0  0  0  0  0  0  0  0  0  0  0
    5.8547   -1.6173    1.0880 C   0  0  0  0  0  0  0  0  0  0  0  0
    6.9616   -2.2688    1.5969 C   0  0  0  0  0  0  0  0  0  0  0  0
    8.2023   -2.1215    0.9791 C   0  0  0  0  0  0  0  0  0  0  0  0
    8.3294   -1.3214   -0.1481 C   0  0  0  0  0  0  0  0  0  0  0  0
    7.2284   -0.6731   -0.6646 C   0  0  0  0  0  0  0  0  0  0  0  0
    9.2898   -2.7622    1.4814 O   0  0  0  0  0  0  0  0  0  0  0  0
    6.8407   -3.0536    2.7011 O   0  0  0  0  0  0  0  0  0  0  0  0
    1.4350    2.5889   -3.1224 O   0  0  0  0  0  0  0  0  0  0  0  0
   -1.5947    4.6428    1.3535 C   0  0  0  0  0  0  0  0  0  0  0  0
   -0.3801    4.9588    0.6701 O   0  0  0  0  0  0  0  0  0  0  0  0
   -4.1779    3.4628    1.6629 O   0  0  0  0  0  0  0  0  0  0  0  0
   -4.4663    0.9411    2.8434 O   0  0  0  0  0  0  0  0  0  0  0  0
   -4.0986   -3.1253    0.6952 O   0  0  0  0  0  0  0  0  0  0  0  0
   -6.5100   -3.7596    0.0183 C   0  0  0  0  0  0  0  0  0  0  0  0
   -7.8617   -3.9945   -0.3812 O   0  0  0  0  0  0  0  0  0  0  0  0
   -5.7789   -3.6025   -2.2968 O   0  0  0  0  0  0  0  0  0  0  0  0
   -6.4430   -1.2010   -2.2272 H   0  0  0  0  0  0  0  0  0  0  0  0
   -7.5344   -1.6039   -0.8663 H   0  0  0  0  0  0  0  0  0  0  0  0
   -3.6406   -2.9149   -1.3223 H   0  0  0  0  0  0  0  0  0  0  0  0
   -3.9841   -0.5994   -1.4504 H   0  0  0  0  0  0  0  0  0  0  0  0
   -4.3067    1.3249    0.2318 H   0  0  0  0  0  0  0  0  0  0  0  0
   -2.4262    0.7460    2.5680 H   0  0  0  0  0  0  0  0  0  0  0  0
   -2.8720    3.0804    3.2192 H   0  0  0  0  0  0  0  0  0  0  0  0
   -0.9269    2.6372    1.7702 H   0  0  0  0  0  0  0  0  0  0  0  0
   -2.3014    1.0056   -1.1696 H   0  0  0  0  0  0  0  0  0  0  0  0
   -0.7086    2.0782   -1.7126 H   0  0  0  0  0  0  0  0  0  0  0  0
    1.2394   -0.4789    1.1074 H   0  0  0  0  0  0  0  0  0  0  0  0
    5.9304    0.7636   -2.1623 H   0  0  0  0  0  0  0  0  0  0  0  0
    4.8929   -1.7300    1.5662 H   0  0  0  0  0  0  0  0  0  0  0  0
    9.2927   -1.2096   -0.6236 H   0  0  0  0  0  0  0  0  0  0  0  0
    7.3301   -0.0512   -1.5417 H   0  0  0  0  0  0  0  0  0  0  0  0
    9.4314   -3.6449    1.1128 H   0  0  0  0  0  0  0  0  0  0  0  0
    6.6320   -3.9774    2.5061 H   0  0  0  0  0  0  0  0  0  0  0  0
    1.6214    3.5172   -2.9258 H   0  0  0  0  0  0  0  0  0  0  0  0
   -2.4314    5.1272    0.8502 H   0  0  0  0  0  0  0  0  0  0  0  0
   -1.5353    4.9972    2.3826 H   0  0  0  0  0  0  0  0  0  0  0  0
   -0.1831    5.9048    0.6352 H   0  0  0  0  0  0  0  0  0  0  0  0
   -4.0963    4.4263    1.6706 H   0  0  0  0  0  0  0  0  0  0  0  0
   -4.4392    1.1822    3.7795 H   0  0  0  0  0  0  0  0  0  0  0  0
   -3.2109   -2.9357    1.0285 H   0  0  0  0  0  0  0  0  0  0  0  0
   -5.9926   -4.7127    0.1280 H   0  0  0  0  0  0  0  0  0  0  0  0
   -6.4995   -3.2288    0.9703 H   0  0  0  0  0  0  0  0  0  0  0  0
   -8.3709   -4.5250    0.2468 H   0  0  0  0  0  0  0  0  0  0  0  0
   -6.6554   -3.7942   -2.6576 H   0  0  0  0  0  0  0  0  0  0  0  0
  1  2  1  0  0  0  0
  2  3  1  0  0  0  0
  3  4  1  0  0  0  0
  4  5  1  0  0  0  0
  1  5  1  0  0  0  0
  4  6  1  0  0  0  0
  6  7  1  0  0  0  0
  7  8  1  0  0  0  0
  8  9  1  0  0  0  0
  9 10  1  0  0  0  0
 10 11  1  0  0  0  0
 11 12  1  0  0  0  0
  7 12  1  0  0  0  0
 12 13  1  0  0  0  0
 13 14  1  0  0  0  0
 14 15  2  0  0  0  0
 15 16  1  0  0  0  0
 16 17  2  0  0  0  0
 17 18  1  0  0  0  0
 18 19  2  0  0  0  0
 14 19  1  0  0  0  0
 18 20  1  0  0  0  0
 20 21  1  0  0  0  0
 21 22  2  0  0  0  0
 22 23  1  0  0  0  0
 17 23  1  0  0  0  0
 23 24  2  0  0  0  0
 21 25  1  0  0  0  0
 25 26  2  0  0  0  0
 26 27  1  0  0  0  0
 27 28  2  0  0  0  0
 28 29  1  0  0  0  0
 29 30  2  0  0  0  0
 25 30  1  0  0  0  0
 28 31  1  0  0  0  0
 27 32  1  0  0  0  0
 16 33  1  0  0  0  0
 10 34  1  0  0  0  0
 34 35  1  0  0  0  0
  9 36  1  0  0  0  0
  8 37  1  0  0  0  0
  3 38  1  0  0  0  0
  2 39  1  0  0  0  0
 39 40  1  0  0  0  0
  2 41  1  0  0  0  0
  1 42  1  0  0  0  0
  1 43  1  0  0  0  0
  3 44  1  0  0  0  0
  4 45  1  0  0  0  0
  7 46  1  0  0  0  0
  8 47  1  0  0  0  0
  9 48  1  0  0  0  0
 10 49  1  0  0  0  0
 12 50  1  0  0  0  0
 15 51  1  0  0  0  0
 19 52  1  0  0  0  0
 22 53  1  0  0  0  0
 26 54  1  0  0  0  0
 29 55  1  0  0  0  0
 30 56  1  0  0  0  0
 31 57  1  0  0  0  0
 32 58  1  0  0  0  0
 33 59  1  0  0  0  0
 34 60  1  0  0  0  0
 34 61  1  0  0  0  0
 35 62  1  0  0  0  0
 36 63  1  0  0  0  0
 37 64  1  0  0  0  0
 38 65  1  0  0  0  0
 39 66  1  0  0  0  0
 39 67  1  0  0  0  0
 40 68  1  0  0  0  0
 41 69  1  0  0  0  0
M  END
$$$$
