C19H12O6
APtclcactv06211806343D 0   0.00000     0.00000
 
 37 41  0  0  0  0  0  0  0  0999 V2000
   -2.5056    3.1613   -1.5783 C   0  0  0  0  0  0  0  0  0  0  0  0
   -1.7294    2.1358   -0.9556 O   0  0  0  0  0  0  0  0  0  0  0  0
   -2.3958    1.0303   -0.5296 C   0  0  0  0  0  0  0  0  0  0  0  0
   -3.7651    0.9350   -0.7071 C   0  0  0  0  0  0  0  0  0  0  0  0
   -4.4471   -0.1917   -0.2734 C   0  0  0  0  0  0  0  0  0  0  0  0
   -3.7554   -1.2333    0.3434 C   0  0  0  0  0  0  0  0  0  0  0  0
   -2.3872   -1.1454    0.5228 C   0  0  0  0  0  0  0  0  0  0  0  0
   -1.6977   -0.0156    0.0837 C   0  0  0  0  0  0  0  0  0  0  0  0
   -0.2321    0.0808    0.2742 C   0  0  0  0  0  0  0  0  0  0  0  0
    0.6412   -0.6371   -0.5086 C   0  0  0  0  0  0  0  0  0  0  0  0
    2.0729   -0.4708   -0.2423 C   0  0  0  0  0  0  0  0  0  0  0  0
    2.4847    0.1689    0.9465 C   0  0  0  0  0  0  0  0  0  0  0  0
    3.8313    0.3392    1.2118 C   0  0  0  0  0  0  0  0  0  0  0  0
    4.7816   -0.1207    0.3115 C   0  0  0  0  0  0  0  0  0  0  0  0
    4.3723   -0.7622   -0.8752 C   0  0  0  0  0  0  0  0  0  0  0  0
    3.0236   -0.9374   -1.1520 C   0  0  0  0  0  0  0  0  0  0  0  0
    5.6140   -1.1127   -1.5791 C   0  0  0  0  0  0  0  0  0  0  0  0
    6.6166   -0.6790   -0.8053 C   0  0  0  0  0  0  0  0  0  0  0  0
    6.1303   -0.0960    0.3049 O   0  0  0  0  0  0  0  0  0  0  0  0
    1.5533    0.6115    1.8275 O   0  0  0  0  0  0  0  0  0  0  0  0
    0.3521    0.9544    1.3062 C   0  0  0  0  0  0  0  0  0  0  0  0
   -0.2311    1.9529    1.6861 O   0  0  0  0  0  0  0  0  0  0  0  0
   -4.6477   -2.2141    0.6728 O   0  0  0  0  0  0  0  0  0  0  0  0
   -5.8232   -1.9436   -0.1133 C   0  0  0  0  0  0  0  0  0  0  0  0
   -5.7709   -0.5211   -0.3292 O   0  0  0  0  0  0  0  0  0  0  0  0
   -1.8531    3.9844   -1.8699 H   0  0  0  0  0  0  0  0  0  0  0  0
   -2.9985    2.7576   -2.4627 H   0  0  0  0  0  0  0  0  0  0  0  0
   -3.2573    3.5244   -0.8774 H   0  0  0  0  0  0  0  0  0  0  0  0
   -4.3038    1.7404   -1.1842 H   0  0  0  0  0  0  0  0  0  0  0  0
   -1.8522   -1.9526    1.0009 H   0  0  0  0  0  0  0  0  0  0  0  0
    0.2868   -1.2964   -1.2871 H   0  0  0  0  0  0  0  0  0  0  0  0
    4.1437    0.8312    2.1211 H   0  0  0  0  0  0  0  0  0  0  0  0
    2.7128   -1.4294   -2.0618 H   0  0  0  0  0  0  0  0  0  0  0  0
    5.7002   -1.6188   -2.5293 H   0  0  0  0  0  0  0  0  0  0  0  0
    7.6659   -0.7827   -1.0389 H   0  0  0  0  0  0  0  0  0  0  0  0
   -5.7799   -2.4769   -1.0630 H   0  0  0  0  0  0  0  0  0  0  0  0
   -6.7235   -2.2144    0.4383 H   0  0  0  0  0  0  0  0  0  0  0  0
  1  2  1  0  0  0  0
  2  3  1  0  0  0  0
  3  4  2  0  0  0  0
  4  5  1  0  0  0  0
  5  6  2  0  0  0  0
  6  7  1  0  0  0  0
  7  8  2  0  0  0  0
  3  8  1  0  0  0  0
  8  9  1  0  0  0  0
  9 10  2  0  0  0  0
 10 11  1  0  0  0  0
 11 12  2  0  0  0  0
 12 13  1  0  0  0  0
 13 14  2  0  0  0  0
 14 15  1  0  0  0  0
 15 16  2  0  0  0  0
 11 16  1  0  0  0  0
 15 17  1  0  0  0  0
 17 18  2  0  0  0  0
 18 19  1  0  0  0  0
 14 19  1  0  0  0  0
 12 20  1  0  0  0  0
 20 21  1  0  0  0  0
  9 21  1  0  0  0  0
 21 22  2  0  0  0  0
  6 23  1  0  0  0  0
 23 24  1  0  0  0  0
 24 25  1  0  0  0  0
  5 25  1  0  0  0  0
  1 26  1  0  0  0  0
  1 27  1  0  0  0  0
  1 28  1  0  0  0  0
  4 29  1  0  0  0  0
  7 30  1  0  0  0  0
 10 31  1  0  0  0  0
 13 32  1  0  0  0  0
 16 33  1  0  0  0  0
 17 34  1  0  0  0  0
 18 35  1  0  0  0  0
 24 36  1  0  0  0  0
 24 37  1  0  0  0  0
M  END
$$$$
