C15H24
APtclcactv06211804453D 0   0.00000     0.00000
 
 39 40  0  0  0  0  0  0  0  0999 V2000
    1.4766    2.8216   -0.1097 C   0  0  0  0  0  0  0  0  0  0  0  0
    1.7710    1.3441   -0.1494 C   0  0  0  0  0  0  0  0  0  0  0  0
    2.9595    0.9404    0.1805 C   0  0  0  0  0  0  0  0  0  0  0  0
    3.3955   -0.4940    0.2074 C   0  0  0  0  0  0  0  0  0  0  0  0
    2.3929   -1.3827   -0.5350 C   0  0  0  0  0  0  0  0  0  0  0  0
    0.9861   -1.0048   -0.0701 C   0  0  0  0  0  0  0  0  0  0  0  0
    0.6780    0.4091   -0.5618 C   0  0  0  0  0  0  0  0  0  0  0  0
   -0.6830    0.8400   -0.0215 C   0  0  0  0  0  0  0  0  0  0  0  0
   -1.7519   -0.1187   -0.5571 C   0  0  0  0  0  0  0  0  0  0  0  0
   -1.4397   -1.5497   -0.1196 C   0  0  0  0  0  0  0  0  0  0  0  0
   -0.0594   -1.9661   -0.6309 C   0  0  0  0  0  0  0  0  0  0  0  0
   -3.1005    0.2855   -0.0194 C   0  0  0  0  0  0  0  0  0  0  0  0
   -4.0624    0.6164   -0.8449 C   0  0  0  0  0  0  0  0  0  0  0  0
   -3.3425    0.3090    1.4678 C   0  0  0  0  0  0  0  0  0  0  0  0
    0.9309   -1.0301    1.4587 C   0  0  0  0  0  0  0  0  0  0  0  0
    2.3674    3.3611    0.2120 H   0  0  0  0  0  0  0  0  0  0  0  0
    1.1854    3.1609   -1.1037 H   0  0  0  0  0  0  0  0  0  0  0  0
    0.6639    3.0113    0.5915 H   0  0  0  0  0  0  0  0  0  0  0  0
    3.6861    1.6909    0.4549 H   0  0  0  0  0  0  0  0  0  0  0  0
    4.3723   -0.5808   -0.2684 H   0  0  0  0  0  0  0  0  0  0  0  0
    3.4711   -0.8264    1.2427 H   0  0  0  0  0  0  0  0  0  0  0  0
    2.4817   -1.2197   -1.6091 H   0  0  0  0  0  0  0  0  0  0  0  0
    2.5879   -2.4299   -0.3039 H   0  0  0  0  0  0  0  0  0  0  0  0
    0.6243    0.3987   -1.6504 H   0  0  0  0  0  0  0  0  0  0  0  0
   -0.6721    0.8034    1.0678 H   0  0  0  0  0  0  0  0  0  0  0  0
   -0.9032    1.8548   -0.3530 H   0  0  0  0  0  0  0  0  0  0  0  0
   -1.7692   -0.0691   -1.6459 H   0  0  0  0  0  0  0  0  0  0  0  0
   -1.4529   -1.6059    0.9689 H   0  0  0  0  0  0  0  0  0  0  0  0
   -2.1946   -2.2241   -0.5237 H   0  0  0  0  0  0  0  0  0  0  0  0
   -0.0445   -1.9223   -1.7199 H   0  0  0  0  0  0  0  0  0  0  0  0
    0.1618   -2.9811   -0.3007 H   0  0  0  0  0  0  0  0  0  0  0  0
   -5.0288    0.9060   -0.4595 H   0  0  0  0  0  0  0  0  0  0  0  0
   -3.8890    0.5995   -1.9107 H   0  0  0  0  0  0  0  0  0  0  0  0
   -2.4342    0.0056    1.9886 H   0  0  0  0  0  0  0  0  0  0  0  0
   -3.6178    1.3178    1.7752 H   0  0  0  0  0  0  0  0  0  0  0  0
   -4.1504   -0.3796    1.7154 H   0  0  0  0  0  0  0  0  0  0  0  0
    1.6504   -0.3165    1.8601 H   0  0  0  0  0  0  0  0  0  0  0  0
   -0.0718   -0.7608    1.7905 H   0  0  0  0  0  0  0  0  0  0  0  0
    1.1747   -2.0311    1.8145 H   0  0  0  0  0  0  0  0  0  0  0  0
  1  2  1  0  0  0  0
  2  3  2  0  0  0  0
  3  4  1  0  0  0  0
  4  5  1  0  0  0  0
  5  6  1  0  0  0  0
  6  7  1  0  0  0  0
  2  7  1  0  0  0  0
  7  8  1  0  0  0  0
  8  9  1  0  0  0  0
  9 10  1  0  0  0  0
 10 11  1  0  0  0  0
  6 11  1  0  0  0  0
  9 12  1  0  0  0  0
 12 13  2  0  0  0  0
 12 14  1  0  0  0  0
  6 15  1  0  0  0  0
  1 16  1  0  0  0  0
  1 17  1  0  0  0  0
  1 18  1  0  0  0  0
  3 19  1  0  0  0  0
  4 20  1  0  0  0  0
  4 21  1  0  0  0  0
  5 22  1  0  0  0  0
  5 23  1  0  0  0  0
  7 24  1  0  0  0  0
  8 25  1  0  0  0  0
  8 26  1  0  0  0  0
  9 27  1  0  0  0  0
 10 28  1  0  0  0  0
 10 29  1  0  0  0  0
 11 30  1  0  0  0  0
 11 31  1  0  0  0  0
 13 32  1  0  0  0  0
 13 33  1  0  0  0  0
 14 34  1  0  0  0  0
 14 35  1  0  0  0  0
 14 36  1  0  0  0  0
 15 37  1  0  0  0  0
 15 38  1  0  0  0  0
 15 39  1  0  0  0  0
M  END
$$$$
