C13H18O3
APtclcactv06291803043D 0   0.00000     0.00000
 
 34 35  0  0  0  0  0  0  0  0999 V2000
    4.9070    0.1092    1.0514 C   0  0  0  0  0  0  0  0  0  0  0  0
    3.7186    0.0045    0.1307 C   0  0  0  0  0  0  0  0  0  0  0  0
    3.8862   -0.1156   -1.0650 O   0  0  0  0  0  0  0  0  0  0  0  0
    2.3631    0.0477    0.6784 C   0  0  0  0  0  0  0  0  0  0  0  0
    1.3106   -0.0450   -0.1371 C   0  0  0  0  0  0  0  0  0  0  0  0
   -0.0860   -0.0005    0.4273 C   0  0  0  0  0  0  0  0  0  0  0  0
   -0.8916    1.1943   -0.1568 C   0  0  0  0  0  0  0  0  0  0  0  0
   -2.1397    1.3556    0.7340 C   0  0  0  0  0  0  0  0  0  0  0  0
   -2.9324    0.0681    0.6529 C   0  0  0  0  0  0  0  0  0  0  0  0
   -4.1268    0.0910    0.4769 O   0  0  0  0  0  0  0  0  0  0  0  0
   -2.1989   -1.2482    0.7962 C   0  0  0  0  0  0  0  0  0  0  0  0
   -0.9381   -1.1900   -0.0876 C   0  0  0  0  0  0  0  0  0  0  0  0
   -1.3496   -0.8026   -1.4106 O   0  0  0  0  0  0  0  0  0  0  0  0
   -1.3694    0.6257   -1.5132 C   0  0  0  0  0  0  0  0  0  0  0  0
   -0.1615   -2.5082   -0.0725 C   0  0  0  0  0  0  0  0  0  0  0  0
   -0.0689    2.4788   -0.2753 C   0  0  0  0  0  0  0  0  0  0  0  0
    5.1841    1.1567    1.1694 H   0  0  0  0  0  0  0  0  0  0  0  0
    4.6510   -0.3107    2.0242 H   0  0  0  0  0  0  0  0  0  0  0  0
    5.7454   -0.4428    0.6266 H   0  0  0  0  0  0  0  0  0  0  0  0
    2.2139    0.1546    1.7426 H   0  0  0  0  0  0  0  0  0  0  0  0
    1.4599   -0.1519   -1.2013 H   0  0  0  0  0  0  0  0  0  0  0  0
   -0.0678    0.0306    1.5167 H   0  0  0  0  0  0  0  0  0  0  0  0
   -1.8367    1.5386    1.7650 H   0  0  0  0  0  0  0  0  0  0  0  0
   -2.7462    2.1863    0.3734 H   0  0  0  0  0  0  0  0  0  0  0  0
   -1.9125   -1.3989    1.8371 H   0  0  0  0  0  0  0  0  0  0  0  0
   -2.8413   -2.0654    0.4682 H   0  0  0  0  0  0  0  0  0  0  0  0
   -2.3831    0.9679   -1.7216 H   0  0  0  0  0  0  0  0  0  0  0  0
   -0.6971    0.9492   -2.3078 H   0  0  0  0  0  0  0  0  0  0  0  0
   -0.8034   -3.3122   -0.4327 H   0  0  0  0  0  0  0  0  0  0  0  0
    0.7117   -2.4229   -0.7193 H   0  0  0  0  0  0  0  0  0  0  0  0
    0.1603   -2.7286    0.9453 H   0  0  0  0  0  0  0  0  0  0  0  0
    0.7833    2.3052   -0.9324 H   0  0  0  0  0  0  0  0  0  0  0  0
   -0.6913    3.2720   -0.6895 H   0  0  0  0  0  0  0  0  0  0  0  0
    0.2874    2.7744    0.7115 H   0  0  0  0  0  0  0  0  0  0  0  0
  1  2  1  0  0  0  0
  2  3  2  0  0  0  0
  2  4  1  0  0  0  0
  4  5  2  0  0  0  0
  5  6  1  0  0  0  0
  6  7  1  0  0  0  0
  7  8  1  0  0  0  0
  8  9  1  0  0  0  0
  9 10  2  0  0  0  0
  9 11  1  0  0  0  0
 11 12  1  0  0  0  0
  6 12  1  0  0  0  0
 12 13  1  0  0  0  0
 13 14  1  0  0  0  0
  7 14  1  0  0  0  0
 12 15  1  0  0  0  0
  7 16  1  0  0  0  0
  1 17  1  0  0  0  0
  1 18  1  0  0  0  0
  1 19  1  0  0  0  0
  4 20  1  0  0  0  0
  5 21  1  0  0  0  0
  6 22  1  0  0  0  0
  8 23  1  0  0  0  0
  8 24  1  0  0  0  0
 11 25  1  0  0  0  0
 11 26  1  0  0  0  0
 14 27  1  0  0  0  0
 14 28  1  0  0  0  0
 15 29  1  0  0  0  0
 15 30  1  0  0  0  0
 15 31  1  0  0  0  0
 16 32  1  0  0  0  0
 16 33  1  0  0  0  0
 16 34  1  0  0  0  0
M  END
$$$$
