C19H30O5
APtclcactv06291803043D 0   0.00000     0.00000
 
 54 54  0  0  0  0  0  0  0  0999 V2000
    8.8064    2.0664   -0.8316 C   0  0  0  0  0  0  0  0  0  0  0  0
    7.7558    1.1643   -0.1808 C   0  0  0  0  0  0  0  0  0  0  0  0
    6.3636    1.5667   -0.6714 C   0  0  0  0  0  0  0  0  0  0  0  0
    5.3131    0.6646   -0.0207 C   0  0  0  0  0  0  0  0  0  0  0  0
    3.9208    1.0670   -0.5113 C   0  0  0  0  0  0  0  0  0  0  0  0
    2.8703    0.1649    0.1395 C   0  0  0  0  0  0  0  0  0  0  0  0
    1.4718    0.6456   -0.2528 C   0  0  0  0  0  0  0  0  0  0  0  0
    0.4211   -0.1771    0.4956 C   0  0  0  0  0  0  0  0  0  0  0  0
   -0.9713    0.3838    0.2001 C   0  0  0  0  0  0  0  0  0  0  0  0
   -2.0097   -0.3580    1.0441 C   0  0  0  0  0  0  0  0  0  0  0  0
   -3.3812    0.1945    0.7530 C   0  0  0  0  0  0  0  0  0  0  0  0
   -4.1469   -0.3573   -0.2571 C   0  0  0  0  0  0  0  0  0  0  0  0
   -5.4082    0.1496   -0.5260 C   0  0  0  0  0  0  0  0  0  0  0  0
   -5.9011    1.2140    0.2226 C   0  0  0  0  0  0  0  0  0  0  0  0
   -5.1284    1.7624    1.2337 C   0  0  0  0  0  0  0  0  0  0  0  0
   -3.8732    1.2483    1.5005 C   0  0  0  0  0  0  0  0  0  0  0  0
   -7.1382    1.7152   -0.0379 O   0  0  0  0  0  0  0  0  0  0  0  0
   -6.1625   -0.3918   -1.5197 O   0  0  0  0  0  0  0  0  0  0  0  0
   -5.5920   -1.4817   -2.2469 C   0  0  0  0  0  0  0  0  0  0  0  0
    0.4873   -1.5384    0.0659 O   0  0  0  0  0  0  0  0  0  0  0  0
    3.0575   -1.2015   -0.3145 O   0  0  0  0  0  0  0  0  0  0  0  0
    2.7054   -2.1795    0.5347 C   0  0  0  0  0  0  0  0  0  0  0  0
    2.2556   -1.9030    1.6215 O   0  0  0  0  0  0  0  0  0  0  0  0
    2.8710   -3.6224    0.1327 C   0  0  0  0  0  0  0  0  0  0  0  0
    9.7982    1.7797   -0.4821 H   0  0  0  0  0  0  0  0  0  0  0  0
    8.7575    1.9579   -1.9151 H   0  0  0  0  0  0  0  0  0  0  0  0
    8.6118    3.1043   -0.5612 H   0  0  0  0  0  0  0  0  0  0  0  0
    7.9504    0.1265   -0.4512 H   0  0  0  0  0  0  0  0  0  0  0  0
    7.8047    1.2728    0.9027 H   0  0  0  0  0  0  0  0  0  0  0  0
    6.1690    2.6046   -0.4011 H   0  0  0  0  0  0  0  0  0  0  0  0
    6.3148    1.4582   -1.7549 H   0  0  0  0  0  0  0  0  0  0  0  0
    5.5076   -0.3732   -0.2910 H   0  0  0  0  0  0  0  0  0  0  0  0
    5.3619    0.7731    1.0628 H   0  0  0  0  0  0  0  0  0  0  0  0
    3.7263    2.1049   -0.2409 H   0  0  0  0  0  0  0  0  0  0  0  0
    3.8720    0.9585   -1.5948 H   0  0  0  0  0  0  0  0  0  0  0  0
    2.9777    0.2056    1.2234 H   0  0  0  0  0  0  0  0  0  0  0  0
    1.3628    1.6982    0.0085 H   0  0  0  0  0  0  0  0  0  0  0  0
    1.3329    0.5216   -1.3268 H   0  0  0  0  0  0  0  0  0  0  0  0
    0.6141   -0.1245    1.5671 H   0  0  0  0  0  0  0  0  0  0  0  0
   -0.9950    1.4456    0.4456 H   0  0  0  0  0  0  0  0  0  0  0  0
   -1.2000    0.2502   -0.8572 H   0  0  0  0  0  0  0  0  0  0  0  0
   -1.9861   -1.4197    0.7986 H   0  0  0  0  0  0  0  0  0  0  0  0
   -1.7811   -0.2244    2.1015 H   0  0  0  0  0  0  0  0  0  0  0  0
   -3.7619   -1.1831   -0.8369 H   0  0  0  0  0  0  0  0  0  0  0  0
   -5.5086    2.5886    1.8162 H   0  0  0  0  0  0  0  0  0  0  0  0
   -3.2720    1.6766    2.2889 H   0  0  0  0  0  0  0  0  0  0  0  0
   -7.8479    1.2913    0.4639 H   0  0  0  0  0  0  0  0  0  0  0  0
   -6.2958   -1.8185   -3.0081 H   0  0  0  0  0  0  0  0  0  0  0  0
   -4.6683   -1.1556   -2.7249 H   0  0  0  0  0  0  0  0  0  0  0  0
   -5.3769   -2.3022   -1.5624 H   0  0  0  0  0  0  0  0  0  0  0  0
    0.3252   -1.6607   -0.8795 H   0  0  0  0  0  0  0  0  0  0  0  0
    3.2874   -3.6738   -0.8733 H   0  0  0  0  0  0  0  0  0  0  0  0
    3.5449   -4.1190    0.8308 H   0  0  0  0  0  0  0  0  0  0  0  0
    1.9003   -4.1181    0.1499 H   0  0  0  0  0  0  0  0  0  0  0  0
  1  2  1  0  0  0  0
  2  3  1  0  0  0  0
  3  4  1  0  0  0  0
  4  5  1  0  0  0  0
  5  6  1  0  0  0  0
  6  7  1  0  0  0  0
  7  8  1  0  0  0  0
  8  9  1  0  0  0  0
  9 10  1  0  0  0  0
 10 11  1  0  0  0  0
 11 12  2  0  0  0  0
 12 13  1  0  0  0  0
 13 14  2  0  0  0  0
 14 15  1  0  0  0  0
 15 16  2  0  0  0  0
 11 16  1  0  0  0  0
 14 17  1  0  0  0  0
 13 18  1  0  0  0  0
 18 19  1  0  0  0  0
  8 20  1  0  0  0  0
  6 21  1  0  0  0  0
 21 22  1  0  0  0  0
 22 23  2  0  0  0  0
 22 24  1  0  0  0  0
  1 25  1  0  0  0  0
  1 26  1  0  0  0  0
  1 27  1  0  0  0  0
  2 28  1  0  0  0  0
  2 29  1  0  0  0  0
  3 30  1  0  0  0  0
  3 31  1  0  0  0  0
  4 32  1  0  0  0  0
  4 33  1  0  0  0  0
  5 34  1  0  0  0  0
  5 35  1  0  0  0  0
  6 36  1  0  0  0  0
  7 37  1  0  0  0  0
  7 38  1  0  0  0  0
  8 39  1  0  0  0  0
  9 40  1  0  0  0  0
  9 41  1  0  0  0  0
 10 42  1  0  0  0  0
 10 43  1  0  0  0  0
 12 44  1  0  0  0  0
 15 45  1  0  0  0  0
 16 46  1  0  0  0  0
 17 47  1  0  0  0  0
 19 48  1  0  0  0  0
 19 49  1  0  0  0  0
 19 50  1  0  0  0  0
 20 51  1  0  0  0  0
 24 52  1  0  0  0  0
 24 53  1  0  0  0  0
 24 54  1  0  0  0  0
M  END
$$$$
