C52H55O27
APtclcactv06291803043D 0   0.00000     0.00000
 
134141  0  0  0  0  0  0  0  0999 V2000
   11.0606    6.1758    0.0319 C   0  0  0  0  0  0  0  0  0  0  0  0
    9.8220    6.6611   -0.4899 O   0  0  0  0  0  0  0  0  0  0  0  0
    8.7893    5.7782   -0.5506 C   0  0  0  0  0  0  0  0  0  0  0  0
    7.5524    6.1856   -1.0492 C   0  0  0  0  0  0  0  0  0  0  0  0
    6.4950    5.2876   -1.1132 C   0  0  0  0  0  0  0  0  0  0  0  0
    6.6623    3.9894   -0.6845 C   0  0  0  0  0  0  0  0  0  0  0  0
    7.9010    3.5726   -0.1832 C   0  0  0  0  0  0  0  0  0  0  0  0
    8.9677    4.4771   -0.1239 C   0  0  0  0  0  0  0  0  0  0  0  0
    8.0824    2.1881    0.2750 C   0  0  0  0  0  0  0  0  0  0  0  0
    7.0529    1.3155    0.2127 C   0  0  0  0  0  0  0  0  0  0  0  0
    7.2280   -0.0202    0.6547 C   0  0  0  0  0  0  0  0  0  0  0  0
    8.3052   -0.3805    1.0901 O   0  0  0  0  0  0  0  0  0  0  0  0
    6.1997   -0.8917    0.5925 O   0  0  0  0  0  0  0  0  0  0  0  0
    6.4471   -2.2210    1.0548 C   0  0  0  0  0  0  0  0  0  0  0  0
    5.1744   -3.0573    0.9073 C   0  0  0  0  0  0  0  0  0  0  0  0
    5.4721   -4.5108    1.2847 C   0  0  0  0  0  0  0  0  0  0  0  0
    4.1804   -5.3289    1.1926 C   0  0  0  0  0  0  0  0  0  0  0  0
    3.1228   -4.6969    2.1027 C   0  0  0  0  0  0  0  0  0  0  0  0
    2.9158   -3.2362    1.6938 C   0  0  0  0  0  0  0  0  0  0  0  0
    4.1613   -2.5400    1.7722 O   0  0  0  0  0  0  0  0  0  0  0  0
    2.4230   -3.1818    0.3536 O   0  0  0  0  0  0  0  0  0  0  0  0
    2.0879   -1.8652   -0.0895 C   0  0  0  0  0  0  0  0  0  0  0  0
    2.2999   -1.7651   -1.6032 C   0  0  0  0  0  0  0  0  0  0  0  0
    1.8642   -0.3754   -2.0779 C   0  0  0  0  0  0  0  0  0  0  0  0
    0.4045   -0.1429   -1.6790 C   0  0  0  0  0  0  0  0  0  0  0  0
    0.2713   -0.2808   -0.2629 O   0  0  0  0  0  0  0  0  0  0  0  0
    0.6197   -1.5752    0.2326 C   0  0  0  0  0  0  0  0  0  0  0  0
   -0.2080   -2.5614   -0.3874 O   0  0  0  0  0  0  0  0  0  0  0  0
   -1.5081   -2.6119    0.0062 C   0  0  0  0  0  0  0  0  0  0  0  0
   -2.4251   -3.4710   -0.6261 C   0  0  0  0  0  0  0  0  0  0  0  0
   -3.5878   -3.5402   -0.3006 O   0  3  0  0  0  0  0  0  0  0  0  0
   -4.1033   -2.8929    0.5927 C   0  0  0  0  0  0  0  0  0  0  0  0
   -5.4652   -3.0472    0.8938 C   0  0  0  0  0  0  0  0  0  0  0  0
   -6.0319   -2.3069    1.9083 C   0  0  0  0  0  0  0  0  0  0  0  0
   -5.2710   -1.3993    2.6479 C   0  0  0  0  0  0  0  0  0  0  0  0
   -3.9420   -1.2256    2.3790 C   0  0  0  0  0  0  0  0  0  0  0  0
   -3.3380   -1.9692    1.3487 C   0  0  0  0  0  0  0  0  0  0  0  0
   -1.9688   -1.8272    1.0413 C   0  0  0  0  0  0  0  0  0  0  0  0
   -3.2090   -0.3412    3.1026 O   0  0  0  0  0  0  0  0  0  0  0  0
   -3.8819    0.3496    4.1572 C   0  0  0  0  0  0  0  0  0  0  0  0
   -2.8686    1.1739    4.9556 C   0  0  0  0  0  0  0  0  0  0  0  0
   -2.2411    2.2265    4.0366 C   0  0  0  0  0  0  0  0  0  0  0  0
   -3.3528    3.0935    3.4378 C   0  0  0  0  0  0  0  0  0  0  0  0
   -4.3474    2.1951    2.6980 C   0  0  0  0  0  0  0  0  0  0  0  0
   -4.8702    1.2198    3.6022 O   0  0  0  0  0  0  0  0  0  0  0  0
   -5.4931    3.0469    2.1479 C   0  0  0  0  0  0  0  0  0  0  0  0
   -6.3467    2.2332    1.3408 O   0  0  0  0  0  0  0  0  0  0  0  0
   -4.0286    3.7935    4.4844 O   0  0  0  0  0  0  0  0  0  0  0  0
   -1.3479    3.0482    4.7910 O   0  0  0  0  0  0  0  0  0  0  0  0
   -3.5316    1.8230    6.0424 O   0  0  0  0  0  0  0  0  0  0  0  0
   -7.3508   -2.4619    2.1929 O   0  0  0  0  0  0  0  0  0  0  0  0
   -1.9474   -4.3249   -1.7355 C   0  0  0  0  0  0  0  0  0  0  0  0
   -2.4009   -5.6401   -1.8508 C   0  0  0  0  0  0  0  0  0  0  0  0
   -1.9518   -6.4343   -2.8891 C   0  0  0  0  0  0  0  0  0  0  0  0
   -1.0483   -5.9215   -3.8177 C   0  0  0  0  0  0  0  0  0  0  0  0
   -0.5979   -4.6141   -3.7027 C   0  0  0  0  0  0  0  0  0  0  0  0
   -1.0468   -3.8153   -2.6723 C   0  0  0  0  0  0  0  0  0  0  0  0
   -0.6072   -6.7034   -4.8378 O   0  0  0  0  0  0  0  0  0  0  0  0
   -2.3913   -7.7162   -3.0040 O   0  0  0  0  0  0  0  0  0  0  0  0
   -0.0203    1.2663   -2.0966 C   0  0  0  0  0  0  0  0  0  0  0  0
   -1.4221    1.4277   -1.8711 O   0  0  0  0  0  0  0  0  0  0  0  0
   -1.9829    2.5781   -2.2987 C   0  0  0  0  0  0  0  0  0  0  0  0
   -1.2837    3.4627   -2.7553 O   0  0  0  0  0  0  0  0  0  0  0  0
   -3.3870    2.7559   -2.2157 C   0  0  0  0  0  0  0  0  0  0  0  0
   -3.9596    3.8633   -2.7364 C   0  0  0  0  0  0  0  0  0  0  0  0
   -5.4187    4.0303   -2.6831 C   0  0  0  0  0  0  0  0  0  0  0  0
   -6.0041    5.2284   -3.1092 C   0  0  0  0  0  0  0  0  0  0  0  0
   -7.3757    5.3791   -3.0572 C   0  0  0  0  0  0  0  0  0  0  0  0
   -8.1742    4.3399   -2.5808 C   0  0  0  0  0  0  0  0  0  0  0  0
   -7.5944    3.1512   -2.1575 C   0  0  0  0  0  0  0  0  0  0  0  0
   -6.2276    2.9898   -2.2117 C   0  0  0  0  0  0  0  0  0  0  0  0
   -9.5230    4.4910   -2.5303 O   0  0  0  0  0  0  0  0  0  0  0  0
   -7.9479    6.5416   -3.4703 O   0  0  0  0  0  0  0  0  0  0  0  0
    2.6901    0.6184   -1.4677 O   0  0  0  0  0  0  0  0  0  0  0  0
    3.6824   -1.9620   -1.9064 O   0  0  0  0  0  0  0  0  0  0  0  0
    1.8911   -5.4092    1.9697 O   0  0  0  0  0  0  0  0  0  0  0  0
    3.7105   -5.3302   -0.1570 O   0  0  0  0  0  0  0  0  0  0  0  0
    6.4431   -5.0486    0.3847 O   0  0  0  0  0  0  0  0  0  0  0  0
    7.3812    7.4645   -1.4731 O   0  0  0  0  0  0  0  0  0  0  0  0
   11.7974    6.9790    0.0249 H   0  0  0  0  0  0  0  0  0  0  0  0
   10.9127    5.8273    1.0541 H   0  0  0  0  0  0  0  0  0  0  0  0
   11.4165    5.3508   -0.5853 H   0  0  0  0  0  0  0  0  0  0  0  0
    5.5389    5.6081   -1.4999 H   0  0  0  0  0  0  0  0  0  0  0  0
    5.8380    3.2934   -0.7348 H   0  0  0  0  0  0  0  0  0  0  0  0
    9.9254    4.1603    0.2617 H   0  0  0  0  0  0  0  0  0  0  0  0
    9.0388    1.8682    0.6616 H   0  0  0  0  0  0  0  0  0  0  0  0
    6.0965    1.6355   -0.1739 H   0  0  0  0  0  0  0  0  0  0  0  0
    7.2463   -2.6683    0.4640 H   0  0  0  0  0  0  0  0  0  0  0  0
    6.7431   -2.1917    2.1034 H   0  0  0  0  0  0  0  0  0  0  0  0
    4.8283   -3.0134   -0.1253 H   0  0  0  0  0  0  0  0  0  0  0  0
    5.8569   -4.5511    2.3037 H   0  0  0  0  0  0  0  0  0  0  0  0
    4.3733   -6.3525    1.5138 H   0  0  0  0  0  0  0  0  0  0  0  0
    3.4601   -4.7410    3.1383 H   0  0  0  0  0  0  0  0  0  0  0  0
    2.1954   -2.7693    2.3654 H   0  0  0  0  0  0  0  0  0  0  0  0
    2.7233   -1.1380    0.4161 H   0  0  0  0  0  0  0  0  0  0  0  0
    1.7030   -2.5259   -2.1061 H   0  0  0  0  0  0  0  0  0  0  0  0
    1.9597   -0.3143   -3.1620 H   0  0  0  0  0  0  0  0  0  0  0  0
   -0.2296   -0.8765   -2.1769 H   0  0  0  0  0  0  0  0  0  0  0  0
    0.4720   -1.6030    1.3122 H   0  0  0  0  0  0  0  0  0  0  0  0
   -6.0680   -3.7446    0.3312 H   0  0  0  0  0  0  0  0  0  0  0  0
   -5.7364   -0.8296    3.4386 H   0  0  0  0  0  0  0  0  0  0  0  0
   -1.3253   -1.1462    1.5785 H   0  0  0  0  0  0  0  0  0  0  0  0
   -4.3626   -0.3732    4.8164 H   0  0  0  0  0  0  0  0  0  0  0  0
   -2.0894    0.5174    5.3429 H   0  0  0  0  0  0  0  0  0  0  0  0
   -1.6935    1.7308    3.2351 H   0  0  0  0  0  0  0  0  0  0  0  0
   -2.9199    3.8099    2.7396 H   0  0  0  0  0  0  0  0  0  0  0  0
   -3.8402    1.6923    1.8745 H   0  0  0  0  0  0  0  0  0  0  0  0
   -6.0658    3.4641    2.9762 H   0  0  0  0  0  0  0  0  0  0  0  0
   -5.0856    3.8572    1.5433 H   0  0  0  0  0  0  0  0  0  0  0  0
   -7.0595    2.7213    0.9063 H   0  0  0  0  0  0  0  0  0  0  0  0
   -3.4566    4.3791    4.9991 H   0  0  0  0  0  0  0  0  0  0  0  0
   -0.6215    2.5625    5.2052 H   0  0  0  0  0  0  0  0  0  0  0  0
   -3.9568    1.2155    6.6631 H   0  0  0  0  0  0  0  0  0  0  0  0
   -7.5331   -3.1451    2.8525 H   0  0  0  0  0  0  0  0  0  0  0  0
   -3.1009   -6.0363   -1.1301 H   0  0  0  0  0  0  0  0  0  0  0  0
    0.1023   -4.2199   -4.4242 H   0  0  0  0  0  0  0  0  0  0  0  0
   -0.6947   -2.7981   -2.5850 H   0  0  0  0  0  0  0  0  0  0  0  0
   -1.1520   -6.6541   -5.6351 H   0  0  0  0  0  0  0  0  0  0  0  0
   -3.1911   -7.8113   -3.5391 H   0  0  0  0  0  0  0  0  0  0  0  0
    0.5293    2.0009   -1.5080 H   0  0  0  0  0  0  0  0  0  0  0  0
    0.1967    1.4127   -3.1547 H   0  0  0  0  0  0  0  0  0  0  0  0
   -3.9989    2.0061   -1.7363 H   0  0  0  0  0  0  0  0  0  0  0  0
   -3.3451    4.6258   -3.1917 H   0  0  0  0  0  0  0  0  0  0  0  0
   -5.3846    6.0328   -3.4773 H   0  0  0  0  0  0  0  0  0  0  0  0
   -8.2172    2.3494   -1.7890 H   0  0  0  0  0  0  0  0  0  0  0  0
   -5.7794    2.0642   -1.8818 H   0  0  0  0  0  0  0  0  0  0  0  0
   -9.9806    4.2107   -3.3348 H   0  0  0  0  0  0  0  0  0  0  0  0
   -8.1801    6.5539   -4.4090 H   0  0  0  0  0  0  0  0  0  0  0  0
    2.4697    1.5244   -1.7240 H   0  0  0  0  0  0  0  0  0  0  0  0
    3.8893   -1.9117   -2.8497 H   0  0  0  0  0  0  0  0  0  0  0  0
    1.1749   -5.0624    2.5192 H   0  0  0  0  0  0  0  0  0  0  0  0
    2.8938   -5.8309   -0.2887 H   0  0  0  0  0  0  0  0  0  0  0  0
    6.6798   -5.9686    0.5653 H   0  0  0  0  0  0  0  0  0  0  0  0
    7.5818    7.5987   -2.4095 H   0  0  0  0  0  0  0  0  0  0  0  0
  1  2  1  0  0  0  0
  2  3  1  0  0  0  0
  3  4  2  0  0  0  0
  4  5  1  0  0  0  0
  5  6  2  0  0  0  0
  6  7  1  0  0  0  0
  7  8  2  0  0  0  0
  3  8  1  0  0  0  0
  7  9  1  0  0  0  0
  9 10  2  0  0  0  0
 10 11  1  0  0  0  0
 11 12  2  0  0  0  0
 11 13  1  0  0  0  0
 13 14  1  0  0  0  0
 14 15  1  0  0  0  0
 15 16  1  0  0  0  0
 16 17  1  0  0  0  0
 17 18  1  0  0  0  0
 18 19  1  0  0  0  0
 19 20  1  0  0  0  0
 15 20  1  0  0  0  0
 19 21  1  0  0  0  0
 21 22  1  0  0  0  0
 22 23  1  0  0  0  0
 23 24  1  0  0  0  0
 24 25  1  0  0  0  0
 25 26  1  0  0  0  0
 26 27  1  0  0  0  0
 22 27  1  0  0  0  0
 27 28  1  0  0  0  0
 28 29  1  0  0  0  0
 29 30  2  0  0  0  0
 30 31  1  0  0  0  0
 31 32  2  0  0  0  0
 32 33  1  0  0  0  0
 33 34  2  0  0  0  0
 34 35  1  0  0  0  0
 35 36  2  0  0  0  0
 36 37  1  0  0  0  0
 32 37  1  0  0  0  0
 37 38  2  0  0  0  0
 29 38  1  0  0  0  0
 36 39  1  0  0  0  0
 39 40  1  0  0  0  0
 40 41  1  0  0  0  0
 41 42  1  0  0  0  0
 42 43  1  0  0  0  0
 43 44  1  0  0  0  0
 44 45  1  0  0  0  0
 40 45  1  0  0  0  0
 44 46  1  0  0  0  0
 46 47  1  0  0  0  0
 43 48  1  0  0  0  0
 42 49  1  0  0  0  0
 41 50  1  0  0  0  0
 34 51  1  0  0  0  0
 30 52  1  0  0  0  0
 52 53  2  0  0  0  0
 53 54  1  0  0  0  0
 54 55  2  0  0  0  0
 55 56  1  0  0  0  0
 56 57  2  0  0  0  0
 52 57  1  0  0  0  0
 55 58  1  0  0  0  0
 54 59  1  0  0  0  0
 25 60  1  0  0  0  0
 60 61  1  0  0  0  0
 61 62  1  0  0  0  0
 62 63  2  0  0  0  0
 62 64  1  0  0  0  0
 64 65  2  0  0  0  0
 65 66  1  0  0  0  0
 66 67  2  0  0  0  0
 67 68  1  0  0  0  0
 68 69  2  0  0  0  0
 69 70  1  0  0  0  0
 70 71  2  0  0  0  0
 66 71  1  0  0  0  0
 69 72  1  0  0  0  0
 68 73  1  0  0  0  0
 24 74  1  0  0  0  0
 23 75  1  0  0  0  0
 18 76  1  0  0  0  0
 17 77  1  0  0  0  0
 16 78  1  0  0  0  0
  4 79  1  0  0  0  0
  1 80  1  0  0  0  0
  1 81  1  0  0  0  0
  1 82  1  0  0  0  0
  5 83  1  0  0  0  0
  6 84  1  0  0  0  0
  8 85  1  0  0  0  0
  9 86  1  0  0  0  0
 10 87  1  0  0  0  0
 14 88  1  0  0  0  0
 14 89  1  0  0  0  0
 15 90  1  0  0  0  0
 16 91  1  0  0  0  0
 17 92  1  0  0  0  0
 18 93  1  0  0  0  0
 19 94  1  0  0  0  0
 22 95  1  0  0  0  0
 23 96  1  0  0  0  0
 24 97  1  0  0  0  0
 25 98  1  0  0  0  0
 27 99  1  0  0  0  0
 33100  1  0  0  0  0
 35101  1  0  0  0  0
 38102  1  0  0  0  0
 40103  1  0  0  0  0
 41104  1  0  0  0  0
 42105  1  0  0  0  0
 43106  1  0  0  0  0
 44107  1  0  0  0  0
 46108  1  0  0  0  0
 46109  1  0  0  0  0
 47110  1  0  0  0  0
 48111  1  0  0  0  0
 49112  1  0  0  0  0
 50113  1  0  0  0  0
 51114  1  0  0  0  0
 53115  1  0  0  0  0
 56116  1  0  0  0  0
 57117  1  0  0  0  0
 58118  1  0  0  0  0
 59119  1  0  0  0  0
 60120  1  0  0  0  0
 60121  1  0  0  0  0
 64122  1  0  0  0  0
 65123  1  0  0  0  0
 67124  1  0  0  0  0
 70125  1  0  0  0  0
 71126  1  0  0  0  0
 72127  1  0  0  0  0
 73128  1  0  0  0  0
 74129  1  0  0  0  0
 75130  1  0  0  0  0
 76131  1  0  0  0  0
 77132  1  0  0  0  0
 78133  1  0  0  0  0
 79134  1  0  0  0  0
M  CHG  1  31   1
M  END
$$$$
