C40H54
APtclcactv06291803043D 0   0.00000     0.00000
 
 94 94  0  0  0  0  0  0  0  0999 V2000
  -11.0522   -1.4611   -1.9010 C   0  0  0  0  0  0  0  0  0  0  0  0
  -12.1751   -1.1283   -0.9526 C   0  0  0  0  0  0  0  0  0  0  0  0
  -12.0028   -0.1238   -0.1096 C   0  0  0  0  0  0  0  0  0  0  0  0
  -13.0332    0.3080    0.8930 C   0  0  0  0  0  0  0  0  0  0  0  0
  -14.4030   -0.2622    0.5191 C   0  0  0  0  0  0  0  0  0  0  0  0
  -14.2501   -1.7654    0.2569 C   0  0  0  0  0  0  0  0  0  0  0  0
  -13.4282   -1.9517   -1.0220 C   0  0  0  0  0  0  0  0  0  0  0  0
  -12.6344   -0.1987    2.2805 C   0  0  0  0  0  0  0  0  0  0  0  0
  -13.1091    1.8359    0.9164 C   0  0  0  0  0  0  0  0  0  0  0  0
  -10.7760    0.5846   -0.1551 C   0  0  0  0  0  0  0  0  0  0  0  0
   -9.6017   -0.0780    0.0180 C   0  0  0  0  0  0  0  0  0  0  0  0
   -8.3816    0.5972   -0.1567 C   0  0  0  0  0  0  0  0  0  0  0  0
   -7.2019   -0.0684    0.0172 C   0  0  0  0  0  0  0  0  0  0  0  0
   -5.9856    0.6046   -0.1570 C   0  0  0  0  0  0  0  0  0  0  0  0
   -4.7953   -0.0670    0.0184 C   0  0  0  0  0  0  0  0  0  0  0  0
   -3.5808    0.6050   -0.1555 C   0  0  0  0  0  0  0  0  0  0  0  0
   -2.3892   -0.0674    0.0202 C   0  0  0  0  0  0  0  0  0  0  0  0
   -1.1756    0.6042   -0.1537 C   0  0  0  0  0  0  0  0  0  0  0  0
    0.0167   -0.0686    0.0221 C   0  0  0  0  0  0  0  0  0  0  0  0
    1.2299    0.6027   -0.1517 C   0  0  0  0  0  0  0  0  0  0  0  0
    2.4223   -0.0701    0.0241 C   0  0  0  0  0  0  0  0  0  0  0  0
    2.4157   -1.5286    0.4034 C   0  0  0  0  0  0  0  0  0  0  0  0
    3.6355    0.6012   -0.1496 C   0  0  0  0  0  0  0  0  0  0  0  0
    4.8277   -0.0715    0.0261 C   0  0  0  0  0  0  0  0  0  0  0  0
    6.0413    0.6000   -0.1477 C   0  0  0  0  0  0  0  0  0  0  0  0
    7.2329   -0.0723    0.0279 C   0  0  0  0  0  0  0  0  0  0  0  0
    7.2264   -1.5308    0.4072 C   0  0  0  0  0  0  0  0  0  0  0  0
    8.4474    0.5997   -0.1460 C   0  0  0  0  0  0  0  0  0  0  0  0
    9.6378   -0.0719    0.0295 C   0  0  0  0  0  0  0  0  0  0  0  0
   10.8541    0.6011   -0.1447 C   0  0  0  0  0  0  0  0  0  0  0  0
   12.0337   -0.0645    0.0291 C   0  0  0  0  0  0  0  0  0  0  0  0
   12.0272   -1.5230    0.4084 C   0  0  0  0  0  0  0  0  0  0  0  0
   13.2539    0.6106   -0.1456 C   0  0  0  0  0  0  0  0  0  0  0  0
   14.4282   -0.0520    0.0275 C   0  0  0  0  0  0  0  0  0  0  0  0
   15.6588    0.6290   -0.1487 C   0  0  0  0  0  0  0  0  0  0  0  0
   16.8135   -0.0226    0.0215 C   0  0  0  0  0  0  0  0  0  0  0  0
   16.8069   -1.4811    0.4008 C   0  0  0  0  0  0  0  0  0  0  0  0
   18.1218    0.7014   -0.1659 C   0  0  0  0  0  0  0  0  0  0  0  0
   -3.5742    2.0635   -0.5348 C   0  0  0  0  0  0  0  0  0  0  0  0
   -8.3750    2.0556   -0.5360 C   0  0  0  0  0  0  0  0  0  0  0  0
  -10.3386   -2.1175   -1.4031 H   0  0  0  0  0  0  0  0  0  0  0  0
  -11.4559   -1.9635   -2.7801 H   0  0  0  0  0  0  0  0  0  0  0  0
  -10.5500   -0.5430   -2.2059 H   0  0  0  0  0  0  0  0  0  0  0  0
  -15.1022   -0.1030    1.3399 H   0  0  0  0  0  0  0  0  0  0  0  0
  -14.7716    0.2308   -0.3804 H   0  0  0  0  0  0  0  0  0  0  0  0
  -13.7374   -2.2334    1.0972 H   0  0  0  0  0  0  0  0  0  0  0  0
  -15.2340   -2.2164    0.1275 H   0  0  0  0  0  0  0  0  0  0  0  0
  -14.0230   -1.6437   -1.8819 H   0  0  0  0  0  0  0  0  0  0  0  0
  -13.1594   -3.0027   -1.1289 H   0  0  0  0  0  0  0  0  0  0  0  0
  -11.6641    0.2160    2.5537 H   0  0  0  0  0  0  0  0  0  0  0  0
  -13.3816    0.1139    3.0100 H   0  0  0  0  0  0  0  0  0  0  0  0
  -12.5735   -1.2869    2.2663 H   0  0  0  0  0  0  0  0  0  0  0  0
  -13.4608    2.1971   -0.0500 H   0  0  0  0  0  0  0  0  0  0  0  0
  -13.8008    2.1534    1.6967 H   0  0  0  0  0  0  0  0  0  0  0  0
  -12.1196    2.2457    1.1193 H   0  0  0  0  0  0  0  0  0  0  0  0
  -10.7742    1.6508   -0.3273 H   0  0  0  0  0  0  0  0  0  0  0  0
   -9.6064   -1.1232    0.2899 H   0  0  0  0  0  0  0  0  0  0  0  0
   -7.2066   -1.1137    0.2890 H   0  0  0  0  0  0  0  0  0  0  0  0
   -5.9809    1.6498   -0.4288 H   0  0  0  0  0  0  0  0  0  0  0  0
   -4.8000   -1.1123    0.2903 H   0  0  0  0  0  0  0  0  0  0  0  0
   -2.3939   -1.1126    0.2920 H   0  0  0  0  0  0  0  0  0  0  0  0
   -1.1709    1.6494   -0.4255 H   0  0  0  0  0  0  0  0  0  0  0  0
    0.0120   -1.1138    0.2939 H   0  0  0  0  0  0  0  0  0  0  0  0
    1.2346    1.6480   -0.4235 H   0  0  0  0  0  0  0  0  0  0  0  0
    2.4148   -2.1388   -0.4998 H   0  0  0  0  0  0  0  0  0  0  0  0
    3.3038   -1.7545    0.9937 H   0  0  0  0  0  0  0  0  0  0  0  0
    1.5238   -1.7473    0.9906 H   0  0  0  0  0  0  0  0  0  0  0  0
    3.6402    1.6464   -0.4215 H   0  0  0  0  0  0  0  0  0  0  0  0
    4.8230   -1.1167    0.2979 H   0  0  0  0  0  0  0  0  0  0  0  0
    6.0460    1.6452   -0.4195 H   0  0  0  0  0  0  0  0  0  0  0  0
    7.2254   -2.1411   -0.4959 H   0  0  0  0  0  0  0  0  0  0  0  0
    8.1144   -1.7567    0.9975 H   0  0  0  0  0  0  0  0  0  0  0  0
    6.3345   -1.7495    0.9944 H   0  0  0  0  0  0  0  0  0  0  0  0
    8.4522    1.6449   -0.4178 H   0  0  0  0  0  0  0  0  0  0  0  0
    9.6331   -1.1172    0.3013 H   0  0  0  0  0  0  0  0  0  0  0  0
   10.8588    1.6463   -0.4166 H   0  0  0  0  0  0  0  0  0  0  0  0
   12.0262   -2.1332   -0.4947 H   0  0  0  0  0  0  0  0  0  0  0  0
   12.9152   -1.7489    0.9987 H   0  0  0  0  0  0  0  0  0  0  0  0
   11.1353   -1.7417    0.9956 H   0  0  0  0  0  0  0  0  0  0  0  0
   13.2586    1.6559   -0.4174 H   0  0  0  0  0  0  0  0  0  0  0  0
   14.4235   -1.0972    0.2993 H   0  0  0  0  0  0  0  0  0  0  0  0
   15.6635    1.6742   -0.4206 H   0  0  0  0  0  0  0  0  0  0  0  0
   16.8060   -2.0913   -0.5024 H   0  0  0  0  0  0  0  0  0  0  0  0
   17.6950   -1.7070    0.9910 H   0  0  0  0  0  0  0  0  0  0  0  0
   15.9150   -1.6998    0.9879 H   0  0  0  0  0  0  0  0  0  0  0  0
   17.9273    1.7393   -0.4360 H   0  0  0  0  0  0  0  0  0  0  0  0
   18.6917    0.6682    0.7627 H   0  0  0  0  0  0  0  0  0  0  0  0
   18.6928    0.2202   -0.9600 H   0  0  0  0  0  0  0  0  0  0  0  0
   -3.5733    2.6737    0.3684 H   0  0  0  0  0  0  0  0  0  0  0  0
   -2.6823    2.2822   -1.1220 H   0  0  0  0  0  0  0  0  0  0  0  0
   -4.4623    2.2894   -1.1251 H   0  0  0  0  0  0  0  0  0  0  0  0
   -8.3741    2.6659    0.3672 H   0  0  0  0  0  0  0  0  0  0  0  0
   -7.4831    2.2743   -1.1232 H   0  0  0  0  0  0  0  0  0  0  0  0
   -9.2631    2.2815   -1.1263 H   0  0  0  0  0  0  0  0  0  0  0  0
  1  2  1  0  0  0  0
  2  3  2  0  0  0  0
  3  4  1  0  0  0  0
  4  5  1  0  0  0  0
  5  6  1  0  0  0  0
  6  7  1  0  0  0  0
  2  7  1  0  0  0  0
  4  8  1  0  0  0  0
  4  9  1  0  0  0  0
  3 10  1  0  0  0  0
 10 11  2  0  0  0  0
 11 12  1  0  0  0  0
 12 13  2  0  0  0  0
 13 14  1  0  0  0  0
 14 15  2  0  0  0  0
 15 16  1  0  0  0  0
 16 17  2  0  0  0  0
 17 18  1  0  0  0  0
 18 19  2  0  0  0  0
 19 20  1  0  0  0  0
 20 21  2  0  0  0  0
 21 22  1  0  0  0  0
 21 23  1  0  0  0  0
 23 24  2  0  0  0  0
 24 25  1  0  0  0  0
 25 26  2  0  0  0  0
 26 27  1  0  0  0  0
 26 28  1  0  0  0  0
 28 29  2  0  0  0  0
 29 30  1  0  0  0  0
 30 31  2  0  0  0  0
 31 32  1  0  0  0  0
 31 33  1  0  0  0  0
 33 34  2  0  0  0  0
 34 35  1  0  0  0  0
 35 36  2  0  0  0  0
 36 37  1  0  0  0  0
 36 38  1  0  0  0  0
 16 39  1  0  0  0  0
 12 40  1  0  0  0  0
  1 41  1  0  0  0  0
  1 42  1  0  0  0  0
  1 43  1  0  0  0  0
  5 44  1  0  0  0  0
  5 45  1  0  0  0  0
  6 46  1  0  0  0  0
  6 47  1  0  0  0  0
  7 48  1  0  0  0  0
  7 49  1  0  0  0  0
  8 50  1  0  0  0  0
  8 51  1  0  0  0  0
  8 52  1  0  0  0  0
  9 53  1  0  0  0  0
  9 54  1  0  0  0  0
  9 55  1  0  0  0  0
 10 56  1  0  0  0  0
 11 57  1  0  0  0  0
 13 58  1  0  0  0  0
 14 59  1  0  0  0  0
 15 60  1  0  0  0  0
 17 61  1  0  0  0  0
 18 62  1  0  0  0  0
 19 63  1  0  0  0  0
 20 64  1  0  0  0  0
 22 65  1  0  0  0  0
 22 66  1  0  0  0  0
 22 67  1  0  0  0  0
 23 68  1  0  0  0  0
 24 69  1  0  0  0  0
 25 70  1  0  0  0  0
 27 71  1  0  0  0  0
 27 72  1  0  0  0  0
 27 73  1  0  0  0  0
 28 74  1  0  0  0  0
 29 75  1  0  0  0  0
 30 76  1  0  0  0  0
 32 77  1  0  0  0  0
 32 78  1  0  0  0  0
 32 79  1  0  0  0  0
 33 80  1  0  0  0  0
 34 81  1  0  0  0  0
 35 82  1  0  0  0  0
 37 83  1  0  0  0  0
 37 84  1  0  0  0  0
 37 85  1  0  0  0  0
 38 86  1  0  0  0  0
 38 87  1  0  0  0  0
 38 88  1  0  0  0  0
 39 89  1  0  0  0  0
 39 90  1  0  0  0  0
 39 91  1  0  0  0  0
 40 92  1  0  0  0  0
 40 93  1  0  0  0  0
 40 94  1  0  0  0  0
M  END
$$$$
