C19H34O16
APtclcactv06281817273D 0   0.00000     0.00000
 
 69 71  0  0  0  0  0  0  0  0999 V2000
   -3.3601    4.1489    2.3227 C   0  0  0  0  0  0  0  0  0  0  0  0
   -3.0054    2.8828    1.7632 O   0  0  0  0  0  0  0  0  0  0  0  0
   -3.4685    2.6882    0.4254 C   0  0  0  0  0  0  0  0  0  0  0  0
   -2.4081    3.1861   -0.5588 C   0  0  0  0  0  0  0  0  0  0  0  0
   -1.1103    2.4032   -0.3494 C   0  0  0  0  0  0  0  0  0  0  0  0
   -1.3688    0.9142   -0.5883 C   0  0  0  0  0  0  0  0  0  0  0  0
   -2.4292    0.4164    0.3959 C   0  0  0  0  0  0  0  0  0  0  0  0
   -3.7269    1.1993    0.1866 C   0  0  0  0  0  0  0  0  0  0  0  0
   -4.7173    0.7343    1.1058 O   0  0  0  0  0  0  0  0  0  0  0  0
   -2.6706   -0.9743    0.1729 O   0  0  0  0  0  0  0  0  0  0  0  0
   -1.8316   -1.8402    0.9400 C   0  0  0  0  0  0  0  0  0  0  0  0
   -2.2585   -3.2935    0.7175 C   0  0  0  0  0  0  0  0  0  0  0  0
   -2.0701   -3.6524   -0.7596 C   0  0  0  0  0  0  0  0  0  0  0  0
   -0.6091   -3.4094   -1.1504 C   0  0  0  0  0  0  0  0  0  0  0  0
   -0.2459   -1.9516   -0.8558 C   0  0  0  0  0  0  0  0  0  0  0  0
   -0.4733   -1.6757    0.5278 O   0  0  0  0  0  0  0  0  0  0  0  0
    1.2291   -1.7163   -1.1873 C   0  0  0  0  0  0  0  0  0  0  0  0
    1.5390   -0.3309   -1.0235 O   0  0  0  0  0  0  0  0  0  0  0  0
    2.8998   -0.0019   -1.3098 C   0  0  0  0  0  0  0  0  0  0  0  0
    3.0873    1.5150   -1.2236 C   0  0  0  0  0  0  0  0  0  0  0  0
    2.7878    1.9783    0.2053 C   0  0  0  0  0  0  0  0  0  0  0  0
    3.7005    1.2237    1.1768 C   0  0  0  0  0  0  0  0  0  0  0  0
    3.4893   -0.2820    0.9980 C   0  0  0  0  0  0  0  0  0  0  0  0
    3.7547   -0.6410   -0.3596 O   0  0  0  0  0  0  0  0  0  0  0  0
    4.4408   -1.0441    1.9225 C   0  0  0  0  0  0  0  0  0  0  0  0
    4.1641   -2.4437    1.8419 O   0  0  0  0  0  0  0  0  0  0  0  0
    5.0643    1.5505    0.9025 O   0  0  0  0  0  0  0  0  0  0  0  0
    3.0312    3.3823    0.3136 O   0  0  0  0  0  0  0  0  0  0  0  0
    4.4348    1.8496   -1.5616 O   0  0  0  0  0  0  0  0  0  0  0  0
    0.2383   -4.2752   -0.3925 O   0  0  0  0  0  0  0  0  0  0  0  0
   -2.3966   -5.0287   -0.9626 O   0  0  0  0  0  0  0  0  0  0  0  0
   -1.4548   -4.1562    1.5249 O   0  0  0  0  0  0  0  0  0  0  0  0
   -1.8319    0.7197   -1.9261 O   0  0  0  0  0  0  0  0  0  0  0  0
   -0.1200    2.8682   -1.2687 O   0  0  0  0  0  0  0  0  0  0  0  0
   -2.8712    2.9916   -1.8966 O   0  0  0  0  0  0  0  0  0  0  0  0
   -2.9331    4.9470    1.7153 H   0  0  0  0  0  0  0  0  0  0  0  0
   -4.4455    4.2470    2.3406 H   0  0  0  0  0  0  0  0  0  0  0  0
   -2.9721    4.2186    3.3390 H   0  0  0  0  0  0  0  0  0  0  0  0
   -4.3930    3.2460    0.2762 H   0  0  0  0  0  0  0  0  0  0  0  0
   -2.2240    4.2469   -0.3887 H   0  0  0  0  0  0  0  0  0  0  0  0
   -0.7571    2.5516    0.6710 H   0  0  0  0  0  0  0  0  0  0  0  0
   -0.4443    0.3565   -0.4391 H   0  0  0  0  0  0  0  0  0  0  0  0
   -2.0760    0.5647    1.4164 H   0  0  0  0  0  0  0  0  0  0  0  0
   -4.0802    1.0509   -0.8339 H   0  0  0  0  0  0  0  0  0  0  0  0
   -5.5682    1.1874    1.0297 H   0  0  0  0  0  0  0  0  0  0  0  0
   -1.9234   -1.5922    1.9974 H   0  0  0  0  0  0  0  0  0  0  0  0
   -3.3074   -3.4108    0.9899 H   0  0  0  0  0  0  0  0  0  0  0  0
   -2.7202   -3.0279   -1.3724 H   0  0  0  0  0  0  0  0  0  0  0  0
   -0.4783   -3.6096   -2.2139 H   0  0  0  0  0  0  0  0  0  0  0  0
   -0.8651   -1.2926   -1.4644 H   0  0  0  0  0  0  0  0  0  0  0  0
    1.8513   -2.3095   -0.5172 H   0  0  0  0  0  0  0  0  0  0  0  0
    1.4214   -2.0121   -2.2187 H   0  0  0  0  0  0  0  0  0  0  0  0
    3.1528   -0.3430   -2.3137 H   0  0  0  0  0  0  0  0  0  0  0  0
    2.4043    2.0064   -1.9165 H   0  0  0  0  0  0  0  0  0  0  0  0
    1.7457    1.7680    0.4460 H   0  0  0  0  0  0  0  0  0  0  0  0
    3.4560    1.5067    2.2007 H   0  0  0  0  0  0  0  0  0  0  0  0
    2.4590   -0.5367    1.2465 H   0  0  0  0  0  0  0  0  0  0  0  0
    5.4705   -0.8591    1.6166 H   0  0  0  0  0  0  0  0  0  0  0  0
    4.3000   -0.7045    2.9486 H   0  0  0  0  0  0  0  0  0  0  0  0
    4.7311   -2.9898    2.4035 H   0  0  0  0  0  0  0  0  0  0  0  0
    5.2689    2.4914    0.9919 H   0  0  0  0  0  0  0  0  0  0  0  0
    2.4910    3.9220   -0.2797 H   0  0  0  0  0  0  0  0  0  0  0  0
    4.6951    1.5806   -2.4532 H   0  0  0  0  0  0  0  0  0  0  0  0
    0.0602   -5.2161   -0.5268 H   0  0  0  0  0  0  0  0  0  0  0  0
   -3.3070   -5.2556   -0.7284 H   0  0  0  0  0  0  0  0  0  0  0  0
   -1.5214   -3.9818    2.4737 H   0  0  0  0  0  0  0  0  0  0  0  0
   -1.2087    1.0136   -2.6046 H   0  0  0  0  0  0  0  0  0  0  0  0
    0.0945    3.8064   -1.1745 H   0  0  0  0  0  0  0  0  0  0  0  0
   -2.2480    3.2854   -2.5752 H   0  0  0  0  0  0  0  0  0  0  0  0
  1  2  1  0  0  0  0
  2  3  1  0  0  0  0
  3  4  1  0  0  0  0
  4  5  1  0  0  0  0
  5  6  1  0  0  0  0
  6  7  1  0  0  0  0
  7  8  1  0  0  0  0
  3  8  1  0  0  0  0
  8  9  1  0  0  0  0
  7 10  1  0  0  0  0
 10 11  1  0  0  0  0
 11 12  1  0  0  0  0
 12 13  1  0  0  0  0
 13 14  1  0  0  0  0
 14 15  1  0  0  0  0
 15 16  1  0  0  0  0
 11 16  1  0  0  0  0
 15 17  1  0  0  0  0
 17 18  1  0  0  0  0
 18 19  1  0  0  0  0
 19 20  1  0  0  0  0
 20 21  1  0  0  0  0
 21 22  1  0  0  0  0
 22 23  1  0  0  0  0
 23 24  1  0  0  0  0
 19 24  1  0  0  0  0
 23 25  1  0  0  0  0
 25 26  1  0  0  0  0
 22 27  1  0  0  0  0
 21 28  1  0  0  0  0
 20 29  1  0  0  0  0
 14 30  1  0  0  0  0
 13 31  1  0  0  0  0
 12 32  1  0  0  0  0
  6 33  1  0  0  0  0
  5 34  1  0  0  0  0
  4 35  1  0  0  0  0
  1 36  1  0  0  0  0
  1 37  1  0  0  0  0
  1 38  1  0  0  0  0
  3 39  1  0  0  0  0
  4 40  1  0  0  0  0
  5 41  1  0  0  0  0
  6 42  1  0  0  0  0
  7 43  1  0  0  0  0
  8 44  1  0  0  0  0
  9 45  1  0  0  0  0
 11 46  1  0  0  0  0
 12 47  1  0  0  0  0
 13 48  1  0  0  0  0
 14 49  1  0  0  0  0
 15 50  1  0  0  0  0
 17 51  1  0  0  0  0
 17 52  1  0  0  0  0
 19 53  1  0  0  0  0
 20 54  1  0  0  0  0
 21 55  1  0  0  0  0
 22 56  1  0  0  0  0
 23 57  1  0  0  0  0
 25 58  1  0  0  0  0
 25 59  1  0  0  0  0
 26 60  1  0  0  0  0
 27 61  1  0  0  0  0
 28 62  1  0  0  0  0
 29 63  1  0  0  0  0
 30 64  1  0  0  0  0
 31 65  1  0  0  0  0
 32 66  1  0  0  0  0
 33 67  1  0  0  0  0
 34 68  1  0  0  0  0
 35 69  1  0  0  0  0
M  END
$$$$
