C17H9NO3
APtclcactv06211804453D 0   0.00000     0.00000
 
 30 34  0  0  0  0  0  0  0  0999 V2000
   -3.1646    2.4553    0.3166 C   0  0  0  0  0  0  0  0  0  0  0  0
   -3.7472    1.2035   -0.0900 O   0  0  0  0  0  0  0  0  0  0  0  0
   -2.7233    0.2996   -0.0658 C   0  0  0  0  0  0  0  0  0  0  0  0
   -1.5095    1.0072   -0.0594 C   0  0  0  0  0  0  0  0  0  0  0  0
   -1.7860    2.3404   -0.0809 O   0  0  0  0  0  0  0  0  0  0  0  0
   -0.2948    0.3232   -0.0335 C   0  0  0  0  0  0  0  0  0  0  0  0
   -0.2962   -1.0852   -0.0141 C   0  0  0  0  0  0  0  0  0  0  0  0
   -1.5306   -1.7842   -0.0226 C   0  0  0  0  0  0  0  0  0  0  0  0
   -2.7380   -1.0663   -0.0493 C   0  0  0  0  0  0  0  0  0  0  0  0
   -1.4956   -3.1871   -0.0044 C   0  0  0  0  0  0  0  0  0  0  0  0
   -0.2697   -3.8223    0.0223 C   0  0  0  0  0  0  0  0  0  0  0  0
    0.8638   -3.1493    0.0306 N   0  0  0  0  0  0  0  0  0  0  0  0
    0.9043   -1.8257    0.0144 C   0  0  0  0  0  0  0  0  0  0  0  0
    2.1969   -1.1119    0.0253 C   0  0  0  0  0  0  0  0  0  0  0  0
    3.2442   -1.7317    0.0507 O   0  0  0  0  0  0  0  0  0  0  0  0
    2.2006    0.3593    0.0044 C   0  0  0  0  0  0  0  0  0  0  0  0
    3.4055    1.0662    0.0139 C   0  0  0  0  0  0  0  0  0  0  0  0
    3.3913    2.4437   -0.0065 C   0  0  0  0  0  0  0  0  0  0  0  0
    2.1894    3.1354   -0.0364 C   0  0  0  0  0  0  0  0  0  0  0  0
    0.9893    2.4568   -0.0456 C   0  0  0  0  0  0  0  0  0  0  0  0
    0.9794    1.0624   -0.0260 C   0  0  0  0  0  0  0  0  0  0  0  0
   -3.6439    3.2863   -0.2009 H   0  0  0  0  0  0  0  0  0  0  0  0
   -3.2420    2.5803    1.3967 H   0  0  0  0  0  0  0  0  0  0  0  0
   -3.6796   -1.5953   -0.0557 H   0  0  0  0  0  0  0  0  0  0  0  0
   -2.4112   -3.7597   -0.0114 H   0  0  0  0  0  0  0  0  0  0  0  0
   -0.2387   -4.9017    0.0365 H   0  0  0  0  0  0  0  0  0  0  0  0
    4.3452    0.5344    0.0376 H   0  0  0  0  0  0  0  0  0  0  0  0
    4.3234    2.9892    0.0012 H   0  0  0  0  0  0  0  0  0  0  0  0
    2.1937    4.2153   -0.0524 H   0  0  0  0  0  0  0  0  0  0  0  0
    0.0585    3.0041   -0.0682 H   0  0  0  0  0  0  0  0  0  0  0  0
  1  2  1  0  0  0  0
  2  3  1  0  0  0  0
  3  4  2  0  0  0  0
  4  5  1  0  0  0  0
  1  5  1  0  0  0  0
  4  6  1  0  0  0  0
  6  7  2  0  0  0  0
  7  8  1  0  0  0  0
  8  9  2  0  0  0  0
  3  9  1  0  0  0  0
  8 10  1  0  0  0  0
 10 11  2  0  0  0  0
 11 12  1  0  0  0  0
 12 13  2  0  0  0  0
  7 13  1  0  0  0  0
 13 14  1  0  0  0  0
 14 15  2  0  0  0  0
 14 16  1  0  0  0  0
 16 17  2  0  0  0  0
 17 18  1  0  0  0  0
 18 19  2  0  0  0  0
 19 20  1  0  0  0  0
 20 21  2  0  0  0  0
 16 21  1  0  0  0  0
  6 21  1  0  0  0  0
  1 22  1  0  0  0  0
  1 23  1  0  0  0  0
  9 24  1  0  0  0  0
 10 25  1  0  0  0  0
 11 26  1  0  0  0  0
 17 27  1  0  0  0  0
 18 28  1  0  0  0  0
 19 29  1  0  0  0  0
 20 30  1  0  0  0  0
M  END
$$$$
