C20H23NO4
APtclcactv06211804453D 0   0.00000     0.00000
 
 48 51  0  0  0  0  0  0  0  0999 V2000
    2.5302    4.1088   -0.0294 C   0  0  0  0  0  0  0  0  0  0  0  0
    2.6321    2.6489    0.0983 N   0  0  0  0  0  0  0  0  0  0  0  0
    3.7400    2.1281   -0.7045 C   0  0  0  0  0  0  0  0  0  0  0  0
    4.0023    0.6671   -0.3800 C   0  0  0  0  0  0  0  0  0  0  0  0
    2.7346   -0.1025   -0.1388 C   0  0  0  0  0  0  0  0  0  0  0  0
    2.8280   -1.4802    0.0193 C   0  0  0  0  0  0  0  0  0  0  0  0
    1.6970   -2.2497    0.2248 C   0  0  0  0  0  0  0  0  0  0  0  0
    0.4490   -1.6405    0.2791 C   0  0  0  0  0  0  0  0  0  0  0  0
    0.3534   -0.2583    0.1331 C   0  0  0  0  0  0  0  0  0  0  0  0
    1.5011    0.5098   -0.0822 C   0  0  0  0  0  0  0  0  0  0  0  0
    1.3670    1.9980   -0.2725 C   0  0  0  0  0  0  0  0  0  0  0  0
    0.2473    2.5617    0.5996 C   0  0  0  0  0  0  0  0  0  0  0  0
   -1.0261    1.7873    0.3926 C   0  0  0  0  0  0  0  0  0  0  0  0
   -0.9677    0.4111    0.1827 C   0  0  0  0  0  0  0  0  0  0  0  0
   -2.1433   -0.3195    0.0120 C   0  0  0  0  0  0  0  0  0  0  0  0
   -3.3688    0.3374    0.0388 C   0  0  0  0  0  0  0  0  0  0  0  0
   -3.4149    1.7090    0.2351 C   0  0  0  0  0  0  0  0  0  0  0  0
   -2.2470    2.4298    0.4119 C   0  0  0  0  0  0  0  0  0  0  0  0
   -4.5213   -0.3653   -0.1269 O   0  0  0  0  0  0  0  0  0  0  0  0
   -5.7434    0.3742   -0.0879 C   0  0  0  0  0  0  0  0  0  0  0  0
   -2.0917   -1.6645   -0.1798 O   0  0  0  0  0  0  0  0  0  0  0  0
   -2.1508   -2.1301   -1.5295 C   0  0  0  0  0  0  0  0  0  0  0  0
   -0.6701   -2.3879    0.4727 O   0  0  0  0  0  0  0  0  0  0  0  0
    1.8058   -3.5972    0.3728 O   0  0  0  0  0  0  0  0  0  0  0  0
    3.1205   -4.1533    0.3050 C   0  0  0  0  0  0  0  0  0  0  0  0
    2.4291    4.3753   -1.0815 H   0  0  0  0  0  0  0  0  0  0  0  0
    1.6575    4.4616    0.5202 H   0  0  0  0  0  0  0  0  0  0  0  0
    3.4283    4.5728    0.3782 H   0  0  0  0  0  0  0  0  0  0  0  0
    3.4916    2.2215   -1.7617 H   0  0  0  0  0  0  0  0  0  0  0  0
    4.6384    2.7088   -0.4953 H   0  0  0  0  0  0  0  0  0  0  0  0
    4.5390    0.2115   -1.2122 H   0  0  0  0  0  0  0  0  0  0  0  0
    4.6251    0.6101    0.5127 H   0  0  0  0  0  0  0  0  0  0  0  0
    3.7966   -1.9565   -0.0192 H   0  0  0  0  0  0  0  0  0  0  0  0
    1.1445    2.2100   -1.3183 H   0  0  0  0  0  0  0  0  0  0  0  0
    0.5409    2.4972    1.6473 H   0  0  0  0  0  0  0  0  0  0  0  0
    0.0792    3.6063    0.3378 H   0  0  0  0  0  0  0  0  0  0  0  0
   -4.3674    2.2178    0.2496 H   0  0  0  0  0  0  0  0  0  0  0  0
   -2.2913    3.4979    0.5659 H   0  0  0  0  0  0  0  0  0  0  0  0
   -6.5837   -0.3047   -0.2328 H   0  0  0  0  0  0  0  0  0  0  0  0
   -5.8382    0.8686    0.8790 H   0  0  0  0  0  0  0  0  0  0  0  0
   -5.7404    1.1230   -0.8800 H   0  0  0  0  0  0  0  0  0  0  0  0
   -3.0454   -1.7354   -2.0112 H   0  0  0  0  0  0  0  0  0  0  0  0
   -1.2672   -1.7905   -2.0700 H   0  0  0  0  0  0  0  0  0  0  0  0
   -2.1848   -3.2195   -1.5369 H   0  0  0  0  0  0  0  0  0  0  0  0
   -0.8607   -2.5772    1.4017 H   0  0  0  0  0  0  0  0  0  0  0  0
    3.0653   -5.2337    0.4380 H   0  0  0  0  0  0  0  0  0  0  0  0
    3.5602   -3.9289   -0.6668 H   0  0  0  0  0  0  0  0  0  0  0  0
    3.7387   -3.7214    1.0920 H   0  0  0  0  0  0  0  0  0  0  0  0
  1  2  1  0  0  0  0
  2  3  1  0  0  0  0
  3  4  1  0  0  0  0
  4  5  1  0  0  0  0
  5  6  2  0  0  0  0
  6  7  1  0  0  0  0
  7  8  2  0  0  0  0
  8  9  1  0  0  0  0
  9 10  2  0  0  0  0
  5 10  1  0  0  0  0
 10 11  1  0  0  0  0
  2 11  1  0  0  0  0
 11 12  1  0  0  0  0
 12 13  1  0  0  0  0
 13 14  2  0  0  0  0
  9 14  1  0  0  0  0
 14 15  1  0  0  0  0
 15 16  2  0  0  0  0
 16 17  1  0  0  0  0
 17 18  2  0  0  0  0
 13 18  1  0  0  0  0
 16 19  1  0  0  0  0
 19 20  1  0  0  0  0
 15 21  1  0  0  0  0
 21 22  1  0  0  0  0
  8 23  1  0  0  0  0
  7 24  1  0  0  0  0
 24 25  1  0  0  0  0
  1 26  1  0  0  0  0
  1 27  1  0  0  0  0
  1 28  1  0  0  0  0
  3 29  1  0  0  0  0
  3 30  1  0  0  0  0
  4 31  1  0  0  0  0
  4 32  1  0  0  0  0
  6 33  1  0  0  0  0
 11 34  1  0  0  0  0
 12 35  1  0  0  0  0
 12 36  1  0  0  0  0
 17 37  1  0  0  0  0
 18 38  1  0  0  0  0
 20 39  1  0  0  0  0
 20 40  1  0  0  0  0
 20 41  1  0  0  0  0
 22 42  1  0  0  0  0
 22 43  1  0  0  0  0
 22 44  1  0  0  0  0
 23 45  1  0  0  0  0
 25 46  1  0  0  0  0
 25 47  1  0  0  0  0
 25 48  1  0  0  0  0
M  END
$$$$
