C20H20NO4
APtclcactv06291803043D 0   0.00000     0.00000
 
 45 48  0  0  0  0  0  0  0  0999 V2000
    6.2266   -1.5172    0.7631 C   0  0  0  0  0  0  0  0  0  0  0  0
    5.5298   -0.8369   -0.2827 O   0  0  0  0  0  0  0  0  0  0  0  0
    4.1718   -0.8166   -0.2084 C   0  0  0  0  0  0  0  0  0  0  0  0
    3.5177    0.3947   -0.0481 C   0  0  0  0  0  0  0  0  0  0  0  0
    2.0566    0.3922    0.0378 C   0  0  0  0  0  0  0  0  0  0  0  0
    1.3399    1.5319    0.2264 C   0  0  0  0  0  0  0  0  0  0  0  0
   -0.0462    1.4492    0.3416 N   0  3  0  0  0  0  0  0  0  0  0  0
   -0.2546    1.6997    1.2966 H   0  0  0  0  0  0  0  0  0  0  0  0
   -0.6647    2.5003   -0.4669 C   0  0  0  0  0  0  0  0  0  0  0  0
   -2.0713    2.7874    0.0723 C   0  0  0  0  0  0  0  0  0  0  0  0
   -2.8722    1.5093    0.0584 C   0  0  0  0  0  0  0  0  0  0  0  0
   -4.2325    1.5459    0.0165 C   0  0  0  0  0  0  0  0  0  0  0  0
   -4.9651    0.3504    0.0000 C   0  0  0  0  0  0  0  0  0  0  0  0
   -6.2991    0.3860   -0.0386 O   0  0  0  0  0  0  0  0  0  0  0  0
   -4.2948   -0.8875    0.0238 C   0  0  0  0  0  0  0  0  0  0  0  0
   -2.9306   -0.9238    0.0672 C   0  0  0  0  0  0  0  0  0  0  0  0
   -2.2010    0.2741    0.0901 C   0  0  0  0  0  0  0  0  0  0  0  0
   -0.7393    0.2634    0.1055 C   0  0  0  0  0  0  0  0  0  0  0  0
   -0.0663   -0.9018   -0.0930 C   0  0  0  0  0  0  0  0  0  0  0  0
    1.3458   -0.8964   -0.0888 C   0  0  0  0  0  0  0  0  0  0  0  0
    2.0871   -2.0636   -0.2572 C   0  0  0  0  0  0  0  0  0  0  0  0
    3.4657   -2.0108   -0.3006 C   0  0  0  0  0  0  0  0  0  0  0  0
   -5.0062   -2.0470    0.0040 O   0  0  0  0  0  0  0  0  0  0  0  0
   -4.2608   -3.2659    0.0300 C   0  0  0  0  0  0  0  0  0  0  0  0
    4.2146    1.5540    0.0278 O   0  0  0  0  0  0  0  0  0  0  0  0
    5.6253    1.4783   -0.1870 C   0  0  0  0  0  0  0  0  0  0  0  0
    7.2930   -1.5340    0.5382 H   0  0  0  0  0  0  0  0  0  0  0  0
    6.0625   -0.9975    1.7071 H   0  0  0  0  0  0  0  0  0  0  0  0
    5.8558   -2.5392    0.8418 H   0  0  0  0  0  0  0  0  0  0  0  0
    1.8381    2.4882    0.2864 H   0  0  0  0  0  0  0  0  0  0  0  0
   -0.0610    3.4061   -0.4106 H   0  0  0  0  0  0  0  0  0  0  0  0
   -0.7322    2.1703   -1.5036 H   0  0  0  0  0  0  0  0  0  0  0  0
   -2.0011    3.1628    1.0932 H   0  0  0  0  0  0  0  0  0  0  0  0
   -2.5592    3.5306   -0.5585 H   0  0  0  0  0  0  0  0  0  0  0  0
   -4.7471    2.4952   -0.0043 H   0  0  0  0  0  0  0  0  0  0  0  0
   -2.4146   -1.8724    0.0839 H   0  0  0  0  0  0  0  0  0  0  0  0
   -0.6047   -1.8307   -0.2093 H   0  0  0  0  0  0  0  0  0  0  0  0
    1.5794   -3.0095   -0.3756 H   0  0  0  0  0  0  0  0  0  0  0  0
    4.0172   -2.9305   -0.4285 H   0  0  0  0  0  0  0  0  0  0  0  0
   -4.9474   -4.1122    0.0103 H   0  0  0  0  0  0  0  0  0  0  0  0
   -3.6052   -3.3096   -0.8397 H   0  0  0  0  0  0  0  0  0  0  0  0
   -3.6611   -3.3057    0.9394 H   0  0  0  0  0  0  0  0  0  0  0  0
    5.8216    0.9969   -1.1451 H   0  0  0  0  0  0  0  0  0  0  0  0
    6.0465    2.4836   -0.1925 H   0  0  0  0  0  0  0  0  0  0  0  0
    6.0839    0.8965    0.6126 H   0  0  0  0  0  0  0  0  0  0  0  0
  1  2  1  0  0  0  0
  2  3  1  0  0  0  0
  3  4  2  0  0  0  0
  4  5  1  0  0  0  0
  5  6  2  0  0  0  0
  6  7  1  0  0  0  0
  7  8  1  0  0  0  0
  7  9  1  0  0  0  0
  9 10  1  0  0  0  0
 10 11  1  0  0  0  0
 11 12  2  0  0  0  0
 12 13  1  0  0  0  0
 13 14  2  0  0  0  0
 13 15  1  0  0  0  0
 15 16  2  0  0  0  0
 16 17  1  0  0  0  0
 11 17  1  0  0  0  0
 17 18  2  0  0  0  0
  7 18  1  0  0  0  0
 18 19  1  0  0  0  0
 19 20  2  0  0  0  0
  5 20  1  0  0  0  0
 20 21  1  0  0  0  0
 21 22  2  0  0  0  0
  3 22  1  0  0  0  0
 15 23  1  0  0  0  0
 23 24  1  0  0  0  0
  4 25  1  0  0  0  0
 25 26  1  0  0  0  0
  1 27  1  0  0  0  0
  1 28  1  0  0  0  0
  1 29  1  0  0  0  0
  6 30  1  0  0  0  0
  9 31  1  0  0  0  0
  9 32  1  0  0  0  0
 10 33  1  0  0  0  0
 10 34  1  0  0  0  0
 12 35  1  0  0  0  0
 16 36  1  0  0  0  0
 19 37  1  0  0  0  0
 21 38  1  0  0  0  0
 22 39  1  0  0  0  0
 24 40  1  0  0  0  0
 24 41  1  0  0  0  0
 24 42  1  0  0  0  0
 26 43  1  0  0  0  0
 26 44  1  0  0  0  0
 26 45  1  0  0  0  0
M  CHG  1   7   1
M  END
$$$$
