C21H20O6
APtclcactv06291803043D 0   0.00000     0.00000
 
 47 49  0  0  0  0  0  0  0  0999 V2000
    5.4405   -2.5933   -1.2029 C   0  0  0  0  0  0  0  0  0  0  0  0
    5.4970   -2.0069    0.1842 C   0  0  0  0  0  0  0  0  0  0  0  0
    5.1970   -0.7461    0.3751 C   0  0  0  0  0  0  0  0  0  0  0  0
    4.6756    0.0858   -0.7683 C   0  0  0  0  0  0  0  0  0  0  0  0
    3.3746    0.7318   -0.3670 C   0  0  0  0  0  0  0  0  0  0  0  0
    3.3780    1.9842    0.2374 C   0  0  0  0  0  0  0  0  0  0  0  0
    2.1912    2.5954    0.6093 C   0  0  0  0  0  0  0  0  0  0  0  0
    0.9787    1.9594    0.3820 C   0  0  0  0  0  0  0  0  0  0  0  0
    0.9763    0.6882   -0.2206 C   0  0  0  0  0  0  0  0  0  0  0  0
    2.1777    0.0813   -0.6052 C   0  0  0  0  0  0  0  0  0  0  0  0
    2.1685   -1.1394   -1.1979 O   0  0  0  0  0  0  0  0  0  0  0  0
   -0.3211    0.0229   -0.4293 C   0  0  0  0  0  0  0  0  0  0  0  0
   -0.4364   -0.9656   -1.1337 O   0  0  0  0  0  0  0  0  0  0  0  0
   -1.4732    0.6277    0.2682 C   0  0  0  0  0  0  0  0  0  0  0  0
   -1.3156    1.8625    0.8107 C   0  0  0  0  0  0  0  0  0  0  0  0
   -0.1791    2.5546    0.7270 O   0  0  0  0  0  0  0  0  0  0  0  0
   -2.7657   -0.0924    0.3730 C   0  0  0  0  0  0  0  0  0  0  0  0
   -3.9006    0.4154   -0.2566 C   0  0  0  0  0  0  0  0  0  0  0  0
   -5.1042   -0.2596   -0.1568 C   0  0  0  0  0  0  0  0  0  0  0  0
   -5.1795   -1.4438    0.5715 C   0  0  0  0  0  0  0  0  0  0  0  0
   -4.0500   -1.9479    1.1978 C   0  0  0  0  0  0  0  0  0  0  0  0
   -2.8458   -1.2811    1.0964 C   0  0  0  0  0  0  0  0  0  0  0  0
   -6.3629   -2.1068    0.6692 O   0  0  0  0  0  0  0  0  0  0  0  0
   -6.2136    0.2336   -0.7697 O   0  0  0  0  0  0  0  0  0  0  0  0
   -6.0635    1.4531   -1.4995 C   0  0  0  0  0  0  0  0  0  0  0  0
    4.5579    2.6153    0.4662 O   0  0  0  0  0  0  0  0  0  0  0  0
    5.8986   -2.8710    1.3518 C   0  0  0  0  0  0  0  0  0  0  0  0
    6.0630   -2.0009   -1.8734 H   0  0  0  0  0  0  0  0  0  0  0  0
    5.8069   -3.6196   -1.1787 H   0  0  0  0  0  0  0  0  0  0  0  0
    4.4106   -2.5836   -1.5598 H   0  0  0  0  0  0  0  0  0  0  0  0
    5.3234   -0.3028    1.3517 H   0  0  0  0  0  0  0  0  0  0  0  0
    5.4033    0.8583   -1.0170 H   0  0  0  0  0  0  0  0  0  0  0  0
    4.5118   -0.5522   -1.6367 H   0  0  0  0  0  0  0  0  0  0  0  0
    2.2098    3.5686    1.0772 H   0  0  0  0  0  0  0  0  0  0  0  0
    2.1067   -1.1078   -2.1624 H   0  0  0  0  0  0  0  0  0  0  0  0
   -2.1501    2.3047    1.3347 H   0  0  0  0  0  0  0  0  0  0  0  0
   -3.8408    1.3342   -0.8209 H   0  0  0  0  0  0  0  0  0  0  0  0
   -4.1116   -2.8664    1.7627 H   0  0  0  0  0  0  0  0  0  0  0  0
   -1.9672   -1.6759    1.5849 H   0  0  0  0  0  0  0  0  0  0  0  0
   -6.5074   -2.7587   -0.0303 H   0  0  0  0  0  0  0  0  0  0  0  0
   -5.3284    1.3140   -2.2921 H   0  0  0  0  0  0  0  0  0  0  0  0
   -7.0211    1.7346   -1.9374 H   0  0  0  0  0  0  0  0  0  0  0  0
   -5.7265    2.2407   -0.8255 H   0  0  0  0  0  0  0  0  0  0  0  0
    4.8487    3.1816   -0.2617 H   0  0  0  0  0  0  0  0  0  0  0  0
    6.1090   -3.8812    1.0007 H   0  0  0  0  0  0  0  0  0  0  0  0
    6.7907   -2.4561    1.8209 H   0  0  0  0  0  0  0  0  0  0  0  0
    5.0864   -2.9005    2.0782 H   0  0  0  0  0  0  0  0  0  0  0  0
  1  2  1  0  0  0  0
  2  3  2  0  0  0  0
  3  4  1  0  0  0  0
  4  5  1  0  0  0  0
  5  6  2  0  0  0  0
  6  7  1  0  0  0  0
  7  8  2  0  0  0  0
  8  9  1  0  0  0  0
  9 10  2  0  0  0  0
  5 10  1  0  0  0  0
 10 11  1  0  0  0  0
  9 12  1  0  0  0  0
 12 13  2  0  0  0  0
 12 14  1  0  0  0  0
 14 15  2  0  0  0  0
 15 16  1  0  0  0  0
  8 16  1  0  0  0  0
 14 17  1  0  0  0  0
 17 18  2  0  0  0  0
 18 19  1  0  0  0  0
 19 20  2  0  0  0  0
 20 21  1  0  0  0  0
 21 22  2  0  0  0  0
 17 22  1  0  0  0  0
 20 23  1  0  0  0  0
 19 24  1  0  0  0  0
 24 25  1  0  0  0  0
  6 26  1  0  0  0  0
  2 27  1  0  0  0  0
  1 28  1  0  0  0  0
  1 29  1  0  0  0  0
  1 30  1  0  0  0  0
  3 31  1  0  0  0  0
  4 32  1  0  0  0  0
  4 33  1  0  0  0  0
  7 34  1  0  0  0  0
 11 35  1  0  0  0  0
 15 36  1  0  0  0  0
 18 37  1  0  0  0  0
 21 38  1  0  0  0  0
 22 39  1  0  0  0  0
 23 40  1  0  0  0  0
 25 41  1  0  0  0  0
 25 42  1  0  0  0  0
 25 43  1  0  0  0  0
 26 44  1  0  0  0  0
 27 45  1  0  0  0  0
 27 46  1  0  0  0  0
 27 47  1  0  0  0  0
M  END
$$$$
