C15H26O2
APtclcactv06291803043D 0   0.00000     0.00000
 
 43 42  0  0  0  0  0  0  0  0999 V2000
   -4.1060    1.7607   -1.2479 C   0  0  0  0  0  0  0  0  0  0  0  0
   -4.9077    0.7617   -0.4540 C   0  0  0  0  0  0  0  0  0  0  0  0
   -4.3376   -0.3309   -0.0099 C   0  0  0  0  0  0  0  0  0  0  0  0
   -2.8555   -0.5347   -0.1911 C   0  0  0  0  0  0  0  0  0  0  0  0
   -2.2089   -0.8121    1.1675 C   0  0  0  0  0  0  0  0  0  0  0  0
   -0.7130   -0.8940    1.0046 C   0  0  0  0  0  0  0  0  0  0  0  0
    0.0282    0.1647    1.2189 C   0  0  0  0  0  0  0  0  0  0  0  0
    1.5299    0.0602    1.1475 C   0  0  0  0  0  0  0  0  0  0  0  0
    2.0679    1.1052    0.1680 C   0  0  0  0  0  0  0  0  0  0  0  0
    3.5695    1.0007    0.0967 C   0  0  0  0  0  0  0  0  0  0  0  0
    4.1323    0.2845   -0.8449 C   0  0  0  0  0  0  0  0  0  0  0  0
    5.6340    0.1800   -0.9162 C   0  0  0  0  0  0  0  0  0  0  0  0
    6.0067   -1.1817   -1.1369 O   0  0  0  0  0  0  0  0  0  0  0  0
    4.4238    1.7200    1.1085 C   0  0  0  0  0  0  0  0  0  0  0  0
   -0.0697   -2.1938    0.5951 C   0  0  0  0  0  0  0  0  0  0  0  0
   -2.6303   -1.6454   -1.0615 O   0  0  0  0  0  0  0  0  0  0  0  0
   -6.3653    1.0196   -0.1710 C   0  0  0  0  0  0  0  0  0  0  0  0
   -3.6438    1.2612   -2.0994 H   0  0  0  0  0  0  0  0  0  0  0  0
   -4.7639    2.5532   -1.6048 H   0  0  0  0  0  0  0  0  0  0  0  0
   -3.3304    2.1903   -0.6139 H   0  0  0  0  0  0  0  0  0  0  0  0
   -4.9298   -1.0857    0.4861 H   0  0  0  0  0  0  0  0  0  0  0  0
   -2.4159    0.3628   -0.6262 H   0  0  0  0  0  0  0  0  0  0  0  0
   -2.4555   -0.0060    1.8586 H   0  0  0  0  0  0  0  0  0  0  0  0
   -2.5837   -1.7565    1.5622 H   0  0  0  0  0  0  0  0  0  0  0  0
   -0.4370    1.1124    1.4467 H   0  0  0  0  0  0  0  0  0  0  0  0
    1.9537    0.2366    2.1361 H   0  0  0  0  0  0  0  0  0  0  0  0
    1.8089   -0.9363    0.8052 H   0  0  0  0  0  0  0  0  0  0  0  0
    1.6440    0.9287   -0.8206 H   0  0  0  0  0  0  0  0  0  0  0  0
    1.7888    2.1017    0.5104 H   0  0  0  0  0  0  0  0  0  0  0  0
    3.5201   -0.2310   -1.5700 H   0  0  0  0  0  0  0  0  0  0  0  0
    6.0024    0.7952   -1.7371 H   0  0  0  0  0  0  0  0  0  0  0  0
    6.0673    0.5280    0.0215 H   0  0  0  0  0  0  0  0  0  0  0  0
    6.9615   -1.3239   -1.1938 H   0  0  0  0  0  0  0  0  0  0  0  0
    4.6014    1.0677    1.9635 H   0  0  0  0  0  0  0  0  0  0  0  0
    5.3768    1.9898    0.6533 H   0  0  0  0  0  0  0  0  0  0  0  0
    3.9113    2.6228    1.4406 H   0  0  0  0  0  0  0  0  0  0  0  0
    0.0787   -2.2015   -0.4847 H   0  0  0  0  0  0  0  0  0  0  0  0
    0.8935   -2.2958    1.0950 H   0  0  0  0  0  0  0  0  0  0  0  0
   -0.7161   -3.0244    0.8790 H   0  0  0  0  0  0  0  0  0  0  0  0
   -2.9954   -2.4799   -0.7368 H   0  0  0  0  0  0  0  0  0  0  0  0
   -6.9714    0.5957   -0.9717 H   0  0  0  0  0  0  0  0  0  0  0  0
   -6.6390    0.5557    0.7765 H   0  0  0  0  0  0  0  0  0  0  0  0
   -6.5396    2.0940   -0.1133 H   0  0  0  0  0  0  0  0  0  0  0  0
  1  2  1  0  0  0  0
  2  3  2  0  0  0  0
  3  4  1  0  0  0  0
  4  5  1  0  0  0  0
  5  6  1  0  0  0  0
  6  7  2  0  0  0  0
  7  8  1  0  0  0  0
  8  9  1  0  0  0  0
  9 10  1  0  0  0  0
 10 11  2  0  0  0  0
 11 12  1  0  0  0  0
 12 13  1  0  0  0  0
 10 14  1  0  0  0  0
  6 15  1  0  0  0  0
  4 16  1  0  0  0  0
  2 17  1  0  0  0  0
  1 18  1  0  0  0  0
  1 19  1  0  0  0  0
  1 20  1  0  0  0  0
  3 21  1  0  0  0  0
  4 22  1  0  0  0  0
  5 23  1  0  0  0  0
  5 24  1  0  0  0  0
  7 25  1  0  0  0  0
  8 26  1  0  0  0  0
  8 27  1  0  0  0  0
  9 28  1  0  0  0  0
  9 29  1  0  0  0  0
 11 30  1  0  0  0  0
 12 31  1  0  0  0  0
 12 32  1  0  0  0  0
 13 33  1  0  0  0  0
 14 34  1  0  0  0  0
 14 35  1  0  0  0  0
 14 36  1  0  0  0  0
 15 37  1  0  0  0  0
 15 38  1  0  0  0  0
 15 39  1  0  0  0  0
 16 40  1  0  0  0  0
 17 41  1  0  0  0  0
 17 42  1  0  0  0  0
 17 43  1  0  0  0  0
M  END
$$$$
