C15H8O6
APtclcactv06211804453D 0   0.00000     0.00000
 
 29 31  0  0  0  0  0  0  0  0999 V2000
    4.2055   -1.7417   -0.3442 C   0  0  0  0  0  0  0  0  0  0  0  0
    2.8988   -2.1589   -0.1448 C   0  0  0  0  0  0  0  0  0  0  0  0
    1.8912   -1.2202    0.0426 C   0  0  0  0  0  0  0  0  0  0  0  0
    2.2038    0.1531    0.0297 C   0  0  0  0  0  0  0  0  0  0  0  0
    3.5254    0.5594   -0.1719 C   0  0  0  0  0  0  0  0  0  0  0  0
    4.5191   -0.3980   -0.3583 C   0  0  0  0  0  0  0  0  0  0  0  0
    3.8384    1.8785   -0.1865 O   0  0  0  0  0  0  0  0  0  0  0  0
    1.1337    1.1489    0.2279 C   0  0  0  0  0  0  0  0  0  0  0  0
    1.4099    2.3080    0.4694 O   0  0  0  0  0  0  0  0  0  0  0  0
   -0.2780    0.7221    0.1291 C   0  0  0  0  0  0  0  0  0  0  0  0
   -1.2979    1.6695    0.0223 C   0  0  0  0  0  0  0  0  0  0  0  0
   -2.6224    1.2534   -0.0701 C   0  0  0  0  0  0  0  0  0  0  0  0
   -2.9335   -0.1039   -0.0560 C   0  0  0  0  0  0  0  0  0  0  0  0
   -1.9174   -1.0582    0.0507 C   0  0  0  0  0  0  0  0  0  0  0  0
   -0.5936   -0.6513    0.1427 C   0  0  0  0  0  0  0  0  0  0  0  0
    0.4921   -1.6497    0.2543 C   0  0  0  0  0  0  0  0  0  0  0  0
    0.2373   -2.8088    0.5160 O   0  0  0  0  0  0  0  0  0  0  0  0
   -4.3444   -0.5376   -0.1539 C   0  0  0  0  0  0  0  0  0  0  0  0
   -4.6183   -1.7207   -0.1419 O   0  0  0  0  0  0  0  0  0  0  0  0
   -5.3254    0.3797   -0.2564 O   0  0  0  0  0  0  0  0  0  0  0  0
   -0.9984    2.9921    0.0089 O   0  0  0  0  0  0  0  0  0  0  0  0
    4.9858   -2.4749   -0.4854 H   0  0  0  0  0  0  0  0  0  0  0  0
    2.6637   -3.2130   -0.1354 H   0  0  0  0  0  0  0  0  0  0  0  0
    5.5416   -0.0871   -0.5142 H   0  0  0  0  0  0  0  0  0  0  0  0
    4.0694    2.2375    0.6812 H   0  0  0  0  0  0  0  0  0  0  0  0
   -3.4120    1.9857   -0.1526 H   0  0  0  0  0  0  0  0  0  0  0  0
   -2.1621   -2.1101    0.0620 H   0  0  0  0  0  0  0  0  0  0  0  0
   -6.2317    0.0482   -0.3178 H   0  0  0  0  0  0  0  0  0  0  0  0
   -0.8422    3.3511   -0.8752 H   0  0  0  0  0  0  0  0  0  0  0  0
  1  2  2  0  0  0  0
  2  3  1  0  0  0  0
  3  4  2  0  0  0  0
  4  5  1  0  0  0  0
  5  6  2  0  0  0  0
  1  6  1  0  0  0  0
  5  7  1  0  0  0  0
  4  8  1  0  0  0  0
  8  9  2  0  0  0  0
  8 10  1  0  0  0  0
 10 11  2  0  0  0  0
 11 12  1  0  0  0  0
 12 13  2  0  0  0  0
 13 14  1  0  0  0  0
 14 15  2  0  0  0  0
 10 15  1  0  0  0  0
 15 16  1  0  0  0  0
  3 16  1  0  0  0  0
 16 17  2  0  0  0  0
 13 18  1  0  0  0  0
 18 19  2  0  0  0  0
 18 20  1  0  0  0  0
 11 21  1  0  0  0  0
  1 22  1  0  0  0  0
  2 23  1  0  0  0  0
  6 24  1  0  0  0  0
  7 25  1  0  0  0  0
 12 26  1  0  0  0  0
 14 27  1  0  0  0  0
 20 28  1  0  0  0  0
 21 29  1  0  0  0  0
M  END
$$$$
