C31H52O
APtclcactv06291803043D 0   0.00000     0.00000
 
 84 87  0  0  0  0  0  0  0  0999 V2000
   -8.4379   -0.6304    2.0726 C   0  0  0  0  0  0  0  0  0  0  0  0
   -7.1388   -1.2822    1.5945 C   0  0  0  0  0  0  0  0  0  0  0  0
   -6.2973   -0.2499    0.8414 C   0  0  0  0  0  0  0  0  0  0  0  0
   -4.9334   -0.8539    0.5013 C   0  0  0  0  0  0  0  0  0  0  0  0
   -4.0400    0.2215   -0.1202 C   0  0  0  0  0  0  0  0  0  0  0  0
   -2.6365   -0.3464   -0.3410 C   0  0  0  0  0  0  0  0  0  0  0  0
   -2.6983   -1.4700   -1.3776 C   0  0  0  0  0  0  0  0  0  0  0  0
   -1.7160    0.7569   -0.8428 C   0  0  0  0  0  0  0  0  0  0  0  0
   -1.7490    1.9984    0.0855 C   0  0  0  0  0  0  0  0  0  0  0  0
   -0.2683    2.2885    0.4703 C   0  0  0  0  0  0  0  0  0  0  0  0
    0.3477    0.8854    0.4145 C   0  0  0  0  0  0  0  0  0  0  0  0
   -0.2537    0.3320   -0.8957 C   0  0  0  0  0  0  0  0  0  0  0  0
    0.0920   -1.1371   -0.9485 C   0  0  0  0  0  0  0  0  0  0  0  0
    1.6151   -1.2510   -1.0659 C   0  0  0  0  0  0  0  0  0  0  0  0
    2.3879   -0.1742   -0.3428 C   0  0  0  0  0  0  0  0  0  0  0  0
    1.8440    0.8094    0.3277 C   0  0  0  0  0  0  0  0  0  0  0  0
    2.6096    1.8875    1.0550 C   0  0  0  0  0  0  0  0  0  0  0  0
    4.0951    1.8958    0.6873 C   0  0  0  0  0  0  0  0  0  0  0  0
    4.5474    0.4330    0.7083 C   0  0  0  0  0  0  0  0  0  0  0  0
    3.9031   -0.2849   -0.4593 C   0  0  0  0  0  0  0  0  0  0  0  0
    4.3178   -1.7544   -0.4664 C   0  0  0  0  0  0  0  0  0  0  0  0
    5.8419   -1.8542   -0.5312 C   0  0  0  0  0  0  0  0  0  0  0  0
    6.4785   -1.1819    0.6792 C   0  0  0  0  0  0  0  0  0  0  0  0
    6.0431    0.2739    0.8255 C   0  0  0  0  0  0  0  0  0  0  0  0
    6.8285    1.1741   -0.1225 C   0  0  0  0  0  0  0  0  0  0  0  0
    6.1272   -1.9046    1.8642 O   0  0  0  0  0  0  0  0  0  0  0  0
    4.2893    0.3371   -1.8012 C   0  0  0  0  0  0  0  0  0  0  0  0
    0.3788    1.0419   -2.1131 C   0  0  0  0  0  0  0  0  0  0  0  0
   -0.1066    0.1002    1.6488 C   0  0  0  0  0  0  0  0  0  0  0  0
   -7.0040    0.1430   -0.4303 C   0  0  0  0  0  0  0  0  0  0  0  0
   -7.3458    1.3916   -0.6308 C   0  0  0  0  0  0  0  0  0  0  0  0
   -7.3174   -0.9005   -1.4714 C   0  0  0  0  0  0  0  0  0  0  0  0
   -9.0738   -1.3848    2.5359 H   0  0  0  0  0  0  0  0  0  0  0  0
   -8.2076    0.1475    2.8005 H   0  0  0  0  0  0  0  0  0  0  0  0
   -8.9577   -0.1897    1.2219 H   0  0  0  0  0  0  0  0  0  0  0  0
   -6.5789   -1.6498    2.4544 H   0  0  0  0  0  0  0  0  0  0  0  0
   -7.3727   -2.1144    0.9305 H   0  0  0  0  0  0  0  0  0  0  0  0
   -6.1584    0.6318    1.4671 H   0  0  0  0  0  0  0  0  0  0  0  0
   -4.4669   -1.2329    1.4106 H   0  0  0  0  0  0  0  0  0  0  0  0
   -5.0647   -1.6714   -0.2077 H   0  0  0  0  0  0  0  0  0  0  0  0
   -4.4597    0.5347   -1.0761 H   0  0  0  0  0  0  0  0  0  0  0  0
   -3.9836    1.0790    0.5503 H   0  0  0  0  0  0  0  0  0  0  0  0
   -2.2520   -0.7406    0.5997 H   0  0  0  0  0  0  0  0  0  0  0  0
   -3.5345   -2.1305   -1.1482 H   0  0  0  0  0  0  0  0  0  0  0  0
   -2.8357   -1.0413   -2.3703 H   0  0  0  0  0  0  0  0  0  0  0  0
   -1.7687   -2.0386   -1.3529 H   0  0  0  0  0  0  0  0  0  0  0  0
   -2.0339    1.0623   -1.8519 H   0  0  0  0  0  0  0  0  0  0  0  0
   -2.1661    2.8521   -0.4480 H   0  0  0  0  0  0  0  0  0  0  0  0
   -2.3389    1.7908    0.9762 H   0  0  0  0  0  0  0  0  0  0  0  0
    0.2007    2.9646   -0.2341 H   0  0  0  0  0  0  0  0  0  0  0  0
   -0.2113    2.6851    1.4858 H   0  0  0  0  0  0  0  0  0  0  0  0
   -0.2628   -1.6979   -0.0944 H   0  0  0  0  0  0  0  0  0  0  0  0
   -0.3554   -1.5782   -1.8541 H   0  0  0  0  0  0  0  0  0  0  0  0
    1.9042   -2.2178   -0.6405 H   0  0  0  0  0  0  0  0  0  0  0  0
    1.8910   -1.2564   -2.1163 H   0  0  0  0  0  0  0  0  0  0  0  0
    2.1855    2.8585    0.7993 H   0  0  0  0  0  0  0  0  0  0  0  0
    2.5161    1.7293    2.1277 H   0  0  0  0  0  0  0  0  0  0  0  0
    4.2405    2.3643   -0.2740 H   0  0  0  0  0  0  0  0  0  0  0  0
    4.6433    2.4550    1.4540 H   0  0  0  0  0  0  0  0  0  0  0  0
    4.1028   -0.0100    1.6338 H   0  0  0  0  0  0  0  0  0  0  0  0
    3.9553   -2.2399    0.4407 H   0  0  0  0  0  0  0  0  0  0  0  0
    3.8846   -2.2501   -1.3375 H   0  0  0  0  0  0  0  0  0  0  0  0
    6.1213   -2.9176   -0.5282 H   0  0  0  0  0  0  0  0  0  0  0  0
    6.2210   -1.4163   -1.4509 H   0  0  0  0  0  0  0  0  0  0  0  0
    7.5702   -1.2153    0.5679 H   0  0  0  0  0  0  0  0  0  0  0  0
    6.3281    0.5849    1.8587 H   0  0  0  0  0  0  0  0  0  0  0  0
    6.6073    0.8972   -1.1533 H   0  0  0  0  0  0  0  0  0  0  0  0
    6.5439    2.2130    0.0437 H   0  0  0  0  0  0  0  0  0  0  0  0
    7.8958    1.0554    0.0644 H   0  0  0  0  0  0  0  0  0  0  0  0
    6.4183   -2.8268    1.8633 H   0  0  0  0  0  0  0  0  0  0  0  0
    5.3518    0.1763   -1.9838 H   0  0  0  0  0  0  0  0  0  0  0  0
    3.7091   -0.1284   -2.5979 H   0  0  0  0  0  0  0  0  0  0  0  0
    4.0824    1.4071   -1.7787 H   0  0  0  0  0  0  0  0  0  0  0  0
    1.4554    0.8714   -2.1142 H   0  0  0  0  0  0  0  0  0  0  0  0
   -0.0532    0.6433   -3.0310 H   0  0  0  0  0  0  0  0  0  0  0  0
    0.1805    2.1120   -2.0530 H   0  0  0  0  0  0  0  0  0  0  0  0
   -1.1935    0.0192    1.6481 H   0  0  0  0  0  0  0  0  0  0  0  0
    0.3321   -0.8974    1.6266 H   0  0  0  0  0  0  0  0  0  0  0  0
    0.2184    0.6201    2.5500 H   0  0  0  0  0  0  0  0  0  0  0  0
   -7.8523    1.6732   -1.5422 H   0  0  0  0  0  0  0  0  0  0  0  0
   -7.1212    2.1395    0.1153 H   0  0  0  0  0  0  0  0  0  0  0  0
   -6.9599   -1.8723   -1.1309 H   0  0  0  0  0  0  0  0  0  0  0  0
   -8.3951   -0.9446   -1.6287 H   0  0  0  0  0  0  0  0  0  0  0  0
   -6.8239   -0.6395   -2.4076 H   0  0  0  0  0  0  0  0  0  0  0  0
  1  2  1  0  0  0  0
  2  3  1  0  0  0  0
  3  4  1  0  0  0  0
  4  5  1  0  0  0  0
  5  6  1  0  0  0  0
  6  7  1  0  0  0  0
  6  8  1  0  0  0  0
  8  9  1  0  0  0  0
  9 10  1  0  0  0  0
 10 11  1  0  0  0  0
 11 12  1  0  0  0  0
  8 12  1  0  0  0  0
 12 13  1  0  0  0  0
 13 14  1  0  0  0  0
 14 15  1  0  0  0  0
 15 16  2  0  0  0  0
 11 16  1  0  0  0  0
 16 17  1  0  0  0  0
 17 18  1  0  0  0  0
 18 19  1  0  0  0  0
 19 20  1  0  0  0  0
 15 20  1  0  0  0  0
 20 21  1  0  0  0  0
 21 22  1  0  0  0  0
 22 23  1  0  0  0  0
 23 24  1  0  0  0  0
 19 24  1  0  0  0  0
 24 25  1  0  0  0  0
 23 26  1  0  0  0  0
 20 27  1  0  0  0  0
 12 28  1  0  0  0  0
 11 29  1  0  0  0  0
  3 30  1  0  0  0  0
 30 31  2  0  0  0  0
 30 32  1  0  0  0  0
  1 33  1  0  0  0  0
  1 34  1  0  0  0  0
  1 35  1  0  0  0  0
  2 36  1  0  0  0  0
  2 37  1  0  0  0  0
  3 38  1  0  0  0  0
  4 39  1  0  0  0  0
  4 40  1  0  0  0  0
  5 41  1  0  0  0  0
  5 42  1  0  0  0  0
  6 43  1  0  0  0  0
  7 44  1  0  0  0  0
  7 45  1  0  0  0  0
  7 46  1  0  0  0  0
  8 47  1  0  0  0  0
  9 48  1  0  0  0  0
  9 49  1  0  0  0  0
 10 50  1  0  0  0  0
 10 51  1  0  0  0  0
 13 52  1  0  0  0  0
 13 53  1  0  0  0  0
 14 54  1  0  0  0  0
 14 55  1  0  0  0  0
 17 56  1  0  0  0  0
 17 57  1  0  0  0  0
 18 58  1  0  0  0  0
 18 59  1  0  0  0  0
 19 60  1  0  0  0  0
 21 61  1  0  0  0  0
 21 62  1  0  0  0  0
 22 63  1  0  0  0  0
 22 64  1  0  0  0  0
 23 65  1  0  0  0  0
 24 66  1  0  0  0  0
 25 67  1  0  0  0  0
 25 68  1  0  0  0  0
 25 69  1  0  0  0  0
 26 70  1  0  0  0  0
 27 71  1  0  0  0  0
 27 72  1  0  0  0  0
 27 73  1  0  0  0  0
 28 74  1  0  0  0  0
 28 75  1  0  0  0  0
 28 76  1  0  0  0  0
 29 77  1  0  0  0  0
 29 78  1  0  0  0  0
 29 79  1  0  0  0  0
 31 80  1  0  0  0  0
 31 81  1  0  0  0  0
 32 82  1  0  0  0  0
 32 83  1  0  0  0  0
 32 84  1  0  0  0  0
M  END
$$$$
