C10H18O
APtclcactv06211806343D 0   0.00000     0.00000
 
 29 30  0  0  0  0  0  0  0  0999 V2000
   -1.7209    1.3743    0.7027 C   0  0  0  0  0  0  0  0  0  0  0  0
   -0.5514    0.7983   -0.0982 C   0  0  0  0  0  0  0  0  0  0  0  0
    0.8050    1.1815    0.5686 C   0  0  0  0  0  0  0  0  0  0  0  0
    1.8863    0.7410   -0.4650 C   0  0  0  0  0  0  0  0  0  0  0  0
    1.8555   -0.8040   -0.4282 C   0  0  0  0  0  0  0  0  0  0  0  0
    0.7586   -1.1515    0.6241 C   0  0  0  0  0  0  0  0  0  0  0  0
    0.9384    0.0366    1.6338 C   0  0  0  0  0  0  0  0  0  0  0  0
   -0.5821   -0.7468   -0.0614 C   0  0  0  0  0  0  0  0  0  0  0  0
   -1.7729   -1.2370    0.7648 C   0  0  0  0  0  0  0  0  0  0  0  0
   -0.6431   -1.2755   -1.3876 O   0  0  0  0  0  0  0  0  0  0  0  0
   -0.5965    1.3009   -1.5426 C   0  0  0  0  0  0  0  0  0  0  0  0
   -1.6514    2.4619    0.7161 H   0  0  0  0  0  0  0  0  0  0  0  0
   -2.6610    1.0760    0.2385 H   0  0  0  0  0  0  0  0  0  0  0  0
   -1.6836    0.9951    1.7239 H   0  0  0  0  0  0  0  0  0  0  0  0
    0.8840    2.2056    0.9336 H   0  0  0  0  0  0  0  0  0  0  0  0
    1.6297    1.1026   -1.4607 H   0  0  0  0  0  0  0  0  0  0  0  0
    2.8683    1.1087   -0.1676 H   0  0  0  0  0  0  0  0  0  0  0  0
    1.5839   -1.2020   -1.4059 H   0  0  0  0  0  0  0  0  0  0  0  0
    2.8225   -1.1959   -0.1127 H   0  0  0  0  0  0  0  0  0  0  0  0
    0.8054   -2.1548    1.0476 H   0  0  0  0  0  0  0  0  0  0  0  0
    1.9218    0.0282    2.1039 H   0  0  0  0  0  0  0  0  0  0  0  0
    0.1376    0.0701    2.3724 H   0  0  0  0  0  0  0  0  0  0  0  0
   -1.7196   -0.8116    1.7669 H   0  0  0  0  0  0  0  0  0  0  0  0
   -2.7008   -0.9241    0.2861 H   0  0  0  0  0  0  0  0  0  0  0  0
   -1.7466   -2.3248    0.8300 H   0  0  0  0  0  0  0  0  0  0  0  0
   -0.6134   -2.2412   -1.4278 H   0  0  0  0  0  0  0  0  0  0  0  0
   -0.3850    2.3700   -1.5620 H   0  0  0  0  0  0  0  0  0  0  0  0
    0.1501    0.7720   -2.1348 H   0  0  0  0  0  0  0  0  0  0  0  0
   -1.5869    1.1189   -1.9598 H   0  0  0  0  0  0  0  0  0  0  0  0
  1  2  1  0  0  0  0
  2  3  1  0  0  0  0
  3  4  1  0  0  0  0
  4  5  1  0  0  0  0
  5  6  1  0  0  0  0
  6  7  1  0  0  0  0
  3  7  1  0  0  0  0
  6  8  1  0  0  0  0
  2  8  1  0  0  0  0
  8  9  1  0  0  0  0
  8 10  1  0  0  0  0
  2 11  1  0  0  0  0
  1 12  1  0  0  0  0
  1 13  1  0  0  0  0
  1 14  1  0  0  0  0
  3 15  1  0  0  0  0
  4 16  1  0  0  0  0
  4 17  1  0  0  0  0
  5 18  1  0  0  0  0
  5 19  1  0  0  0  0
  6 20  1  0  0  0  0
  7 21  1  0  0  0  0
  7 22  1  0  0  0  0
  9 23  1  0  0  0  0
  9 24  1  0  0  0  0
  9 25  1  0  0  0  0
 10 26  1  0  0  0  0
 11 27  1  0  0  0  0
 11 28  1  0  0  0  0
 11 29  1  0  0  0  0
M  END
$$$$
