C20H18O6
APtclcactv06211804363D 0   0.00000     0.00000
 
 44 49  0  0  0  0  0  0  0  0999 V2000
   -0.1622    1.8391    1.5560 C   0  0  0  0  0  0  0  0  0  0  0  0
   -0.6066    0.8097    0.4893 C   0  0  0  0  0  0  0  0  0  0  0  0
    0.6073    0.8073   -0.4912 C   0  0  0  0  0  0  0  0  0  0  0  0
    0.1621    1.8303   -1.5638 C   0  0  0  0  0  0  0  0  0  0  0  0
   -1.2618    1.6253   -1.6698 O   0  0  0  0  0  0  0  0  0  0  0  0
   -1.7547    1.4164   -0.3365 C   0  0  0  0  0  0  0  0  0  0  0  0
   -2.9228    0.4646   -0.3658 C   0  0  0  0  0  0  0  0  0  0  0  0
   -4.0043    0.6741    0.4693 C   0  0  0  0  0  0  0  0  0  0  0  0
   -5.0794   -0.1993    0.4438 C   0  0  0  0  0  0  0  0  0  0  0  0
   -5.0671   -1.2878   -0.4248 C   0  0  0  0  0  0  0  0  0  0  0  0
   -3.9795   -1.4920   -1.2584 C   0  0  0  0  0  0  0  0  0  0  0  0
   -2.9129   -0.6130   -1.2319 C   0  0  0  0  0  0  0  0  0  0  0  0
   -6.2269   -1.9889   -0.2622 O   0  0  0  0  0  0  0  0  0  0  0  0
   -7.1256   -1.0929    0.4182 C   0  0  0  0  0  0  0  0  0  0  0  0
   -6.2470   -0.2184    1.1507 O   0  0  0  0  0  0  0  0  0  0  0  0
    1.7550    1.4197    0.3311 C   0  0  0  0  0  0  0  0  0  0  0  0
    1.2619    1.6358    1.6632 O   0  0  0  0  0  0  0  0  0  0  0  0
    2.9238    0.4690    0.3659 C   0  0  0  0  0  0  0  0  0  0  0  0
    3.9997    0.6676   -0.4790 C   0  0  0  0  0  0  0  0  0  0  0  0
    5.0755   -0.2048   -0.4486 C   0  0  0  0  0  0  0  0  0  0  0  0
    5.0695   -1.2813    0.4350 C   0  0  0  0  0  0  0  0  0  0  0  0
    3.9875   -1.4746    1.2783 C   0  0  0  0  0  0  0  0  0  0  0  0
    2.9202   -0.5966    1.2467 C   0  0  0  0  0  0  0  0  0  0  0  0
    6.2287   -1.9840    0.2744 O   0  0  0  0  0  0  0  0  0  0  0  0
    7.1224   -1.0969   -0.4240 C   0  0  0  0  0  0  0  0  0  0  0  0
    6.2385   -0.2330   -1.1627 O   0  0  0  0  0  0  0  0  0  0  0  0
   -0.3794    2.8537    1.2221 H   0  0  0  0  0  0  0  0  0  0  0  0
   -0.6501    1.6366    2.5094 H   0  0  0  0  0  0  0  0  0  0  0  0
   -0.8324   -0.1723    0.9050 H   0  0  0  0  0  0  0  0  0  0  0  0
    0.8339   -0.1769   -0.9012 H   0  0  0  0  0  0  0  0  0  0  0  0
    0.3786    2.8470   -1.2356 H   0  0  0  0  0  0  0  0  0  0  0  0
    0.6502    1.6228   -2.5160 H   0  0  0  0  0  0  0  0  0  0  0  0
   -2.0610    2.3678    0.0983 H   0  0  0  0  0  0  0  0  0  0  0  0
   -4.0109    1.5188    1.1422 H   0  0  0  0  0  0  0  0  0  0  0  0
   -3.9673   -2.3352   -1.9331 H   0  0  0  0  0  0  0  0  0  0  0  0
   -2.0661   -0.7735   -1.8827 H   0  0  0  0  0  0  0  0  0  0  0  0
   -7.7182   -0.5265   -0.3001 H   0  0  0  0  0  0  0  0  0  0  0  0
   -7.7729   -1.6444    1.1001 H   0  0  0  0  0  0  0  0  0  0  0  0
    2.0605    2.3688   -0.1091 H   0  0  0  0  0  0  0  0  0  0  0  0
    4.0015    1.5031   -1.1634 H   0  0  0  0  0  0  0  0  0  0  0  0
    3.9802   -2.3086    1.9645 H   0  0  0  0  0  0  0  0  0  0  0  0
    2.0777   -0.7487    1.9051 H   0  0  0  0  0  0  0  0  0  0  0  0
    7.7193   -0.5204    0.2826 H   0  0  0  0  0  0  0  0  0  0  0  0
    7.7656   -1.6574   -1.1025 H   0  0  0  0  0  0  0  0  0  0  0  0
  1  2  1  0  0  0  0
  2  3  1  0  0  0  0
  3  4  1  0  0  0  0
  4  5  1  0  0  0  0
  5  6  1  0  0  0  0
  2  6  1  0  0  0  0
  6  7  1  0  0  0  0
  7  8  2  0  0  0  0
  8  9  1  0  0  0  0
  9 10  2  0  0  0  0
 10 11  1  0  0  0  0
 11 12  2  0  0  0  0
  7 12  1  0  0  0  0
 10 13  1  0  0  0  0
 13 14  1  0  0  0  0
 14 15  1  0  0  0  0
  9 15  1  0  0  0  0
  3 16  1  0  0  0  0
 16 17  1  0  0  0  0
  1 17  1  0  0  0  0
 16 18  1  0  0  0  0
 18 19  2  0  0  0  0
 19 20  1  0  0  0  0
 20 21  2  0  0  0  0
 21 22  1  0  0  0  0
 22 23  2  0  0  0  0
 18 23  1  0  0  0  0
 21 24  1  0  0  0  0
 24 25  1  0  0  0  0
 25 26  1  0  0  0  0
 20 26  1  0  0  0  0
  1 27  1  0  0  0  0
  1 28  1  0  0  0  0
  2 29  1  0  0  0  0
  3 30  1  0  0  0  0
  4 31  1  0  0  0  0
  4 32  1  0  0  0  0
  6 33  1  0  0  0  0
  8 34  1  0  0  0  0
 11 35  1  0  0  0  0
 12 36  1  0  0  0  0
 14 37  1  0  0  0  0
 14 38  1  0  0  0  0
 16 39  1  0  0  0  0
 19 40  1  0  0  0  0
 22 41  1  0  0  0  0
 23 42  1  0  0  0  0
 25 43  1  0  0  0  0
 25 44  1  0  0  0  0
M  END
$$$$
