C44H45O25
APtclcactv06291803043D 0   0.00000     0.00000
 
114119  0  0  0  0  0  0  0  0999 V2000
   -7.3783    0.9188    3.8961 C   0  0  0  0  0  0  0  0  0  0  0  0
   -7.9889    1.4018    2.6979 O   0  0  0  0  0  0  0  0  0  0  0  0
   -7.1759    1.5940    1.6247 C   0  0  0  0  0  0  0  0  0  0  0  0
   -5.8232    1.3233    1.7253 C   0  0  0  0  0  0  0  0  0  0  0  0
   -4.9893    1.5203    0.6235 C   0  0  0  0  0  0  0  0  0  0  0  0
   -5.5227    1.9901   -0.5777 C   0  0  0  0  0  0  0  0  0  0  0  0
   -6.8760    2.2594   -0.6738 C   0  0  0  0  0  0  0  0  0  0  0  0
   -7.7065    2.0573    0.4245 C   0  0  0  0  0  0  0  0  0  0  0  0
   -9.0367    2.3223    0.3277 O   0  0  0  0  0  0  0  0  0  0  0  0
   -7.3962    2.7176   -1.8439 O   0  0  0  0  0  0  0  0  0  0  0  0
   -6.5096    2.7947   -2.9619 C   0  0  0  0  0  0  0  0  0  0  0  0
   -3.5423    1.2320    0.7288 C   0  0  0  0  0  0  0  0  0  0  0  0
   -2.9321    0.4670   -0.2817 C   0  0  0  0  0  0  0  0  0  0  0  0
   -1.5834    0.2079   -0.1678 C   0  0  0  0  0  0  0  0  0  0  0  0
   -0.9545    0.7501    0.9724 C   0  0  0  0  0  0  0  0  0  0  0  0
    0.4189    0.5635    1.2139 C   0  0  0  0  0  0  0  0  0  0  0  0
    0.9882    1.1070    2.3316 C   0  0  0  0  0  0  0  0  0  0  0  0
    0.2180    1.8440    3.2334 C   0  0  0  0  0  0  0  0  0  0  0  0
   -1.1289    2.0412    3.0208 C   0  0  0  0  0  0  0  0  0  0  0  0
   -1.7439    1.4975    1.8827 C   0  0  0  0  0  0  0  0  0  0  0  0
   -2.9321    1.6679    1.6777 O   0  3  0  0  0  0  0  0  0  0  0  0
    0.8054    2.3740    4.3373 O   0  0  0  0  0  0  0  0  0  0  0  0
    1.1742   -0.1525    0.3423 O   0  0  0  0  0  0  0  0  0  0  0  0
    2.5524   -0.3328    0.6742 C   0  0  0  0  0  0  0  0  0  0  0  0
    3.1818   -1.3425   -0.2891 C   0  0  0  0  0  0  0  0  0  0  0  0
    3.1160   -0.7859   -1.7146 C   0  0  0  0  0  0  0  0  0  0  0  0
    3.8222    0.5728   -1.7535 C   0  0  0  0  0  0  0  0  0  0  0  0
    3.1682    1.5086   -0.7337 C   0  0  0  0  0  0  0  0  0  0  0  0
    3.2362    0.9173    0.5655 O   0  0  0  0  0  0  0  0  0  0  0  0
    3.9065    2.8486   -0.7238 C   0  0  0  0  0  0  0  0  0  0  0  0
    3.2186    3.7737    0.1590 O   0  0  0  0  0  0  0  0  0  0  0  0
    3.6828    5.0324    0.2040 C   0  0  0  0  0  0  0  0  0  0  0  0
    4.5722    5.3752   -0.5386 O   0  0  0  0  0  0  0  0  0  0  0  0
    3.0947    6.0179    1.1807 C   0  0  0  0  0  0  0  0  0  0  0  0
    3.6716    7.3860    0.9226 C   0  0  0  0  0  0  0  0  0  0  0  0
    4.3858    7.5698   -0.0345 O   0  0  0  0  0  0  0  0  0  0  0  0
    3.3920    8.4004    1.7560 O   0  0  0  0  0  0  0  0  0  0  0  0
    5.2255    0.3998   -1.4232 O   0  0  0  0  0  0  0  0  0  0  0  0
    6.0667    0.1629   -2.4421 C   0  0  0  0  0  0  0  0  0  0  0  0
    5.6444    0.1021   -3.5725 O   0  0  0  0  0  0  0  0  0  0  0  0
    7.5378   -0.0272   -2.1760 C   0  0  0  0  0  0  0  0  0  0  0  0
    8.2556   -0.2766   -3.4774 C   0  0  0  0  0  0  0  0  0  0  0  0
    7.6361   -0.2978   -4.5146 O   0  0  0  0  0  0  0  0  0  0  0  0
    9.5830   -0.4752   -3.4844 O   0  0  0  0  0  0  0  0  0  0  0  0
    3.7668   -1.6888   -2.6109 O   0  0  0  0  0  0  0  0  0  0  0  0
    4.5459   -1.5635    0.0748 O   0  0  0  0  0  0  0  0  0  0  0  0
   -3.6499   -0.0020   -1.3365 O   0  0  0  0  0  0  0  0  0  0  0  0
   -4.4435   -1.1693   -1.1134 C   0  0  0  0  0  0  0  0  0  0  0  0
   -5.3420   -1.4156   -2.3283 C   0  0  0  0  0  0  0  0  0  0  0  0
   -4.4655   -1.6772   -3.5570 C   0  0  0  0  0  0  0  0  0  0  0  0
   -3.5409   -2.8636   -3.2677 C   0  0  0  0  0  0  0  0  0  0  0  0
   -2.7120   -2.5614   -2.0166 C   0  0  0  0  0  0  0  0  0  0  0  0
   -3.5880   -2.2972   -0.9188 O   0  0  0  0  0  0  0  0  0  0  0  0
   -1.8290   -3.7663   -1.6862 C   0  0  0  0  0  0  0  0  0  0  0  0
   -0.9803   -3.4464   -0.5818 O   0  0  0  0  0  0  0  0  0  0  0  0
   -0.2075   -4.4398   -0.0953 C   0  0  0  0  0  0  0  0  0  0  0  0
   -0.2930   -5.5604   -0.5607 O   0  0  0  0  0  0  0  0  0  0  0  0
    0.7042   -4.1773    0.9584 C   0  0  0  0  0  0  0  0  0  0  0  0
    1.4082   -5.1896    1.5102 C   0  0  0  0  0  0  0  0  0  0  0  0
    2.2608   -4.9392    2.6806 C   0  0  0  0  0  0  0  0  0  0  0  0
    3.0784   -5.9576    3.1849 C   0  0  0  0  0  0  0  0  0  0  0  0
    3.8751   -5.7177    4.2815 C   0  0  0  0  0  0  0  0  0  0  0  0
    3.8684   -4.4669    4.8885 C   0  0  0  0  0  0  0  0  0  0  0  0
    3.0584   -3.4521    4.3916 C   0  0  0  0  0  0  0  0  0  0  0  0
    2.2626   -3.6796    3.2917 C   0  0  0  0  0  0  0  0  0  0  0  0
    4.6552   -4.2359    5.9701 O   0  0  0  0  0  0  0  0  0  0  0  0
   -4.3251   -4.0380   -3.0488 O   0  0  0  0  0  0  0  0  0  0  0  0
   -5.2953   -1.9805   -4.6802 O   0  0  0  0  0  0  0  0  0  0  0  0
   -6.1739   -2.5516   -2.0845 O   0  0  0  0  0  0  0  0  0  0  0  0
   -6.6184    1.6264    4.2275 H   0  0  0  0  0  0  0  0  0  0  0  0
   -8.1364    0.8100    4.6718 H   0  0  0  0  0  0  0  0  0  0  0  0
   -6.9146   -0.0486    3.7032 H   0  0  0  0  0  0  0  0  0  0  0  0
   -5.4125    0.9602    2.6558 H   0  0  0  0  0  0  0  0  0  0  0  0
   -4.8792    2.1435   -1.4314 H   0  0  0  0  0  0  0  0  0  0  0  0
   -9.5677    1.5686    0.0362 H   0  0  0  0  0  0  0  0  0  0  0  0
   -6.1771    1.7923   -3.2317 H   0  0  0  0  0  0  0  0  0  0  0  0
   -7.0295    3.2449   -3.8076 H   0  0  0  0  0  0  0  0  0  0  0  0
   -5.6459    3.4056   -2.6994 H   0  0  0  0  0  0  0  0  0  0  0  0
   -1.0441   -0.3719   -0.9023 H   0  0  0  0  0  0  0  0  0  0  0  0
    2.0423    0.9649    2.5188 H   0  0  0  0  0  0  0  0  0  0  0  0
   -1.7103    2.6133    3.7287 H   0  0  0  0  0  0  0  0  0  0  0  0
    1.1551    3.2661    4.2067 H   0  0  0  0  0  0  0  0  0  0  0  0
    2.6347   -0.7047    1.6955 H   0  0  0  0  0  0  0  0  0  0  0  0
    2.6337   -2.2834   -0.2398 H   0  0  0  0  0  0  0  0  0  0  0  0
    2.0741   -0.6639   -2.0107 H   0  0  0  0  0  0  0  0  0  0  0  0
    3.7322    1.0016   -2.7516 H   0  0  0  0  0  0  0  0  0  0  0  0
    2.1250    1.6701   -1.0053 H   0  0  0  0  0  0  0  0  0  0  0  0
    4.9265    2.6988   -0.3696 H   0  0  0  0  0  0  0  0  0  0  0  0
    3.9290    3.2585   -1.7335 H   0  0  0  0  0  0  0  0  0  0  0  0
    2.0123    6.0507    1.0565 H   0  0  0  0  0  0  0  0  0  0  0  0
    3.3346    5.7085    2.1979 H   0  0  0  0  0  0  0  0  0  0  0  0
    3.7850    9.2594    1.5494 H   0  0  0  0  0  0  0  0  0  0  0  0
    7.9407    0.8694   -1.7049 H   0  0  0  0  0  0  0  0  0  0  0  0
    7.6799   -0.8809   -1.5133 H   0  0  0  0  0  0  0  0  0  0  0  0
    9.9991   -0.6312   -4.3433 H   0  0  0  0  0  0  0  0  0  0  0  0
    3.3750   -2.5727   -2.6320 H   0  0  0  0  0  0  0  0  0  0  0  0
    4.6629   -1.9119    0.9692 H   0  0  0  0  0  0  0  0  0  0  0  0
   -5.0618   -1.0246   -0.2275 H   0  0  0  0  0  0  0  0  0  0  0  0
   -5.9643   -0.5383   -2.5049 H   0  0  0  0  0  0  0  0  0  0  0  0
   -3.8667   -0.7923   -3.7728 H   0  0  0  0  0  0  0  0  0  0  0  0
   -2.8752   -3.0220   -4.1162 H   0  0  0  0  0  0  0  0  0  0  0  0
   -2.0840   -1.6893   -2.1985 H   0  0  0  0  0  0  0  0  0  0  0  0
   -2.4582   -4.6176   -1.4262 H   0  0  0  0  0  0  0  0  0  0  0  0
   -1.2179   -4.0176   -2.5531 H   0  0  0  0  0  0  0  0  0  0  0  0
    0.8357   -3.1682    1.3198 H   0  0  0  0  0  0  0  0  0  0  0  0
    1.3445   -6.1830    1.0912 H   0  0  0  0  0  0  0  0  0  0  0  0
    3.0837   -6.9298    2.7146 H   0  0  0  0  0  0  0  0  0  0  0  0
    4.5061   -6.5027    4.6714 H   0  0  0  0  0  0  0  0  0  0  0  0
    3.0566   -2.4823    4.8669 H   0  0  0  0  0  0  0  0  0  0  0  0
    1.6337   -2.8906    2.9065 H   0  0  0  0  0  0  0  0  0  0  0  0
    5.5614   -3.9804    5.7499 H   0  0  0  0  0  0  0  0  0  0  0  0
   -4.8801   -4.2861   -3.8008 H   0  0  0  0  0  0  0  0  0  0  0  0
   -5.9121   -1.2741   -4.9157 H   0  0  0  0  0  0  0  0  0  0  0  0
   -6.7534   -2.4571   -1.3161 H   0  0  0  0  0  0  0  0  0  0  0  0
  1  2  1  0  0  0  0
  2  3  1  0  0  0  0
  3  4  2  0  0  0  0
  4  5  1  0  0  0  0
  5  6  2  0  0  0  0
  6  7  1  0  0  0  0
  7  8  2  0  0  0  0
  3  8  1  0  0  0  0
  8  9  1  0  0  0  0
  7 10  1  0  0  0  0
 10 11  1  0  0  0  0
  5 12  1  0  0  0  0
 12 13  2  0  0  0  0
 13 14  1  0  0  0  0
 14 15  2  0  0  0  0
 15 16  1  0  0  0  0
 16 17  2  0  0  0  0
 17 18  1  0  0  0  0
 18 19  2  0  0  0  0
 19 20  1  0  0  0  0
 15 20  1  0  0  0  0
 20 21  2  0  0  0  0
 12 21  1  0  0  0  0
 18 22  1  0  0  0  0
 16 23  1  0  0  0  0
 23 24  1  0  0  0  0
 24 25  1  0  0  0  0
 25 26  1  0  0  0  0
 26 27  1  0  0  0  0
 27 28  1  0  0  0  0
 28 29  1  0  0  0  0
 24 29  1  0  0  0  0
 28 30  1  0  0  0  0
 30 31  1  0  0  0  0
 31 32  1  0  0  0  0
 32 33  2  0  0  0  0
 32 34  1  0  0  0  0
 34 35  1  0  0  0  0
 35 36  2  0  0  0  0
 35 37  1  0  0  0  0
 27 38  1  0  0  0  0
 38 39  1  0  0  0  0
 39 40  2  0  0  0  0
 39 41  1  0  0  0  0
 41 42  1  0  0  0  0
 42 43  2  0  0  0  0
 42 44  1  0  0  0  0
 26 45  1  0  0  0  0
 25 46  1  0  0  0  0
 13 47  1  0  0  0  0
 47 48  1  0  0  0  0
 48 49  1  0  0  0  0
 49 50  1  0  0  0  0
 50 51  1  0  0  0  0
 51 52  1  0  0  0  0
 52 53  1  0  0  0  0
 48 53  1  0  0  0  0
 52 54  1  0  0  0  0
 54 55  1  0  0  0  0
 55 56  1  0  0  0  0
 56 57  2  0  0  0  0
 56 58  1  0  0  0  0
 58 59  2  0  0  0  0
 59 60  1  0  0  0  0
 60 61  2  0  0  0  0
 61 62  1  0  0  0  0
 62 63  2  0  0  0  0
 63 64  1  0  0  0  0
 64 65  2  0  0  0  0
 60 65  1  0  0  0  0
 63 66  1  0  0  0  0
 51 67  1  0  0  0  0
 50 68  1  0  0  0  0
 49 69  1  0  0  0  0
  1 70  1  0  0  0  0
  1 71  1  0  0  0  0
  1 72  1  0  0  0  0
  4 73  1  0  0  0  0
  6 74  1  0  0  0  0
  9 75  1  0  0  0  0
 11 76  1  0  0  0  0
 11 77  1  0  0  0  0
 11 78  1  0  0  0  0
 14 79  1  0  0  0  0
 17 80  1  0  0  0  0
 19 81  1  0  0  0  0
 22 82  1  0  0  0  0
 24 83  1  0  0  0  0
 25 84  1  0  0  0  0
 26 85  1  0  0  0  0
 27 86  1  0  0  0  0
 28 87  1  0  0  0  0
 30 88  1  0  0  0  0
 30 89  1  0  0  0  0
 34 90  1  0  0  0  0
 34 91  1  0  0  0  0
 37 92  1  0  0  0  0
 41 93  1  0  0  0  0
 41 94  1  0  0  0  0
 44 95  1  0  0  0  0
 45 96  1  0  0  0  0
 46 97  1  0  0  0  0
 48 98  1  0  0  0  0
 49 99  1  0  0  0  0
 50100  1  0  0  0  0
 51101  1  0  0  0  0
 52102  1  0  0  0  0
 54103  1  0  0  0  0
 54104  1  0  0  0  0
 58105  1  0  0  0  0
 59106  1  0  0  0  0
 61107  1  0  0  0  0
 62108  1  0  0  0  0
 64109  1  0  0  0  0
 65110  1  0  0  0  0
 66111  1  0  0  0  0
 67112  1  0  0  0  0
 68113  1  0  0  0  0
 69114  1  0  0  0  0
M  CHG  1  21   1
M  END
$$$$
