C30H33O19
APtclcactv06291803053D 0   0.00000     0.00000
 
 82 86  0  0  0  0  0  0  0  0999 V2000
   -0.3666    2.1931   -1.7175 C   0  0  0  0  0  0  0  0  0  0  0  0
   -1.3272    2.7463   -2.5375 C   0  0  0  0  0  0  0  0  0  0  0  0
   -1.4918    4.1232   -2.5874 C   0  0  0  0  0  0  0  0  0  0  0  0
   -0.6866    4.9525   -1.8092 C   0  0  0  0  0  0  0  0  0  0  0  0
    0.2780    4.4037   -0.9853 C   0  0  0  0  0  0  0  0  0  0  0  0
    0.4429    3.0184   -0.9352 C   0  0  0  0  0  0  0  0  0  0  0  0
    1.4735    2.4263   -0.0547 C   0  0  0  0  0  0  0  0  0  0  0  0
    1.1643    1.2464    0.6461 C   0  0  0  0  0  0  0  0  0  0  0  0
    2.1362    0.7080    1.4615 C   0  0  0  0  0  0  0  0  0  0  0  0
    3.3558    1.4154    1.5020 C   0  0  0  0  0  0  0  0  0  0  0  0
    4.4342    0.9779    2.2925 C   0  0  0  0  0  0  0  0  0  0  0  0
    5.5989    1.6936    2.3021 C   0  0  0  0  0  0  0  0  0  0  0  0
    5.7254    2.8534    1.5349 C   0  0  0  0  0  0  0  0  0  0  0  0
    4.6846    3.3038    0.7525 C   0  0  0  0  0  0  0  0  0  0  0  0
    3.4758    2.5917    0.7196 C   0  0  0  0  0  0  0  0  0  0  0  0
    2.5486    2.9739    0.0290 O   0  3  0  0  0  0  0  0  0  0  0  0
    6.8919    3.5483    1.5607 O   0  0  0  0  0  0  0  0  0  0  0  0
    4.3188   -0.1482    3.0419 O   0  0  0  0  0  0  0  0  0  0  0  0
   -0.0541    0.6565    0.5233 O   0  0  0  0  0  0  0  0  0  0  0  0
   -0.2748   -0.5389    1.2745 C   0  0  0  0  0  0  0  0  0  0  0  0
   -1.7299   -0.9850    1.1084 C   0  0  0  0  0  0  0  0  0  0  0  0
   -1.9917   -1.3075   -0.3660 C   0  0  0  0  0  0  0  0  0  0  0  0
   -0.9990   -2.3790   -0.8270 C   0  0  0  0  0  0  0  0  0  0  0  0
    0.4279   -1.8791   -0.5861 C   0  0  0  0  0  0  0  0  0  0  0  0
    0.5948   -1.5682    0.7987 O   0  0  0  0  0  0  0  0  0  0  0  0
    1.4247   -2.9679   -0.9883 C   0  0  0  0  0  0  0  0  0  0  0  0
    2.7772   -2.4527   -0.8720 O   0  0  0  0  0  0  0  0  0  0  0  0
    3.7775   -3.2892   -1.1906 C   0  0  0  0  0  0  0  0  0  0  0  0
    3.5310   -4.4146   -1.5546 O   0  0  0  0  0  0  0  0  0  0  0  0
    5.2078   -2.8246   -1.0943 C   0  0  0  0  0  0  0  0  0  0  0  0
    6.1286   -3.9450   -1.5040 C   0  0  0  0  0  0  0  0  0  0  0  0
    5.6703   -5.0114   -1.8397 O   0  0  0  0  0  0  0  0  0  0  0  0
    7.4578   -3.7584   -1.4959 O   0  0  0  0  0  0  0  0  0  0  0  0
   -1.2153   -3.5812   -0.0853 O   0  0  0  0  0  0  0  0  0  0  0  0
   -3.3263   -1.7948   -0.5190 O   0  0  0  0  0  0  0  0  0  0  0  0
   -4.2926   -0.7731   -0.7729 C   0  0  0  0  0  0  0  0  0  0  0  0
   -5.6560   -1.4153   -1.0421 C   0  0  0  0  0  0  0  0  0  0  0  0
   -6.1062   -2.1812    0.2057 C   0  0  0  0  0  0  0  0  0  0  0  0
   -6.1420   -1.2187    1.3969 C   0  0  0  0  0  0  0  0  0  0  0  0
   -4.7599   -0.5841    1.5719 C   0  0  0  0  0  0  0  0  0  0  0  0
   -4.3885    0.0856    0.3653 O   0  0  0  0  0  0  0  0  0  0  0  0
   -4.8031    0.4237    2.7223 C   0  0  0  0  0  0  0  0  0  0  0  0
   -3.4884    0.9299    2.9617 O   0  0  0  0  0  0  0  0  0  0  0  0
   -7.1101   -0.1957    1.1553 O   0  0  0  0  0  0  0  0  0  0  0  0
   -7.4108   -2.7228   -0.0106 O   0  0  0  0  0  0  0  0  0  0  0  0
   -6.6112   -0.3975   -1.3483 O   0  0  0  0  0  0  0  0  0  0  0  0
   -1.9656   -2.1502    1.9013 O   0  0  0  0  0  0  0  0  0  0  0  0
   -0.8495    6.3017   -1.8608 O   0  0  0  0  0  0  0  0  0  0  0  0
   -2.4398    4.6639   -3.3970 O   0  0  0  0  0  0  0  0  0  0  0  0
   -0.2435    1.1209   -1.6771 H   0  0  0  0  0  0  0  0  0  0  0  0
   -1.9525    2.1065   -3.1425 H   0  0  0  0  0  0  0  0  0  0  0  0
    0.9030    5.0453   -0.3819 H   0  0  0  0  0  0  0  0  0  0  0  0
    1.9746   -0.1949    2.0317 H   0  0  0  0  0  0  0  0  0  0  0  0
    6.4279    1.3594    2.9083 H   0  0  0  0  0  0  0  0  0  0  0  0
    4.7988    4.2032    0.1657 H   0  0  0  0  0  0  0  0  0  0  0  0
    7.5311    3.2688    0.8911 H   0  0  0  0  0  0  0  0  0  0  0  0
    4.5863   -0.9558    2.5820 H   0  0  0  0  0  0  0  0  0  0  0  0
   -0.0709   -0.3489    2.3283 H   0  0  0  0  0  0  0  0  0  0  0  0
   -2.3954   -0.1838    1.4298 H   0  0  0  0  0  0  0  0  0  0  0  0
   -1.8602   -0.4065   -0.9652 H   0  0  0  0  0  0  0  0  0  0  0  0
   -1.1418   -2.5749   -1.8897 H   0  0  0  0  0  0  0  0  0  0  0  0
    0.6054   -0.9848   -1.1834 H   0  0  0  0  0  0  0  0  0  0  0  0
    1.3064   -3.8295   -0.3313 H   0  0  0  0  0  0  0  0  0  0  0  0
    1.2379   -3.2686   -2.0192 H   0  0  0  0  0  0  0  0  0  0  0  0
    5.3579   -1.9709   -1.7552 H   0  0  0  0  0  0  0  0  0  0  0  0
    5.4264   -2.5318   -0.0673 H   0  0  0  0  0  0  0  0  0  0  0  0
    8.0078   -4.5062   -1.7667 H   0  0  0  0  0  0  0  0  0  0  0  0
   -0.6200   -4.3043   -0.3258 H   0  0  0  0  0  0  0  0  0  0  0  0
   -3.9867   -0.1915   -1.6425 H   0  0  0  0  0  0  0  0  0  0  0  0
   -5.5744   -2.1044   -1.8827 H   0  0  0  0  0  0  0  0  0  0  0  0
   -5.4039   -2.9892    0.4108 H   0  0  0  0  0  0  0  0  0  0  0  0
   -6.4081   -1.7672    2.3005 H   0  0  0  0  0  0  0  0  0  0  0  0
   -4.0289   -1.3609    1.7962 H   0  0  0  0  0  0  0  0  0  0  0  0
   -5.4672    1.2470    2.4593 H   0  0  0  0  0  0  0  0  0  0  0  0
   -5.1727   -0.0679    3.6222 H   0  0  0  0  0  0  0  0  0  0  0  0
   -3.4404    1.5758    3.6798 H   0  0  0  0  0  0  0  0  0  0  0  0
   -8.0098   -0.5273    1.0298 H   0  0  0  0  0  0  0  0  0  0  0  0
   -7.4631   -3.3368   -0.7558 H   0  0  0  0  0  0  0  0  0  0  0  0
   -6.3868    0.1313   -2.1262 H   0  0  0  0  0  0  0  0  0  0  0  0
   -1.8140   -2.0195    2.8473 H   0  0  0  0  0  0  0  0  0  0  0  0
   -1.4848    6.6460   -1.2181 H   0  0  0  0  0  0  0  0  0  0  0  0
   -3.3022    4.7739   -2.9738 H   0  0  0  0  0  0  0  0  0  0  0  0
  1  2  2  0  0  0  0
  2  3  1  0  0  0  0
  3  4  2  0  0  0  0
  4  5  1  0  0  0  0
  5  6  2  0  0  0  0
  1  6  1  0  0  0  0
  6  7  1  0  0  0  0
  7  8  2  0  0  0  0
  8  9  1  0  0  0  0
  9 10  2  0  0  0  0
 10 11  1  0  0  0  0
 11 12  2  0  0  0  0
 12 13  1  0  0  0  0
 13 14  2  0  0  0  0
 14 15  1  0  0  0  0
 10 15  1  0  0  0  0
 15 16  2  0  0  0  0
  7 16  1  0  0  0  0
 13 17  1  0  0  0  0
 11 18  1  0  0  0  0
  8 19  1  0  0  0  0
 19 20  1  0  0  0  0
 20 21  1  0  0  0  0
 21 22  1  0  0  0  0
 22 23  1  0  0  0  0
 23 24  1  0  0  0  0
 24 25  1  0  0  0  0
 20 25  1  0  0  0  0
 24 26  1  0  0  0  0
 26 27  1  0  0  0  0
 27 28  1  0  0  0  0
 28 29  2  0  0  0  0
 28 30  1  0  0  0  0
 30 31  1  0  0  0  0
 31 32  2  0  0  0  0
 31 33  1  0  0  0  0
 23 34  1  0  0  0  0
 22 35  1  0  0  0  0
 35 36  1  0  0  0  0
 36 37  1  0  0  0  0
 37 38  1  0  0  0  0
 38 39  1  0  0  0  0
 39 40  1  0  0  0  0
 40 41  1  0  0  0  0
 36 41  1  0  0  0  0
 40 42  1  0  0  0  0
 42 43  1  0  0  0  0
 39 44  1  0  0  0  0
 38 45  1  0  0  0  0
 37 46  1  0  0  0  0
 21 47  1  0  0  0  0
  4 48  1  0  0  0  0
  3 49  1  0  0  0  0
  1 50  1  0  0  0  0
  2 51  1  0  0  0  0
  5 52  1  0  0  0  0
  9 53  1  0  0  0  0
 12 54  1  0  0  0  0
 14 55  1  0  0  0  0
 17 56  1  0  0  0  0
 18 57  1  0  0  0  0
 20 58  1  0  0  0  0
 21 59  1  0  0  0  0
 22 60  1  0  0  0  0
 23 61  1  0  0  0  0
 24 62  1  0  0  0  0
 26 63  1  0  0  0  0
 26 64  1  0  0  0  0
 30 65  1  0  0  0  0
 30 66  1  0  0  0  0
 33 67  1  0  0  0  0
 34 68  1  0  0  0  0
 36 69  1  0  0  0  0
 37 70  1  0  0  0  0
 38 71  1  0  0  0  0
 39 72  1  0  0  0  0
 40 73  1  0  0  0  0
 42 74  1  0  0  0  0
 42 75  1  0  0  0  0
 43 76  1  0  0  0  0
 44 77  1  0  0  0  0
 45 78  1  0  0  0  0
 46 79  1  0  0  0  0
 47 80  1  0  0  0  0
 48 81  1  0  0  0  0
 49 82  1  0  0  0  0
M  CHG  1  16   1
M  END
$$$$
