C19H22O6
APtclcactv06291803043D 0   0.00000     0.00000
 
 47 51  0  0  0  0  0  0  0  0999 V2000
    3.0930    1.3320   -0.6317 C   0  0  0  0  0  0  0  0  0  0  0  0
    2.3641    0.0784   -0.1437 C   0  0  0  0  0  0  0  0  0  0  0  0
    3.2316   -1.1914   -0.2385 C   0  0  0  0  0  0  0  0  0  0  0  0
    2.4174   -2.4433   -0.0863 C   0  0  0  0  0  0  0  0  0  0  0  0
    1.1129   -2.4637    0.0688 C   0  0  0  0  0  0  0  0  0  0  0  0
    0.4002   -1.1569    0.1179 C   0  0  0  0  0  0  0  0  0  0  0  0
    1.0916   -0.2367   -0.9618 C   0  0  0  0  0  0  0  0  0  0  0  0
    0.1248    0.9571   -1.0610 C   0  0  0  0  0  0  0  0  0  0  0  0
   -1.2212    0.4394   -0.5674 C   0  0  0  0  0  0  0  0  0  0  0  0
   -1.0401   -1.0641   -0.2885 C   0  0  0  0  0  0  0  0  0  0  0  0
   -2.0993   -1.7048    0.5243 C   0  0  0  0  0  0  0  0  0  0  0  0
   -2.9706   -0.8195    1.3863 C   0  0  0  0  0  0  0  0  0  0  0  0
   -3.0829    0.6124    0.8708 C   0  0  0  0  0  0  0  0  0  0  0  0
   -1.6250    1.1400    0.7490 C   0  0  0  0  0  0  0  0  0  0  0  0
   -3.6201    0.6401   -0.5480 C   0  0  0  0  0  0  0  0  0  0  0  0
   -4.8816    0.6635   -0.9005 C   0  0  0  0  0  0  0  0  0  0  0  0
   -2.4185    0.6356   -1.4874 C   0  0  0  0  0  0  0  0  0  0  0  0
   -2.9558   -2.4229   -0.3661 O   0  0  0  0  0  0  0  0  0  0  0  0
    0.6011    2.0869   -0.1848 C   0  0  0  0  0  0  0  0  0  0  0  0
    0.5192    1.9950    1.0172 O   0  0  0  0  0  0  0  0  0  0  0  0
    1.1163    3.1953   -0.7396 O   0  0  0  0  0  0  0  0  0  0  0  0
    0.6875   -0.4833    1.3752 O   0  0  0  0  0  0  0  0  0  0  0  0
    1.8618    0.2058    1.2837 C   0  0  0  0  0  0  0  0  0  0  0  0
    2.3960    0.8072    2.1853 O   0  0  0  0  0  0  0  0  0  0  0  0
    3.8848   -1.2139   -1.5093 O   0  0  0  0  0  0  0  0  0  0  0  0
    3.0005    1.4075   -1.7151 H   0  0  0  0  0  0  0  0  0  0  0  0
    2.6509    2.2133   -0.1670 H   0  0  0  0  0  0  0  0  0  0  0  0
    4.1468    1.2682   -0.3605 H   0  0  0  0  0  0  0  0  0  0  0  0
    3.9878   -1.1631    0.5461 H   0  0  0  0  0  0  0  0  0  0  0  0
    2.9381   -3.3893   -0.1059 H   0  0  0  0  0  0  0  0  0  0  0  0
    0.5757   -3.3964    0.1580 H   0  0  0  0  0  0  0  0  0  0  0  0
    1.2921   -0.7310   -1.9123 H   0  0  0  0  0  0  0  0  0  0  0  0
    0.0435    1.2907   -2.0955 H   0  0  0  0  0  0  0  0  0  0  0  0
   -1.0980   -1.5435   -1.2656 H   0  0  0  0  0  0  0  0  0  0  0  0
   -1.6204   -2.4349    1.1768 H   0  0  0  0  0  0  0  0  0  0  0  0
   -3.9697   -1.2527    1.4335 H   0  0  0  0  0  0  0  0  0  0  0  0
   -2.5555   -0.7961    2.3939 H   0  0  0  0  0  0  0  0  0  0  0  0
   -3.6757    1.2308    1.5447 H   0  0  0  0  0  0  0  0  0  0  0  0
   -1.0089    0.8063    1.5839 H   0  0  0  0  0  0  0  0  0  0  0  0
   -1.6005    2.2250    0.6473 H   0  0  0  0  0  0  0  0  0  0  0  0
   -5.6534    0.6643   -0.1451 H   0  0  0  0  0  0  0  0  0  0  0  0
   -5.1497    0.6820   -1.9466 H   0  0  0  0  0  0  0  0  0  0  0  0
   -2.3427    1.5871   -2.0137 H   0  0  0  0  0  0  0  0  0  0  0  0
   -2.4927   -0.1885   -2.1970 H   0  0  0  0  0  0  0  0  0  0  0  0
   -3.6858   -2.8800    0.0736 H   0  0  0  0  0  0  0  0  0  0  0  0
    1.4737    3.8622   -0.1375 H   0  0  0  0  0  0  0  0  0  0  0  0
    4.4517   -1.9851   -1.6465 H   0  0  0  0  0  0  0  0  0  0  0  0
  1  2  1  0  0  0  0
  2  3  1  0  0  0  0
  3  4  1  0  0  0  0
  4  5  2  0  0  0  0
  5  6  1  0  0  0  0
  6  7  1  0  0  0  0
  2  7  1  0  0  0  0
  7  8  1  0  0  0  0
  8  9  1  0  0  0  0
  9 10  1  0  0  0  0
  6 10  1  0  0  0  0
 10 11  1  0  0  0  0
 11 12  1  0  0  0  0
 12 13  1  0  0  0  0
 13 14  1  0  0  0  0
  9 14  1  0  0  0  0
 13 15  1  0  0  0  0
 15 16  2  0  0  0  0
 15 17  1  0  0  0  0
  9 17  1  0  0  0  0
 11 18  1  0  0  0  0
  8 19  1  0  0  0  0
 19 20  2  0  0  0  0
 19 21  1  0  0  0  0
  6 22  1  0  0  0  0
 22 23  1  0  0  0  0
  2 23  1  0  0  0  0
 23 24  2  0  0  0  0
  3 25  1  0  0  0  0
  1 26  1  0  0  0  0
  1 27  1  0  0  0  0
  1 28  1  0  0  0  0
  3 29  1  0  0  0  0
  4 30  1  0  0  0  0
  5 31  1  0  0  0  0
  7 32  1  0  0  0  0
  8 33  1  0  0  0  0
 10 34  1  0  0  0  0
 11 35  1  0  0  0  0
 12 36  1  0  0  0  0
 12 37  1  0  0  0  0
 13 38  1  0  0  0  0
 14 39  1  0  0  0  0
 14 40  1  0  0  0  0
 16 41  1  0  0  0  0
 16 42  1  0  0  0  0
 17 43  1  0  0  0  0
 17 44  1  0  0  0  0
 18 45  1  0  0  0  0
 21 46  1  0  0  0  0
 25 47  1  0  0  0  0
M  END
$$$$
