C15H10O5
APtclcactv06211804453D 0   0.00000     0.00000
 
 30 32  0  0  0  0  0  0  0  0999 V2000
   -4.7242    0.3541    0.5257 C   0  0  0  0  0  0  0  0  0  0  0  0
   -4.5537   -1.0163    0.4584 C   0  0  0  0  0  0  0  0  0  0  0  0
   -3.3092   -1.5563    0.1808 C   0  0  0  0  0  0  0  0  0  0  0  0
   -2.2227   -0.7155   -0.0314 C   0  0  0  0  0  0  0  0  0  0  0  0
   -2.3962    0.6794    0.0370 C   0  0  0  0  0  0  0  0  0  0  0  0
   -3.6528    1.2056    0.3164 C   0  0  0  0  0  0  0  0  0  0  0  0
   -1.2386    1.5724   -0.1875 C   0  0  0  0  0  0  0  0  0  0  0  0
   -1.4061    2.7605   -0.3797 O   0  0  0  0  0  0  0  0  0  0  0  0
    0.1259    1.0003   -0.1745 C   0  0  0  0  0  0  0  0  0  0  0  0
    1.2363    1.8276   -0.0940 C   0  0  0  0  0  0  0  0  0  0  0  0
    2.5159    1.2745   -0.0818 C   0  0  0  0  0  0  0  0  0  0  0  0
    2.6878   -0.0983   -0.1499 C   0  0  0  0  0  0  0  0  0  0  0  0
    1.5854   -0.9410   -0.2310 C   0  0  0  0  0  0  0  0  0  0  0  0
    0.2964   -0.3978   -0.2436 C   0  0  0  0  0  0  0  0  0  0  0  0
   -0.8845   -1.2740   -0.3272 C   0  0  0  0  0  0  0  0  0  0  0  0
   -0.7611   -2.4437   -0.6355 O   0  0  0  0  0  0  0  0  0  0  0  0
    1.7587   -2.2840   -0.2973 O   0  0  0  0  0  0  0  0  0  0  0  0
    4.0774   -0.6812   -0.1363 C   0  0  0  0  0  0  0  0  0  0  0  0
    4.4733   -0.9375    1.2126 O   0  0  0  0  0  0  0  0  0  0  0  0
    3.6005    2.0864   -0.0032 O   0  0  0  0  0  0  0  0  0  0  0  0
   -5.7008    0.7632    0.7386 H   0  0  0  0  0  0  0  0  0  0  0  0
   -5.3971   -1.6703    0.6239 H   0  0  0  0  0  0  0  0  0  0  0  0
   -3.1829   -2.6277    0.1297 H   0  0  0  0  0  0  0  0  0  0  0  0
   -3.7926    2.2752    0.3694 H   0  0  0  0  0  0  0  0  0  0  0  0
    1.1098    2.8989   -0.0405 H   0  0  0  0  0  0  0  0  0  0  0  0
    1.7802   -2.7208    0.5652 H   0  0  0  0  0  0  0  0  0  0  0  0
    4.0857   -1.6136   -0.7009 H   0  0  0  0  0  0  0  0  0  0  0  0
    4.7721    0.0250   -0.5909 H   0  0  0  0  0  0  0  0  0  0  0  0
    5.3597   -1.3145    1.2974 H   0  0  0  0  0  0  0  0  0  0  0  0
    3.8861    2.2747    0.9012 H   0  0  0  0  0  0  0  0  0  0  0  0
  1  2  2  0  0  0  0
  2  3  1  0  0  0  0
  3  4  2  0  0  0  0
  4  5  1  0  0  0  0
  5  6  2  0  0  0  0
  1  6  1  0  0  0  0
  5  7  1  0  0  0  0
  7  8  2  0  0  0  0
  7  9  1  0  0  0  0
  9 10  2  0  0  0  0
 10 11  1  0  0  0  0
 11 12  2  0  0  0  0
 12 13  1  0  0  0  0
 13 14  2  0  0  0  0
  9 14  1  0  0  0  0
 14 15  1  0  0  0  0
  4 15  1  0  0  0  0
 15 16  2  0  0  0  0
 13 17  1  0  0  0  0
 12 18  1  0  0  0  0
 18 19  1  0  0  0  0
 11 20  1  0  0  0  0
  1 21  1  0  0  0  0
  2 22  1  0  0  0  0
  3 23  1  0  0  0  0
  6 24  1  0  0  0  0
 10 25  1  0  0  0  0
 17 26  1  0  0  0  0
 18 27  1  0  0  0  0
 18 28  1  0  0  0  0
 19 29  1  0  0  0  0
 20 30  1  0  0  0  0
M  END
$$$$
