C17H20O9
APtclcactv06281817273D 0   0.00000     0.00000
 
 46 47  0  0  0  0  0  0  0  0999 V2000
    7.0729    2.6057   -0.1842 C   0  0  0  0  0  0  0  0  0  0  0  0
    7.3409    1.2151    0.0069 O   0  0  0  0  0  0  0  0  0  0  0  0
    6.2684    0.3802    0.0531 C   0  0  0  0  0  0  0  0  0  0  0  0
    6.4583   -0.9889    0.2370 C   0  0  0  0  0  0  0  0  0  0  0  0
    5.3661   -1.8453    0.2849 C   0  0  0  0  0  0  0  0  0  0  0  0
    4.0891   -1.3469    0.1509 C   0  0  0  0  0  0  0  0  0  0  0  0
    3.8901    0.0262   -0.0336 C   0  0  0  0  0  0  0  0  0  0  0  0
    4.9914    0.8894   -0.0765 C   0  0  0  0  0  0  0  0  0  0  0  0
    2.5288    0.5609   -0.1769 C   0  0  0  0  0  0  0  0  0  0  0  0
    1.4671   -0.2733   -0.1307 C   0  0  0  0  0  0  0  0  0  0  0  0
    0.1537    0.2425   -0.2689 C   0  0  0  0  0  0  0  0  0  0  0  0
   -0.0172    1.4362   -0.4292 O   0  0  0  0  0  0  0  0  0  0  0  0
   -0.9067   -0.5906   -0.2227 O   0  0  0  0  0  0  0  0  0  0  0  0
   -2.2007   -0.0024   -0.3691 C   0  0  0  0  0  0  0  0  0  0  0  0
   -3.1482   -1.0104   -1.0226 C   0  0  0  0  0  0  0  0  0  0  0  0
   -4.5337   -0.3806   -1.1792 C   0  0  0  0  0  0  0  0  0  0  0  0
   -5.0751    0.0098    0.1975 C   0  0  0  0  0  0  0  0  0  0  0  0
   -4.1277    1.0178    0.8510 C   0  0  0  0  0  0  0  0  0  0  0  0
   -2.7421    0.3880    1.0077 C   0  0  0  0  0  0  0  0  0  0  0  0
   -2.8386   -0.7771    1.8295 O   0  0  0  0  0  0  0  0  0  0  0  0
   -6.4398    0.6301    0.0432 C   0  0  0  0  0  0  0  0  0  0  0  0
   -6.7487    1.1593   -0.9982 O   0  0  0  0  0  0  0  0  0  0  0  0
   -7.3123    0.5947    1.0626 O   0  0  0  0  0  0  0  0  0  0  0  0
   -5.1716   -1.1553    1.0193 O   0  0  0  0  0  0  0  0  0  0  0  0
   -2.6425   -1.3751   -2.3084 O   0  0  0  0  0  0  0  0  0  0  0  0
    7.7151   -1.4864    0.3694 O   0  0  0  0  0  0  0  0  0  0  0  0
    8.0126    3.1577   -0.2019 H   0  0  0  0  0  0  0  0  0  0  0  0
    6.5497    2.7483   -1.1297 H   0  0  0  0  0  0  0  0  0  0  0  0
    6.4519    2.9717    0.6335 H   0  0  0  0  0  0  0  0  0  0  0  0
    5.5185   -2.9050    0.4272 H   0  0  0  0  0  0  0  0  0  0  0  0
    3.2417   -2.0154    0.1878 H   0  0  0  0  0  0  0  0  0  0  0  0
    4.8431    1.9497   -0.2183 H   0  0  0  0  0  0  0  0  0  0  0  0
    2.3770    1.6207   -0.3192 H   0  0  0  0  0  0  0  0  0  0  0  0
    1.6188   -1.3330    0.0116 H   0  0  0  0  0  0  0  0  0  0  0  0
   -2.1271    0.8863   -0.9959 H   0  0  0  0  0  0  0  0  0  0  0  0
   -3.2218   -1.8991   -0.3957 H   0  0  0  0  0  0  0  0  0  0  0  0
   -4.4601    0.5080   -1.8061 H   0  0  0  0  0  0  0  0  0  0  0  0
   -5.2087   -1.0988   -1.6448 H   0  0  0  0  0  0  0  0  0  0  0  0
   -4.0541    1.9065    0.2241 H   0  0  0  0  0  0  0  0  0  0  0  0
   -4.5134    1.2959    1.8318 H   0  0  0  0  0  0  0  0  0  0  0  0
   -2.0671    1.1061    1.4732 H   0  0  0  0  0  0  0  0  0  0  0  0
   -3.1756   -0.6040    2.7192 H   0  0  0  0  0  0  0  0  0  0  0  0
   -8.1753    1.0057    0.9163 H   0  0  0  0  0  0  0  0  0  0  0  0
   -5.5087   -0.9822    1.9090 H   0  0  0  0  0  0  0  0  0  0  0  0
   -3.1941   -2.0131   -2.7815 H   0  0  0  0  0  0  0  0  0  0  0  0
    8.0308   -1.5196    1.2828 H   0  0  0  0  0  0  0  0  0  0  0  0
  1  2  1  0  0  0  0
  2  3  1  0  0  0  0
  3  4  2  0  0  0  0
  4  5  1  0  0  0  0
  5  6  2  0  0  0  0
  6  7  1  0  0  0  0
  7  8  2  0  0  0  0
  3  8  1  0  0  0  0
  7  9  1  0  0  0  0
  9 10  2  0  0  0  0
 10 11  1  0  0  0  0
 11 12  2  0  0  0  0
 11 13  1  0  0  0  0
 13 14  1  0  0  0  0
 14 15  1  0  0  0  0
 15 16  1  0  0  0  0
 16 17  1  0  0  0  0
 17 18  1  0  0  0  0
 18 19  1  0  0  0  0
 14 19  1  0  0  0  0
 19 20  1  0  0  0  0
 17 21  1  0  0  0  0
 21 22  2  0  0  0  0
 21 23  1  0  0  0  0
 17 24  1  0  0  0  0
 15 25  1  0  0  0  0
  4 26  1  0  0  0  0
  1 27  1  0  0  0  0
  1 28  1  0  0  0  0
  1 29  1  0  0  0  0
  5 30  1  0  0  0  0
  6 31  1  0  0  0  0
  8 32  1  0  0  0  0
  9 33  1  0  0  0  0
 10 34  1  0  0  0  0
 14 35  1  0  0  0  0
 15 36  1  0  0  0  0
 16 37  1  0  0  0  0
 16 38  1  0  0  0  0
 18 39  1  0  0  0  0
 18 40  1  0  0  0  0
 19 41  1  0  0  0  0
 20 42  1  0  0  0  0
 23 43  1  0  0  0  0
 24 44  1  0  0  0  0
 25 45  1  0  0  0  0
 26 46  1  0  0  0  0
M  END
$$$$
