C36H52O7
APtclcactv06291803053D 0   0.00000     0.00000
 
 95 97  0  0  0  0  0  0  0  0999 V2000
   14.4549   -6.0304    1.1782 C   0  0  0  0  0  0  0  0  0  0  0  0
   13.2159   -5.2957    1.6941 C   0  0  0  0  0  0  0  0  0  0  0  0
   12.5177   -4.5925    0.5284 C   0  0  0  0  0  0  0  0  0  0  0  0
   11.2787   -3.8579    1.0443 C   0  0  0  0  0  0  0  0  0  0  0  0
   10.5805   -3.1547   -0.1214 C   0  0  0  0  0  0  0  0  0  0  0  0
    9.3415   -2.4201    0.3945 C   0  0  0  0  0  0  0  0  0  0  0  0
    8.6433   -1.7168   -0.7712 C   0  0  0  0  0  0  0  0  0  0  0  0
    7.4043   -0.9822   -0.2553 C   0  0  0  0  0  0  0  0  0  0  0  0
    6.7061   -0.2790   -1.4210 C   0  0  0  0  0  0  0  0  0  0  0  0
    5.4671    0.4556   -0.9052 C   0  0  0  0  0  0  0  0  0  0  0  0
    4.7689    1.1588   -2.0709 C   0  0  0  0  0  0  0  0  0  0  0  0
    3.5485    1.8824   -1.5627 C   0  0  0  0  0  0  0  0  0  0  0  0
    3.6248    3.1912   -1.2404 C   0  0  0  0  0  0  0  0  0  0  0  0
    2.4210    3.9017   -0.7397 C   0  0  0  0  0  0  0  0  0  0  0  0
    2.4900    5.0790   -0.4475 O   0  0  0  0  0  0  0  0  0  0  0  0
    1.1477    3.1853   -0.5972 C   0  0  0  0  0  0  0  0  0  0  0  0
    1.0706    1.8775   -0.9193 C   0  0  0  0  0  0  0  0  0  0  0  0
    2.2778    1.1677   -1.4240 C   0  0  0  0  0  0  0  0  0  0  0  0
    2.2111   -0.0107   -1.7128 O   0  0  0  0  0  0  0  0  0  0  0  0
   -0.0876    1.1994   -0.7986 O   0  0  0  0  0  0  0  0  0  0  0  0
   -1.0670    1.6576    0.0055 C   0  0  0  0  0  0  0  0  0  0  0  0
   -1.1109    2.9530    0.3793 C   0  0  0  0  0  0  0  0  0  0  0  0
   -0.0621    3.9242   -0.0917 C   0  0  0  0  0  0  0  0  0  0  0  0
    0.3473    4.8303    1.0712 C   0  0  0  0  0  0  0  0  0  0  0  0
   -2.1907    3.4277    1.2533 C   0  0  0  0  0  0  0  0  0  0  0  0
   -2.2293    4.5946    1.5897 O   0  0  0  0  0  0  0  0  0  0  0  0
   -3.2360    2.4855    1.7267 C   0  0  0  0  0  0  0  0  0  0  0  0
   -3.1919    1.1887    1.3542 C   0  0  0  0  0  0  0  0  0  0  0  0
   -2.1142    0.7138    0.4837 C   0  0  0  0  0  0  0  0  0  0  0  0
   -2.0748   -0.4540    0.1505 O   0  0  0  0  0  0  0  0  0  0  0  0
   -4.2511    0.2301    1.8340 C   0  0  0  0  0  0  0  0  0  0  0  0
   -5.3527    0.1171    0.7782 C   0  0  0  0  0  0  0  0  0  0  0  0
   -6.4281   -0.8561    1.2654 C   0  0  0  0  0  0  0  0  0  0  0  0
   -7.5297   -0.9692    0.2096 C   0  0  0  0  0  0  0  0  0  0  0  0
   -8.6050   -1.9424    0.6968 C   0  0  0  0  0  0  0  0  0  0  0  0
   -9.7066   -2.0554   -0.3590 C   0  0  0  0  0  0  0  0  0  0  0  0
  -10.7820   -3.0287    0.1281 C   0  0  0  0  0  0  0  0  0  0  0  0
  -11.8835   -3.1417   -0.9276 C   0  0  0  0  0  0  0  0  0  0  0  0
  -12.9589   -4.1149   -0.4405 C   0  0  0  0  0  0  0  0  0  0  0  0
  -14.0605   -4.2280   -1.4962 C   0  0  0  0  0  0  0  0  0  0  0  0
  -15.1359   -5.2012   -1.0091 C   0  0  0  0  0  0  0  0  0  0  0  0
   -4.2309    2.9259    2.5306 O   0  0  0  0  0  0  0  0  0  0  0  0
    4.7964    3.8542   -1.3731 O   0  0  0  0  0  0  0  0  0  0  0  0
   15.1391   -5.3139    0.7237 H   0  0  0  0  0  0  0  0  0  0  0  0
   14.9523   -6.5314    2.0087 H   0  0  0  0  0  0  0  0  0  0  0  0
   14.1559   -6.7692    0.4347 H   0  0  0  0  0  0  0  0  0  0  0  0
   12.5316   -6.0122    2.1486 H   0  0  0  0  0  0  0  0  0  0  0  0
   13.5149   -4.5569    2.4376 H   0  0  0  0  0  0  0  0  0  0  0  0
   13.2019   -3.8761    0.0739 H   0  0  0  0  0  0  0  0  0  0  0  0
   12.2187   -5.3314   -0.2151 H   0  0  0  0  0  0  0  0  0  0  0  0
   10.5944   -4.5744    1.4988 H   0  0  0  0  0  0  0  0  0  0  0  0
   11.5777   -3.1190    1.7878 H   0  0  0  0  0  0  0  0  0  0  0  0
   11.2647   -2.4382   -0.5759 H   0  0  0  0  0  0  0  0  0  0  0  0
   10.2815   -3.8935   -0.8649 H   0  0  0  0  0  0  0  0  0  0  0  0
    8.6572   -3.1365    0.8490 H   0  0  0  0  0  0  0  0  0  0  0  0
    9.6405   -1.6812    1.1380 H   0  0  0  0  0  0  0  0  0  0  0  0
    9.3275   -1.0004   -1.2257 H   0  0  0  0  0  0  0  0  0  0  0  0
    8.3443   -2.4557   -1.5147 H   0  0  0  0  0  0  0  0  0  0  0  0
    6.7200   -1.6987    0.1992 H   0  0  0  0  0  0  0  0  0  0  0  0
    7.7033   -0.2434    0.4882 H   0  0  0  0  0  0  0  0  0  0  0  0
    7.3903    0.4375   -1.8756 H   0  0  0  0  0  0  0  0  0  0  0  0
    6.4071   -1.0179   -2.1645 H   0  0  0  0  0  0  0  0  0  0  0  0
    4.7828   -0.2608   -0.4506 H   0  0  0  0  0  0  0  0  0  0  0  0
    5.7661    1.1945   -0.1617 H   0  0  0  0  0  0  0  0  0  0  0  0
    5.4531    1.8753   -2.5254 H   0  0  0  0  0  0  0  0  0  0  0  0
    4.4699    0.4200   -2.8144 H   0  0  0  0  0  0  0  0  0  0  0  0
   -0.4721    4.5362   -0.8950 H   0  0  0  0  0  0  0  0  0  0  0  0
    0.7599    4.2233    1.8770 H   0  0  0  0  0  0  0  0  0  0  0  0
    1.0998    5.5414    0.7302 H   0  0  0  0  0  0  0  0  0  0  0  0
   -0.5260    5.3718    1.4347 H   0  0  0  0  0  0  0  0  0  0  0  0
   -3.8052   -0.7505    2.0003 H   0  0  0  0  0  0  0  0  0  0  0  0
   -4.6783    0.5979    2.7669 H   0  0  0  0  0  0  0  0  0  0  0  0
   -5.7986    1.0977    0.6119 H   0  0  0  0  0  0  0  0  0  0  0  0
   -4.9255   -0.2507   -0.1547 H   0  0  0  0  0  0  0  0  0  0  0  0
   -5.9822   -1.8368    1.4317 H   0  0  0  0  0  0  0  0  0  0  0  0
   -6.8553   -0.4883    2.1983 H   0  0  0  0  0  0  0  0  0  0  0  0
   -7.9755    0.0115    0.0433 H   0  0  0  0  0  0  0  0  0  0  0  0
   -7.1024   -1.3370   -0.7233 H   0  0  0  0  0  0  0  0  0  0  0  0
   -8.1591   -2.9230    0.8631 H   0  0  0  0  0  0  0  0  0  0  0  0
   -9.0322   -1.5746    1.6297 H   0  0  0  0  0  0  0  0  0  0  0  0
  -10.1525   -1.0748   -0.5253 H   0  0  0  0  0  0  0  0  0  0  0  0
   -9.2794   -2.4233   -1.2919 H   0  0  0  0  0  0  0  0  0  0  0  0
  -10.3361   -4.0093    0.2944 H   0  0  0  0  0  0  0  0  0  0  0  0
  -11.2092   -2.6609    1.0610 H   0  0  0  0  0  0  0  0  0  0  0  0
  -12.3294   -2.1611   -1.0939 H   0  0  0  0  0  0  0  0  0  0  0  0
  -11.4563   -3.5095   -1.8605 H   0  0  0  0  0  0  0  0  0  0  0  0
  -12.5130   -5.0956   -0.2742 H   0  0  0  0  0  0  0  0  0  0  0  0
  -13.3861   -3.7471    0.4924 H   0  0  0  0  0  0  0  0  0  0  0  0
  -14.5064   -3.2474   -1.6625 H   0  0  0  0  0  0  0  0  0  0  0  0
  -13.6333   -4.5958   -2.4292 H   0  0  0  0  0  0  0  0  0  0  0  0
  -15.9206   -5.2817   -1.7613 H   0  0  0  0  0  0  0  0  0  0  0  0
  -14.6900   -6.1818   -0.8428 H   0  0  0  0  0  0  0  0  0  0  0  0
  -15.5631   -4.8334   -0.0762 H   0  0  0  0  0  0  0  0  0  0  0  0
   -4.1775    3.8678    2.7426 H   0  0  0  0  0  0  0  0  0  0  0  0
    4.7522    4.7859   -1.1179 H   0  0  0  0  0  0  0  0  0  0  0  0
  1  2  1  0  0  0  0
  2  3  1  0  0  0  0
  3  4  1  0  0  0  0
  4  5  1  0  0  0  0
  5  6  1  0  0  0  0
  6  7  1  0  0  0  0
  7  8  1  0  0  0  0
  8  9  1  0  0  0  0
  9 10  1  0  0  0  0
 10 11  1  0  0  0  0
 11 12  1  0  0  0  0
 12 13  2  0  0  0  0
 13 14  1  0  0  0  0
 14 15  2  0  0  0  0
 14 16  1  0  0  0  0
 16 17  2  0  0  0  0
 17 18  1  0  0  0  0
 12 18  1  0  0  0  0
 18 19  2  0  0  0  0
 17 20  1  0  0  0  0
 20 21  1  0  0  0  0
 21 22  2  0  0  0  0
 22 23  1  0  0  0  0
 16 23  1  0  0  0  0
 23 24  1  0  0  0  0
 22 25  1  0  0  0  0
 25 26  2  0  0  0  0
 25 27  1  0  0  0  0
 27 28  2  0  0  0  0
 28 29  1  0  0  0  0
 21 29  1  0  0  0  0
 29 30  2  0  0  0  0
 28 31  1  0  0  0  0
 31 32  1  0  0  0  0
 32 33  1  0  0  0  0
 33 34  1  0  0  0  0
 34 35  1  0  0  0  0
 35 36  1  0  0  0  0
 36 37  1  0  0  0  0
 37 38  1  0  0  0  0
 38 39  1  0  0  0  0
 39 40  1  0  0  0  0
 40 41  1  0  0  0  0
 27 42  1  0  0  0  0
 13 43  1  0  0  0  0
  1 44  1  0  0  0  0
  1 45  1  0  0  0  0
  1 46  1  0  0  0  0
  2 47  1  0  0  0  0
  2 48  1  0  0  0  0
  3 49  1  0  0  0  0
  3 50  1  0  0  0  0
  4 51  1  0  0  0  0
  4 52  1  0  0  0  0
  5 53  1  0  0  0  0
  5 54  1  0  0  0  0
  6 55  1  0  0  0  0
  6 56  1  0  0  0  0
  7 57  1  0  0  0  0
  7 58  1  0  0  0  0
  8 59  1  0  0  0  0
  8 60  1  0  0  0  0
  9 61  1  0  0  0  0
  9 62  1  0  0  0  0
 10 63  1  0  0  0  0
 10 64  1  0  0  0  0
 11 65  1  0  0  0  0
 11 66  1  0  0  0  0
 23 67  1  0  0  0  0
 24 68  1  0  0  0  0
 24 69  1  0  0  0  0
 24 70  1  0  0  0  0
 31 71  1  0  0  0  0
 31 72  1  0  0  0  0
 32 73  1  0  0  0  0
 32 74  1  0  0  0  0
 33 75  1  0  0  0  0
 33 76  1  0  0  0  0
 34 77  1  0  0  0  0
 34 78  1  0  0  0  0
 35 79  1  0  0  0  0
 35 80  1  0  0  0  0
 36 81  1  0  0  0  0
 36 82  1  0  0  0  0
 37 83  1  0  0  0  0
 37 84  1  0  0  0  0
 38 85  1  0  0  0  0
 38 86  1  0  0  0  0
 39 87  1  0  0  0  0
 39 88  1  0  0  0  0
 40 89  1  0  0  0  0
 40 90  1  0  0  0  0
 41 91  1  0  0  0  0
 41 92  1  0  0  0  0
 41 93  1  0  0  0  0
 42 94  1  0  0  0  0
 43 95  1  0  0  0  0
M  END
$$$$
