C26H32O14
APtclcactv06291803053D 0   0.00000     0.00000
 
 72 75  0  0  0  0  0  0  0  0999 V2000
   -6.6884    0.7822   -2.0415 C   0  0  0  0  0  0  0  0  0  0  0  0
   -8.0592    0.6794   -2.1791 C   0  0  0  0  0  0  0  0  0  0  0  0
   -8.8827    0.8861   -1.0820 C   0  0  0  0  0  0  0  0  0  0  0  0
   -8.3271    1.1957    0.1510 C   0  0  0  0  0  0  0  0  0  0  0  0
   -6.9558    1.2975    0.2833 C   0  0  0  0  0  0  0  0  0  0  0  0
   -6.1372    1.0910   -0.8117 C   0  0  0  0  0  0  0  0  0  0  0  0
   -4.6415    1.2026   -0.6644 C   0  0  0  0  0  0  0  0  0  0  0  0
   -4.0620   -0.1643   -0.2949 C   0  0  0  0  0  0  0  0  0  0  0  0
   -2.5664   -0.0527   -0.1476 C   0  0  0  0  0  0  0  0  0  0  0  0
   -2.0176    1.0158   -0.3213 O   0  0  0  0  0  0  0  0  0  0  0  0
   -1.7769   -1.2311    0.2043 C   0  0  0  0  0  0  0  0  0  0  0  0
   -2.4087   -2.4723    0.4066 C   0  0  0  0  0  0  0  0  0  0  0  0
   -1.6532   -3.5811    0.7387 C   0  0  0  0  0  0  0  0  0  0  0  0
   -0.2747   -3.4731    0.8728 C   0  0  0  0  0  0  0  0  0  0  0  0
    0.3584   -2.2520    0.6750 C   0  0  0  0  0  0  0  0  0  0  0  0
   -0.3788   -1.1332    0.3373 C   0  0  0  0  0  0  0  0  0  0  0  0
    0.2412    0.0574    0.1443 O   0  0  0  0  0  0  0  0  0  0  0  0
    1.6607    0.0834    0.3067 C   0  0  0  0  0  0  0  0  0  0  0  0
    2.1924    1.4687   -0.0701 C   0  0  0  0  0  0  0  0  0  0  0  0
    1.5966    2.5116    0.8806 C   0  0  0  0  0  0  0  0  0  0  0  0
    1.9427    2.1286    2.3227 C   0  0  0  0  0  0  0  0  0  0  0  0
    1.4207    0.7178    2.6071 C   0  0  0  0  0  0  0  0  0  0  0  0
    1.9898   -0.1974    1.6687 O   0  0  0  0  0  0  0  0  0  0  0  0
    1.8149    0.3043    4.0264 C   0  0  0  0  0  0  0  0  0  0  0  0
    1.2296   -0.9627    4.3334 O   0  0  0  0  0  0  0  0  0  0  0  0
    3.3607    2.1572    2.4972 O   0  0  0  0  0  0  0  0  0  0  0  0
    2.1439    3.7976    0.5830 O   0  0  0  0  0  0  0  0  0  0  0  0
    3.6170    1.4799    0.0411 O   0  0  0  0  0  0  0  0  0  0  0  0
    4.2966    1.1072   -1.1595 C   0  0  0  0  0  0  0  0  0  0  0  0
    5.8201    1.2722   -0.9717 C   0  0  0  0  0  0  0  0  0  0  0  0
    6.3806    0.0326   -1.7209 C   0  0  0  0  0  0  0  0  0  0  0  0
    5.2742   -1.0122   -1.4297 C   0  0  0  0  0  0  0  0  0  0  0  0
    4.0435   -0.2717   -1.4531 O   0  0  0  0  0  0  0  0  0  0  0  0
    5.2649   -2.0920   -2.5137 C   0  0  0  0  0  0  0  0  0  0  0  0
    4.3195   -3.1061   -2.1678 O   0  0  0  0  0  0  0  0  0  0  0  0
    6.4939    0.2858   -3.1227 O   0  0  0  0  0  0  0  0  0  0  0  0
    6.2789    2.4826   -1.5768 O   0  0  0  0  0  0  0  0  0  0  0  0
    0.4583   -4.5671    1.1994 O   0  0  0  0  0  0  0  0  0  0  0  0
   -3.7543   -2.5800    0.2767 O   0  0  0  0  0  0  0  0  0  0  0  0
  -10.2315    0.7859   -1.2149 O   0  0  0  0  0  0  0  0  0  0  0  0
   -6.0467    0.6170   -2.8943 H   0  0  0  0  0  0  0  0  0  0  0  0
   -8.4893    0.4385   -3.1400 H   0  0  0  0  0  0  0  0  0  0  0  0
   -8.9661    1.3575    1.0065 H   0  0  0  0  0  0  0  0  0  0  0  0
   -6.5228    1.5388    1.2428 H   0  0  0  0  0  0  0  0  0  0  0  0
   -4.2078    1.5386   -1.6062 H   0  0  0  0  0  0  0  0  0  0  0  0
   -4.4064    1.9212    0.1207 H   0  0  0  0  0  0  0  0  0  0  0  0
   -4.4958   -0.5003    0.6470 H   0  0  0  0  0  0  0  0  0  0  0  0
   -4.2972   -0.8829   -1.0800 H   0  0  0  0  0  0  0  0  0  0  0  0
   -2.1361   -4.5344    0.8947 H   0  0  0  0  0  0  0  0  0  0  0  0
    1.4306   -2.1781    0.7815 H   0  0  0  0  0  0  0  0  0  0  0  0
    2.1143   -0.6682   -0.3394 H   0  0  0  0  0  0  0  0  0  0  0  0
    1.9042    1.7031   -1.0948 H   0  0  0  0  0  0  0  0  0  0  0  0
    0.5136    2.5381    0.7602 H   0  0  0  0  0  0  0  0  0  0  0  0
    1.4759    2.8349    3.0092 H   0  0  0  0  0  0  0  0  0  0  0  0
    0.3348    0.7062    2.5133 H   0  0  0  0  0  0  0  0  0  0  0  0
    2.9001    0.2293    4.0948 H   0  0  0  0  0  0  0  0  0  0  0  0
    1.4569    1.0511    4.7351 H   0  0  0  0  0  0  0  0  0  0  0  0
    1.4379   -1.2877    5.2200 H   0  0  0  0  0  0  0  0  0  0  0  0
    3.6520    1.9245    3.3895 H   0  0  0  0  0  0  0  0  0  0  0  0
    1.8099    4.5076    1.1482 H   0  0  0  0  0  0  0  0  0  0  0  0
    3.9562    1.7311   -1.9859 H   0  0  0  0  0  0  0  0  0  0  0  0
    6.0864    1.2401    0.0848 H   0  0  0  0  0  0  0  0  0  0  0  0
    7.3368   -0.2805   -1.3016 H   0  0  0  0  0  0  0  0  0  0  0  0
    5.4268   -1.4615   -0.4484 H   0  0  0  0  0  0  0  0  0  0  0  0
    4.9863   -1.6459   -3.4684 H   0  0  0  0  0  0  0  0  0  0  0  0
    6.2581   -2.5336   -2.5951 H   0  0  0  0  0  0  0  0  0  0  0  0
    4.2602   -3.8248   -2.8120 H   0  0  0  0  0  0  0  0  0  0  0  0
    7.0971    1.0084   -3.3444 H   0  0  0  0  0  0  0  0  0  0  0  0
    5.8880    3.2832   -1.2008 H   0  0  0  0  0  0  0  0  0  0  0  0
    0.7691   -5.0743    0.4370 H   0  0  0  0  0  0  0  0  0  0  0  0
   -4.0466   -2.8009   -0.6182 H   0  0  0  0  0  0  0  0  0  0  0  0
  -10.5772   -0.1034   -1.0577 H   0  0  0  0  0  0  0  0  0  0  0  0
  1  2  2  0  0  0  0
  2  3  1  0  0  0  0
  3  4  2  0  0  0  0
  4  5  1  0  0  0  0
  5  6  2  0  0  0  0
  1  6  1  0  0  0  0
  6  7  1  0  0  0  0
  7  8  1  0  0  0  0
  8  9  1  0  0  0  0
  9 10  2  0  0  0  0
  9 11  1  0  0  0  0
 11 12  2  0  0  0  0
 12 13  1  0  0  0  0
 13 14  2  0  0  0  0
 14 15  1  0  0  0  0
 15 16  2  0  0  0  0
 11 16  1  0  0  0  0
 16 17  1  0  0  0  0
 17 18  1  0  0  0  0
 18 19  1  0  0  0  0
 19 20  1  0  0  0  0
 20 21  1  0  0  0  0
 21 22  1  0  0  0  0
 22 23  1  0  0  0  0
 18 23  1  0  0  0  0
 22 24  1  0  0  0  0
 24 25  1  0  0  0  0
 21 26  1  0  0  0  0
 20 27  1  0  0  0  0
 19 28  1  0  0  0  0
 28 29  1  0  0  0  0
 29 30  1  0  0  0  0
 30 31  1  0  0  0  0
 31 32  1  0  0  0  0
 32 33  1  0  0  0  0
 29 33  1  0  0  0  0
 32 34  1  0  0  0  0
 34 35  1  0  0  0  0
 31 36  1  0  0  0  0
 30 37  1  0  0  0  0
 14 38  1  0  0  0  0
 12 39  1  0  0  0  0
  3 40  1  0  0  0  0
  1 41  1  0  0  0  0
  2 42  1  0  0  0  0
  4 43  1  0  0  0  0
  5 44  1  0  0  0  0
  7 45  1  0  0  0  0
  7 46  1  0  0  0  0
  8 47  1  0  0  0  0
  8 48  1  0  0  0  0
 13 49  1  0  0  0  0
 15 50  1  0  0  0  0
 18 51  1  0  0  0  0
 19 52  1  0  0  0  0
 20 53  1  0  0  0  0
 21 54  1  0  0  0  0
 22 55  1  0  0  0  0
 24 56  1  0  0  0  0
 24 57  1  0  0  0  0
 25 58  1  0  0  0  0
 26 59  1  0  0  0  0
 27 60  1  0  0  0  0
 29 61  1  0  0  0  0
 30 62  1  0  0  0  0
 31 63  1  0  0  0  0
 32 64  1  0  0  0  0
 34 65  1  0  0  0  0
 34 66  1  0  0  0  0
 35 67  1  0  0  0  0
 36 68  1  0  0  0  0
 37 69  1  0  0  0  0
 38 70  1  0  0  0  0
 39 71  1  0  0  0  0
 40 72  1  0  0  0  0
M  END
$$$$
