C30H40O3
APtclcactv06291803053D 0   0.00000     0.00000
 
 73 73  0  0  0  0  0  0  0  0999 V2000
    1.4564    1.8262   -0.2236 C   0  0  0  0  0  0  0  0  0  0  0  0
    1.4926    0.3197   -0.2042 C   0  0  0  0  0  0  0  0  0  0  0  0
    2.7014   -0.3398   -0.1534 C   0  0  0  0  0  0  0  0  0  0  0  0
    3.8963    0.3898   -0.1198 C   0  0  0  0  0  0  0  0  0  0  0  0
    5.1052   -0.2697   -0.0690 C   0  0  0  0  0  0  0  0  0  0  0  0
    6.3001    0.4599   -0.0354 C   0  0  0  0  0  0  0  0  0  0  0  0
    7.5089   -0.1996    0.0154 C   0  0  0  0  0  0  0  0  0  0  0  0
    7.5451   -1.7061    0.0348 C   0  0  0  0  0  0  0  0  0  0  0  0
    8.7038    0.5300    0.0489 C   0  0  0  0  0  0  0  0  0  0  0  0
    9.9126   -0.1295    0.0998 C   0  0  0  0  0  0  0  0  0  0  0  0
   11.1075    0.6001    0.1333 C   0  0  0  0  0  0  0  0  0  0  0  0
   12.3163   -0.0595    0.1841 C   0  0  0  0  0  0  0  0  0  0  0  0
   12.3525   -1.5659    0.2036 C   0  0  0  0  0  0  0  0  0  0  0  0
   13.5112    0.6702    0.2177 C   0  0  0  0  0  0  0  0  0  0  0  0
   14.5778    0.0882    0.2625 O   0  0  0  0  0  0  0  0  0  0  0  0
    0.2977   -0.4099   -0.2378 C   0  0  0  0  0  0  0  0  0  0  0  0
   -0.9111    0.2497   -0.2886 C   0  0  0  0  0  0  0  0  0  0  0  0
   -2.1060   -0.4800   -0.3222 C   0  0  0  0  0  0  0  0  0  0  0  0
   -3.3148    0.1796   -0.3730 C   0  0  0  0  0  0  0  0  0  0  0  0
   -3.3510    1.6860   -0.3924 C   0  0  0  0  0  0  0  0  0  0  0  0
   -4.5097   -0.5501   -0.4065 C   0  0  0  0  0  0  0  0  0  0  0  0
   -5.7185    0.1095   -0.4574 C   0  0  0  0  0  0  0  0  0  0  0  0
   -6.9134   -0.6201   -0.4909 C   0  0  0  0  0  0  0  0  0  0  0  0
   -6.8842   -1.8356   -0.4753 O   0  0  0  0  0  0  0  0  0  0  0  0
   -8.2354    0.1012   -0.5465 C   0  0  0  0  0  0  0  0  0  0  0  0
   -9.3808   -0.9104   -0.7579 C   0  0  0  0  0  0  0  0  0  0  0  0
   -9.9041   -1.1960    0.6717 C   0  0  0  0  0  0  0  0  0  0  0  0
   -9.8130    0.1922    1.3527 C   0  0  0  0  0  0  0  0  0  0  0  0
   -8.5102    0.8022    0.7954 C   0  0  0  0  0  0  0  0  0  0  0  0
   -7.3552    0.5474    1.7660 C   0  0  0  0  0  0  0  0  0  0  0  0
   -8.6880    2.3057    0.5746 C   0  0  0  0  0  0  0  0  0  0  0  0
  -11.2573   -1.6536    0.6336 O   0  0  0  0  0  0  0  0  0  0  0  0
   -8.2253    1.1264   -1.6822 C   0  0  0  0  0  0  0  0  0  0  0  0
    1.4841    2.1770   -1.2553 H   0  0  0  0  0  0  0  0  0  0  0  0
    0.5403    2.1738    0.2539 H   0  0  0  0  0  0  0  0  0  0  0  0
    2.3186    2.2173    0.3164 H   0  0  0  0  0  0  0  0  0  0  0  0
    2.7274   -1.4194   -0.1395 H   0  0  0  0  0  0  0  0  0  0  0  0
    3.8704    1.4694   -0.1338 H   0  0  0  0  0  0  0  0  0  0  0  0
    5.1311   -1.3493   -0.0551 H   0  0  0  0  0  0  0  0  0  0  0  0
    6.2741    1.5395   -0.0494 H   0  0  0  0  0  0  0  0  0  0  0  0
    7.5902   -2.0816   -0.9875 H   0  0  0  0  0  0  0  0  0  0  0  0
    8.4248   -2.0413    0.5842 H   0  0  0  0  0  0  0  0  0  0  0  0
    6.6464   -2.0848    0.5217 H   0  0  0  0  0  0  0  0  0  0  0  0
    8.6778    1.6096    0.0350 H   0  0  0  0  0  0  0  0  0  0  0  0
    9.9385   -1.2091    0.1137 H   0  0  0  0  0  0  0  0  0  0  0  0
   11.0815    1.6797    0.1194 H   0  0  0  0  0  0  0  0  0  0  0  0
   12.3977   -1.9415   -0.8187 H   0  0  0  0  0  0  0  0  0  0  0  0
   13.2322   -1.9011    0.7530 H   0  0  0  0  0  0  0  0  0  0  0  0
   11.4539   -1.9447    0.6905 H   0  0  0  0  0  0  0  0  0  0  0  0
   13.4853    1.7498    0.2038 H   0  0  0  0  0  0  0  0  0  0  0  0
    0.3237   -1.4895   -0.2239 H   0  0  0  0  0  0  0  0  0  0  0  0
   -0.9370    1.3293   -0.3025 H   0  0  0  0  0  0  0  0  0  0  0  0
   -2.0801   -1.5596   -0.3082 H   0  0  0  0  0  0  0  0  0  0  0  0
   -3.3233    2.0368   -1.4240 H   0  0  0  0  0  0  0  0  0  0  0  0
   -4.2671    2.0336    0.0851 H   0  0  0  0  0  0  0  0  0  0  0  0
   -2.4888    2.0772    0.1476 H   0  0  0  0  0  0  0  0  0  0  0  0
   -4.4838   -1.6297   -0.3926 H   0  0  0  0  0  0  0  0  0  0  0  0
   -5.7445    1.1891   -0.4713 H   0  0  0  0  0  0  0  0  0  0  0  0
  -10.1679   -0.4726   -1.3719 H   0  0  0  0  0  0  0  0  0  0  0  0
   -9.0028   -1.8246   -1.2155 H   0  0  0  0  0  0  0  0  0  0  0  0
   -9.2651   -1.9182    1.1798 H   0  0  0  0  0  0  0  0  0  0  0  0
  -10.6699    0.8081    1.0796 H   0  0  0  0  0  0  0  0  0  0  0  0
   -9.7503    0.0826    2.4353 H   0  0  0  0  0  0  0  0  0  0  0  0
   -7.1452   -0.5213    1.8083 H   0  0  0  0  0  0  0  0  0  0  0  0
   -6.4678    1.0788    1.4221 H   0  0  0  0  0  0  0  0  0  0  0  0
   -7.6298    0.9034    2.7590 H   0  0  0  0  0  0  0  0  0  0  0  0
   -8.9063    2.7895    1.5266 H   0  0  0  0  0  0  0  0  0  0  0  0
   -7.7715    2.7225    0.1569 H   0  0  0  0  0  0  0  0  0  0  0  0
   -9.5129    2.4762   -0.1172 H   0  0  0  0  0  0  0  0  0  0  0  0
  -11.3794   -2.4803    0.1471 H   0  0  0  0  0  0  0  0  0  0  0  0
   -8.0427    0.6181   -2.6289 H   0  0  0  0  0  0  0  0  0  0  0  0
   -9.1892    1.6337   -1.7222 H   0  0  0  0  0  0  0  0  0  0  0  0
   -7.4369    1.8577   -1.5044 H   0  0  0  0  0  0  0  0  0  0  0  0
  1  2  1  0  0  0  0
  2  3  2  0  0  0  0
  3  4  1  0  0  0  0
  4  5  2  0  0  0  0
  5  6  1  0  0  0  0
  6  7  2  0  0  0  0
  7  8  1  0  0  0  0
  7  9  1  0  0  0  0
  9 10  2  0  0  0  0
 10 11  1  0  0  0  0
 11 12  2  0  0  0  0
 12 13  1  0  0  0  0
 12 14  1  0  0  0  0
 14 15  2  0  0  0  0
  2 16  1  0  0  0  0
 16 17  2  0  0  0  0
 17 18  1  0  0  0  0
 18 19  2  0  0  0  0
 19 20  1  0  0  0  0
 19 21  1  0  0  0  0
 21 22  2  0  0  0  0
 22 23  1  0  0  0  0
 23 24  2  0  0  0  0
 23 25  1  0  0  0  0
 25 26  1  0  0  0  0
 26 27  1  0  0  0  0
 27 28  1  0  0  0  0
 28 29  1  0  0  0  0
 25 29  1  0  0  0  0
 29 30  1  0  0  0  0
 29 31  1  0  0  0  0
 27 32  1  0  0  0  0
 25 33  1  0  0  0  0
  1 34  1  0  0  0  0
  1 35  1  0  0  0  0
  1 36  1  0  0  0  0
  3 37  1  0  0  0  0
  4 38  1  0  0  0  0
  5 39  1  0  0  0  0
  6 40  1  0  0  0  0
  8 41  1  0  0  0  0
  8 42  1  0  0  0  0
  8 43  1  0  0  0  0
  9 44  1  0  0  0  0
 10 45  1  0  0  0  0
 11 46  1  0  0  0  0
 13 47  1  0  0  0  0
 13 48  1  0  0  0  0
 13 49  1  0  0  0  0
 14 50  1  0  0  0  0
 16 51  1  0  0  0  0
 17 52  1  0  0  0  0
 18 53  1  0  0  0  0
 20 54  1  0  0  0  0
 20 55  1  0  0  0  0
 20 56  1  0  0  0  0
 21 57  1  0  0  0  0
 22 58  1  0  0  0  0
 26 59  1  0  0  0  0
 26 60  1  0  0  0  0
 27 61  1  0  0  0  0
 28 62  1  0  0  0  0
 28 63  1  0  0  0  0
 30 64  1  0  0  0  0
 30 65  1  0  0  0  0
 30 66  1  0  0  0  0
 31 67  1  0  0  0  0
 31 68  1  0  0  0  0
 31 69  1  0  0  0  0
 32 70  1  0  0  0  0
 33 71  1  0  0  0  0
 33 72  1  0  0  0  0
 33 73  1  0  0  0  0
M  END
$$$$
