C15H24
APtclcactv06211806343D 0   0.00000     0.00000
 
 39 41  0  0  0  0  0  0  0  0999 V2000
    3.2857   -1.0691   -0.6344 C   0  0  0  0  0  0  0  0  0  0  0  0
    2.5415   -0.3848    0.5140 C   0  0  0  0  0  0  0  0  0  0  0  0
    2.8208    1.1360    0.5052 C   0  0  0  0  0  0  0  0  0  0  0  0
    1.6169    1.6655   -0.3095 C   0  0  0  0  0  0  0  0  0  0  0  0
    0.5495    0.6188   -0.1357 C   0  0  0  0  0  0  0  0  0  0  0  0
    1.0479   -0.5075    0.3192 C   0  0  0  0  0  0  0  0  0  0  0  0
    0.2272   -1.7450    0.6100 C   0  0  0  0  0  0  0  0  0  0  0  0
   -1.2131   -1.5305    0.1299 C   0  0  0  0  0  0  0  0  0  0  0  0
   -1.2462   -1.4551   -1.4076 C   0  0  0  0  0  0  0  0  0  0  0  0
   -1.1528    0.0360   -1.7806 C   0  0  0  0  0  0  0  0  0  0  0  0
   -0.9331    0.7900   -0.4414 C   0  0  0  0  0  0  0  0  0  0  0  0
   -1.6620   -0.1194    0.5901 C   0  0  0  0  0  0  0  0  0  0  0  0
   -3.1803    0.0358    0.4821 C   0  0  0  0  0  0  0  0  0  0  0  0
   -1.1827    0.1718    2.0136 C   0  0  0  0  0  0  0  0  0  0  0  0
   -1.4045    2.2455   -0.4556 C   0  0  0  0  0  0  0  0  0  0  0  0
    4.3589   -0.9258   -0.5083 H   0  0  0  0  0  0  0  0  0  0  0  0
    3.0586   -2.1352   -0.6304 H   0  0  0  0  0  0  0  0  0  0  0  0
    2.9699   -0.6338   -1.5825 H   0  0  0  0  0  0  0  0  0  0  0  0
    2.8377   -0.8191    1.4688 H   0  0  0  0  0  0  0  0  0  0  0  0
    2.8162    1.5403    1.5174 H   0  0  0  0  0  0  0  0  0  0  0  0
    3.7616    1.3579    0.0015 H   0  0  0  0  0  0  0  0  0  0  0  0
    1.2794    2.6221    0.0895 H   0  0  0  0  0  0  0  0  0  0  0  0
    1.8841    1.7646   -1.3615 H   0  0  0  0  0  0  0  0  0  0  0  0
    0.6603   -2.5987    0.0888 H   0  0  0  0  0  0  0  0  0  0  0  0
    0.2274   -1.9369    1.6830 H   0  0  0  0  0  0  0  0  0  0  0  0
   -1.8745   -2.3125    0.5027 H   0  0  0  0  0  0  0  0  0  0  0  0
   -0.3986   -1.9980   -1.8259 H   0  0  0  0  0  0  0  0  0  0  0  0
   -2.1799   -1.8753   -1.7815 H   0  0  0  0  0  0  0  0  0  0  0  0
   -0.3095    0.2044   -2.4504 H   0  0  0  0  0  0  0  0  0  0  0  0
   -2.0795    0.3653   -2.2506 H   0  0  0  0  0  0  0  0  0  0  0  0
   -3.5037   -0.2442   -0.5204 H   0  0  0  0  0  0  0  0  0  0  0  0
   -3.6645   -0.6107    1.2140 H   0  0  0  0  0  0  0  0  0  0  0  0
   -3.4542    1.0728    0.6759 H   0  0  0  0  0  0  0  0  0  0  0  0
   -1.3879    1.2136    2.2600 H   0  0  0  0  0  0  0  0  0  0  0  0
   -1.7082   -0.4775    2.7139 H   0  0  0  0  0  0  0  0  0  0  0  0
   -0.1106   -0.0131    2.0810 H   0  0  0  0  0  0  0  0  0  0  0  0
   -2.4673    2.2809   -0.6952 H   0  0  0  0  0  0  0  0  0  0  0  0
   -1.2382    2.6909    0.5253 H   0  0  0  0  0  0  0  0  0  0  0  0
   -0.8439    2.8017   -1.2070 H   0  0  0  0  0  0  0  0  0  0  0  0
  1  2  1  0  0  0  0
  2  3  1  0  0  0  0
  3  4  1  0  0  0  0
  4  5  1  0  0  0  0
  5  6  2  0  0  0  0
  2  6  1  0  0  0  0
  6  7  1  0  0  0  0
  7  8  1  0  0  0  0
  8  9  1  0  0  0  0
  9 10  1  0  0  0  0
 10 11  1  0  0  0  0
  5 11  1  0  0  0  0
 11 12  1  0  0  0  0
  8 12  1  0  0  0  0
 12 13  1  0  0  0  0
 12 14  1  0  0  0  0
 11 15  1  0  0  0  0
  1 16  1  0  0  0  0
  1 17  1  0  0  0  0
  1 18  1  0  0  0  0
  2 19  1  0  0  0  0
  3 20  1  0  0  0  0
  3 21  1  0  0  0  0
  4 22  1  0  0  0  0
  4 23  1  0  0  0  0
  7 24  1  0  0  0  0
  7 25  1  0  0  0  0
  8 26  1  0  0  0  0
  9 27  1  0  0  0  0
  9 28  1  0  0  0  0
 10 29  1  0  0  0  0
 10 30  1  0  0  0  0
 13 31  1  0  0  0  0
 13 32  1  0  0  0  0
 13 33  1  0  0  0  0
 14 34  1  0  0  0  0
 14 35  1  0  0  0  0
 14 36  1  0  0  0  0
 15 37  1  0  0  0  0
 15 38  1  0  0  0  0
 15 39  1  0  0  0  0
M  END
$$$$
