C8H6O4
APtclcactv06211804333D 0   0.00000     0.00000
 
 18 18  0  0  0  0  0  0  0  0999 V2000
   -2.5238    1.2590   -0.0841 C   0  0  0  0  0  0  0  0  0  0  0  0
   -2.8171   -0.0894    0.0117 C   0  0  0  0  0  0  0  0  0  0  0  0
   -1.8001   -1.0244    0.0705 C   0  0  0  0  0  0  0  0  0  0  0  0
   -0.4715   -0.6108    0.0328 C   0  0  0  0  0  0  0  0  0  0  0  0
   -0.1730    0.7618   -0.0652 C   0  0  0  0  0  0  0  0  0  0  0  0
   -1.2101    1.6885   -0.1227 C   0  0  0  0  0  0  0  0  0  0  0  0
    1.2334    1.2160   -0.1058 C   0  0  0  0  0  0  0  0  0  0  0  0
    1.9929    0.7664   -0.9400 O   0  0  0  0  0  0  0  0  0  0  0  0
    1.6723    2.1286    0.7826 O   0  0  0  0  0  0  0  0  0  0  0  0
    0.6195   -1.6065    0.0957 C   0  0  0  0  0  0  0  0  0  0  0  0
    1.7740   -1.2381    0.1765 O   0  0  0  0  0  0  0  0  0  0  0  0
    0.3331   -2.9224    0.0636 O   0  0  0  0  0  0  0  0  0  0  0  0
   -3.3260    1.9804   -0.1335 H   0  0  0  0  0  0  0  0  0  0  0  0
   -3.8468   -0.4139    0.0412 H   0  0  0  0  0  0  0  0  0  0  0  0
   -2.0366   -2.0755    0.1459 H   0  0  0  0  0  0  0  0  0  0  0  0
   -0.9887    2.7429   -0.1983 H   0  0  0  0  0  0  0  0  0  0  0  0
    2.5996    2.3947    0.7167 H   0  0  0  0  0  0  0  0  0  0  0  0
    1.0797   -3.5354    0.1073 H   0  0  0  0  0  0  0  0  0  0  0  0
  1  2  2  0  0  0  0
  2  3  1  0  0  0  0
  3  4  2  0  0  0  0
  4  5  1  0  0  0  0
  5  6  2  0  0  0  0
  1  6  1  0  0  0  0
  5  7  1  0  0  0  0
  7  8  2  0  0  0  0
  7  9  1  0  0  0  0
  4 10  1  0  0  0  0
 10 11  2  0  0  0  0
 10 12  1  0  0  0  0
  1 13  1  0  0  0  0
  2 14  1  0  0  0  0
  3 15  1  0  0  0  0
  6 16  1  0  0  0  0
  9 17  1  0  0  0  0
 12 18  1  0  0  0  0
M  END
$$$$
