C31H29O14
APtclcactv06291803053D 0   0.00000     0.00000
 
 74 78  0  0  0  0  0  0  0  0999 V2000
    0.8675    3.5455    1.6383 C   0  0  0  0  0  0  0  0  0  0  0  0
   -0.4103    3.5247    2.2776 O   0  0  0  0  0  0  0  0  0  0  0  0
   -1.0498    2.3262    2.3406 C   0  0  0  0  0  0  0  0  0  0  0  0
   -2.3004    2.2345    2.9509 C   0  0  0  0  0  0  0  0  0  0  0  0
   -2.9574    1.0127    3.0171 C   0  0  0  0  0  0  0  0  0  0  0  0
   -2.3772   -0.1152    2.4804 C   0  0  0  0  0  0  0  0  0  0  0  0
   -1.1222   -0.0314    1.8662 C   0  0  0  0  0  0  0  0  0  0  0  0
   -0.4632    1.2015    1.7952 C   0  0  0  0  0  0  0  0  0  0  0  0
   -0.5002   -1.2345    1.2921 C   0  0  0  0  0  0  0  0  0  0  0  0
   -1.2747   -2.1102    0.5384 C   0  0  0  0  0  0  0  0  0  0  0  0
   -0.6952   -3.2487   -0.0080 C   0  0  0  0  0  0  0  0  0  0  0  0
    0.6706   -3.4831    0.2200 C   0  0  0  0  0  0  0  0  0  0  0  0
    1.3066   -4.6267   -0.3148 C   0  0  0  0  0  0  0  0  0  0  0  0
    2.6339   -4.8357   -0.0820 C   0  0  0  0  0  0  0  0  0  0  0  0
    3.3722   -3.9198    0.6873 C   0  0  0  0  0  0  0  0  0  0  0  0
    4.6697   -4.1348    0.9082 O   0  0  0  0  0  0  0  0  0  0  0  0
    2.7549   -2.7838    1.2224 C   0  0  0  0  0  0  0  0  0  0  0  0
    1.4117   -2.5587    0.9947 C   0  0  0  0  0  0  0  0  0  0  0  0
    0.8061   -1.4644    1.5004 O   0  0  0  0  0  0  0  0  0  0  0  0
    0.5982   -5.5143   -1.0573 O   0  0  0  0  0  0  0  0  0  0  0  0
   -2.5948   -1.8532    0.3374 O   0  0  0  0  0  0  0  0  0  0  0  0
   -3.0297   -1.7133   -1.0166 C   0  0  0  0  0  0  0  0  0  0  0  0
   -4.5594   -1.6711   -1.0597 C   0  0  0  0  0  0  0  0  0  0  0  0
   -5.0506   -0.4445   -0.2847 C   0  0  0  0  0  0  0  0  0  0  0  0
   -4.4170    0.8135   -0.8868 C   0  0  0  0  0  0  0  0  0  0  0  0
   -2.8928    0.6753   -0.8503 C   0  0  0  0  0  0  0  0  0  0  0  0
   -2.5054   -0.5014   -1.5628 O   0  0  0  0  0  0  0  0  0  0  0  0
   -2.2534    1.9017   -1.5046 C   0  0  0  0  0  0  0  0  0  0  0  0
   -0.8329    1.8286   -1.3672 O   0  0  0  0  0  0  0  0  0  0  0  0
   -0.1137    2.8412   -1.8945 C   0  0  0  0  0  0  0  0  0  0  0  0
   -0.6786    3.7609   -2.4556 O   0  3  0  0  0  0  0  0  0  0  0  0
   -0.1285    4.4993   -2.7510 H   0  0  0  0  0  0  0  0  0  0  0  0
    1.3006    2.8332   -1.7946 C   0  0  0  0  0  0  0  0  0  0  0  0
    1.9346    1.7624   -1.2688 C   0  0  0  0  0  0  0  0  0  0  0  0
    3.3882    1.8003   -1.0565 C   0  0  0  0  0  0  0  0  0  0  0  0
    4.0473    0.6919   -0.5119 C   0  0  0  0  0  0  0  0  0  0  0  0
    5.4134    0.7334   -0.3152 C   0  0  0  0  0  0  0  0  0  0  0  0
    6.1332    1.8774   -0.6584 C   0  0  0  0  0  0  0  0  0  0  0  0
    5.4803    2.9777   -1.1984 C   0  0  0  0  0  0  0  0  0  0  0  0
    4.1188    2.9427   -1.4038 C   0  0  0  0  0  0  0  0  0  0  0  0
    7.4768    1.9157   -0.4635 O   0  0  0  0  0  0  0  0  0  0  0  0
    6.0570   -0.3415    0.2137 O   0  0  0  0  0  0  0  0  0  0  0  0
   -4.8505    0.9657   -2.2399 O   0  0  0  0  0  0  0  0  0  0  0  0
   -6.4736   -0.3562   -0.3814 O   0  0  0  0  0  0  0  0  0  0  0  0
   -4.9967   -1.5846   -2.4175 O   0  0  0  0  0  0  0  0  0  0  0  0
   -2.8773    3.3432    3.4824 O   0  0  0  0  0  0  0  0  0  0  0  0
    1.5486    2.8775    2.1657 H   0  0  0  0  0  0  0  0  0  0  0  0
    0.7622    3.2151    0.6049 H   0  0  0  0  0  0  0  0  0  0  0  0
    1.2665    4.5597    1.6566 H   0  0  0  0  0  0  0  0  0  0  0  0
   -3.9256    0.9468    3.4911 H   0  0  0  0  0  0  0  0  0  0  0  0
   -2.8902   -1.0641    2.5336 H   0  0  0  0  0  0  0  0  0  0  0  0
    0.5053    1.2712    1.3223 H   0  0  0  0  0  0  0  0  0  0  0  0
   -1.2826   -3.9389   -0.5953 H   0  0  0  0  0  0  0  0  0  0  0  0
    3.1201   -5.7093   -0.4904 H   0  0  0  0  0  0  0  0  0  0  0  0
    3.3281   -2.0844    1.8129 H   0  0  0  0  0  0  0  0  0  0  0  0
    1.1194   -6.2628   -1.3787 H   0  0  0  0  0  0  0  0  0  0  0  0
   -2.6728   -2.5605   -1.6024 H   0  0  0  0  0  0  0  0  0  0  0  0
   -4.9618   -2.5754   -0.6034 H   0  0  0  0  0  0  0  0  0  0  0  0
   -4.7598   -0.5340    0.7619 H   0  0  0  0  0  0  0  0  0  0  0  0
   -4.7176    1.6860   -0.3067 H   0  0  0  0  0  0  0  0  0  0  0  0
   -2.5593    0.5998    0.1847 H   0  0  0  0  0  0  0  0  0  0  0  0
   -2.5154    1.9272   -2.5623 H   0  0  0  0  0  0  0  0  0  0  0  0
   -2.6195    2.8055   -1.0177 H   0  0  0  0  0  0  0  0  0  0  0  0
    1.8710    3.6832   -2.1389 H   0  0  0  0  0  0  0  0  0  0  0  0
    1.3731    0.8785   -1.0045 H   0  0  0  0  0  0  0  0  0  0  0  0
    3.4886   -0.1933   -0.2458 H   0  0  0  0  0  0  0  0  0  0  0  0
    6.0422    3.8614   -1.4622 H   0  0  0  0  0  0  0  0  0  0  0  0
    3.6137    3.7999   -1.8239 H   0  0  0  0  0  0  0  0  0  0  0  0
    7.9929    1.6033   -1.2192 H   0  0  0  0  0  0  0  0  0  0  0  0
    6.3699   -0.9761   -0.4455 H   0  0  0  0  0  0  0  0  0  0  0  0
   -5.8084    1.0541   -2.3385 H   0  0  0  0  0  0  0  0  0  0  0  0
   -6.9404   -1.1242   -0.0246 H   0  0  0  0  0  0  0  0  0  0  0  0
   -4.7166   -2.3279   -2.9689 H   0  0  0  0  0  0  0  0  0  0  0  0
   -3.4347    3.8325    2.8618 H   0  0  0  0  0  0  0  0  0  0  0  0
  1  2  1  0  0  0  0
  2  3  1  0  0  0  0
  3  4  2  0  0  0  0
  4  5  1  0  0  0  0
  5  6  2  0  0  0  0
  6  7  1  0  0  0  0
  7  8  2  0  0  0  0
  3  8  1  0  0  0  0
  7  9  1  0  0  0  0
  9 10  2  0  0  0  0
 10 11  1  0  0  0  0
 11 12  2  0  0  0  0
 12 13  1  0  0  0  0
 13 14  2  0  0  0  0
 14 15  1  0  0  0  0
 15 16  2  0  0  0  0
 15 17  1  0  0  0  0
 17 18  2  0  0  0  0
 12 18  1  0  0  0  0
 18 19  1  0  0  0  0
  9 19  1  0  0  0  0
 13 20  1  0  0  0  0
 10 21  1  0  0  0  0
 21 22  1  0  0  0  0
 22 23  1  0  0  0  0
 23 24  1  0  0  0  0
 24 25  1  0  0  0  0
 25 26  1  0  0  0  0
 26 27  1  0  0  0  0
 22 27  1  0  0  0  0
 26 28  1  0  0  0  0
 28 29  1  0  0  0  0
 29 30  1  0  0  0  0
 30 31  2  0  0  0  0
 31 32  1  0  0  0  0
 30 33  1  0  0  0  0
 33 34  2  0  0  0  0
 34 35  1  0  0  0  0
 35 36  2  0  0  0  0
 36 37  1  0  0  0  0
 37 38  2  0  0  0  0
 38 39  1  0  0  0  0
 39 40  2  0  0  0  0
 35 40  1  0  0  0  0
 38 41  1  0  0  0  0
 37 42  1  0  0  0  0
 25 43  1  0  0  0  0
 24 44  1  0  0  0  0
 23 45  1  0  0  0  0
  4 46  1  0  0  0  0
  1 47  1  0  0  0  0
  1 48  1  0  0  0  0
  1 49  1  0  0  0  0
  5 50  1  0  0  0  0
  6 51  1  0  0  0  0
  8 52  1  0  0  0  0
 11 53  1  0  0  0  0
 14 54  1  0  0  0  0
 17 55  1  0  0  0  0
 20 56  1  0  0  0  0
 22 57  1  0  0  0  0
 23 58  1  0  0  0  0
 24 59  1  0  0  0  0
 25 60  1  0  0  0  0
 26 61  1  0  0  0  0
 28 62  1  0  0  0  0
 28 63  1  0  0  0  0
 33 64  1  0  0  0  0
 34 65  1  0  0  0  0
 36 66  1  0  0  0  0
 39 67  1  0  0  0  0
 40 68  1  0  0  0  0
 41 69  1  0  0  0  0
 42 70  1  0  0  0  0
 43 71  1  0  0  0  0
 44 72  1  0  0  0  0
 45 73  1  0  0  0  0
 46 74  1  0  0  0  0
M  CHG  1  31   1
M  END
$$$$
