C11H10O4
APtclcactv06211804453D 0   0.00000     0.00000
 
 25 26  0  0  0  0  0  0  0  0999 V2000
    3.8684   -1.8856   -0.0082 C   0  0  0  0  0  0  0  0  0  0  0  0
    2.6483   -1.0011   -0.0023 C   0  0  0  0  0  0  0  0  0  0  0  0
    2.8204    0.3318    0.0052 C   0  0  0  0  0  0  0  0  0  0  0  0
    1.6847    1.1870    0.0108 C   0  0  0  0  0  0  0  0  0  0  0  0
    1.8036    2.4009    0.0173 O   0  0  0  0  0  0  0  0  0  0  0  0
    0.3598    0.5468    0.0080 C   0  0  0  0  0  0  0  0  0  0  0  0
   -0.8179    1.3046    0.0126 C   0  0  0  0  0  0  0  0  0  0  0  0
   -2.0413    0.6602    0.0093 C   0  0  0  0  0  0  0  0  0  0  0  0
   -2.0994   -0.7291    0.0015 C   0  0  0  0  0  0  0  0  0  0  0  0
   -0.9376   -1.4856   -0.0026 C   0  0  0  0  0  0  0  0  0  0  0  0
    0.2982   -0.8583    0.0001 C   0  0  0  0  0  0  0  0  0  0  0  0
    1.4405   -1.5765   -0.0102 O   0  0  0  0  0  0  0  0  0  0  0  0
   -3.3060   -1.3510   -0.0017 O   0  0  0  0  0  0  0  0  0  0  0  0
   -4.4660   -0.5165    0.0034 C   0  0  0  0  0  0  0  0  0  0  0  0
   -0.7589    2.6603    0.0207 O   0  0  0  0  0  0  0  0  0  0  0  0
    4.1632   -2.1047    1.0181 H   0  0  0  0  0  0  0  0  0  0  0  0
    3.6398   -2.8165   -0.5272 H   0  0  0  0  0  0  0  0  0  0  0  0
    4.6846   -1.3754   -0.5196 H   0  0  0  0  0  0  0  0  0  0  0  0
    3.8158    0.7509    0.0073 H   0  0  0  0  0  0  0  0  0  0  0  0
   -2.9541    1.2375    0.0131 H   0  0  0  0  0  0  0  0  0  0  0  0
   -0.9956   -2.5641   -0.0080 H   0  0  0  0  0  0  0  0  0  0  0  0
   -4.4606    0.1078    0.8969 H   0  0  0  0  0  0  0  0  0  0  0  0
   -4.4611    0.1178   -0.8831 H   0  0  0  0  0  0  0  0  0  0  0  0
   -5.3611   -1.1385    0.0001 H   0  0  0  0  0  0  0  0  0  0  0  0
   -0.7418    3.0585   -0.8604 H   0  0  0  0  0  0  0  0  0  0  0  0
  1  2  1  0  0  0  0
  2  3  2  0  0  0  0
  3  4  1  0  0  0  0
  4  5  2  0  0  0  0
  4  6  1  0  0  0  0
  6  7  2  0  0  0  0
  7  8  1  0  0  0  0
  8  9  2  0  0  0  0
  9 10  1  0  0  0  0
 10 11  2  0  0  0  0
  6 11  1  0  0  0  0
 11 12  1  0  0  0  0
  2 12  1  0  0  0  0
  9 13  1  0  0  0  0
 13 14  1  0  0  0  0
  7 15  1  0  0  0  0
  1 16  1  0  0  0  0
  1 17  1  0  0  0  0
  1 18  1  0  0  0  0
  3 19  1  0  0  0  0
  8 20  1  0  0  0  0
 10 21  1  0  0  0  0
 14 22  1  0  0  0  0
 14 23  1  0  0  0  0
 14 24  1  0  0  0  0
 15 25  1  0  0  0  0
M  END
$$$$
