C16H16O4
APtclcactv06291803053D 0   0.00000     0.00000
 
 36 37  0  0  0  0  0  0  0  0999 V2000
    6.0771   -0.6653    0.0275 C   0  0  0  0  0  0  0  0  0  0  0  0
    4.6204   -0.2794    0.0207 C   0  0  0  0  0  0  0  0  0  0  0  0
    4.2601    1.0607    0.0138 C   0  0  0  0  0  0  0  0  0  0  0  0
    2.9230    1.4204    0.0076 C   0  0  0  0  0  0  0  0  0  0  0  0
    1.9362    0.4318    0.0082 C   0  0  0  0  0  0  0  0  0  0  0  0
    2.3040   -0.9157    0.0150 C   0  0  0  0  0  0  0  0  0  0  0  0
    3.6438   -1.2652    0.0155 C   0  0  0  0  0  0  0  0  0  0  0  0
    4.0030   -2.5759    0.0218 O   0  0  0  0  0  0  0  0  0  0  0  0
    0.5114    0.8093    0.0020 C   0  0  0  0  0  0  0  0  0  0  0  0
   -0.4354   -0.1428    0.0025 C   0  0  0  0  0  0  0  0  0  0  0  0
   -1.8596    0.2345   -0.0036 C   0  0  0  0  0  0  0  0  0  0  0  0
   -2.8467   -0.7550   -0.0030 C   0  0  0  0  0  0  0  0  0  0  0  0
   -4.1812   -0.3952   -0.0089 C   0  0  0  0  0  0  0  0  0  0  0  0
   -4.5400    0.9510   -0.0158 C   0  0  0  0  0  0  0  0  0  0  0  0
   -3.5607    1.9337   -0.0168 C   0  0  0  0  0  0  0  0  0  0  0  0
   -2.2272    1.5830   -0.0043 C   0  0  0  0  0  0  0  0  0  0  0  0
   -5.8532    1.3026   -0.0220 O   0  0  0  0  0  0  0  0  0  0  0  0
   -5.1443   -1.3554   -0.0083 O   0  0  0  0  0  0  0  0  0  0  0  0
   -4.7046   -2.7151   -0.0016 C   0  0  0  0  0  0  0  0  0  0  0  0
    5.2211    2.0216    0.0138 O   0  0  0  0  0  0  0  0  0  0  0  0
    6.4247   -0.7541    1.0568 H   0  0  0  0  0  0  0  0  0  0  0  0
    6.2022   -1.6208   -0.4820 H   0  0  0  0  0  0  0  0  0  0  0  0
    6.6581    0.0998   -0.4875 H   0  0  0  0  0  0  0  0  0  0  0  0
    2.6435    2.4636    0.0026 H   0  0  0  0  0  0  0  0  0  0  0  0
    1.5447   -1.6837    0.0159 H   0  0  0  0  0  0  0  0  0  0  0  0
    4.1061   -2.9597   -0.8598 H   0  0  0  0  0  0  0  0  0  0  0  0
    0.2290    1.8517   -0.0030 H   0  0  0  0  0  0  0  0  0  0  0  0
   -0.1530   -1.1852    0.0075 H   0  0  0  0  0  0  0  0  0  0  0  0
   -2.5673   -1.7982    0.0016 H   0  0  0  0  0  0  0  0  0  0  0  0
   -3.8435    2.9760   -0.0225 H   0  0  0  0  0  0  0  0  0  0  0  0
   -1.4669    2.3501   -0.0047 H   0  0  0  0  0  0  0  0  0  0  0  0
   -6.2363    1.4080    0.8596 H   0  0  0  0  0  0  0  0  0  0  0  0
   -4.1010   -2.9062   -0.8888 H   0  0  0  0  0  0  0  0  0  0  0  0
   -4.1069   -2.8993    0.8911 H   0  0  0  0  0  0  0  0  0  0  0  0
   -5.5707   -3.3770   -0.0019 H   0  0  0  0  0  0  0  0  0  0  0  0
    5.5027    2.2961   -0.8697 H   0  0  0  0  0  0  0  0  0  0  0  0
  1  2  1  0  0  0  0
  2  3  2  0  0  0  0
  3  4  1  0  0  0  0
  4  5  2  0  0  0  0
  5  6  1  0  0  0  0
  6  7  2  0  0  0  0
  2  7  1  0  0  0  0
  7  8  1  0  0  0  0
  5  9  1  0  0  0  0
  9 10  2  0  0  0  0
 10 11  1  0  0  0  0
 11 12  2  0  0  0  0
 12 13  1  0  0  0  0
 13 14  2  0  0  0  0
 14 15  1  0  0  0  0
 15 16  2  0  0  0  0
 11 16  1  0  0  0  0
 14 17  1  0  0  0  0
 13 18  1  0  0  0  0
 18 19  1  0  0  0  0
  3 20  1  0  0  0  0
  1 21  1  0  0  0  0
  1 22  1  0  0  0  0
  1 23  1  0  0  0  0
  4 24  1  0  0  0  0
  6 25  1  0  0  0  0
  8 26  1  0  0  0  0
  9 27  1  0  0  0  0
 10 28  1  0  0  0  0
 12 29  1  0  0  0  0
 15 30  1  0  0  0  0
 16 31  1  0  0  0  0
 17 32  1  0  0  0  0
 19 33  1  0  0  0  0
 19 34  1  0  0  0  0
 19 35  1  0  0  0  0
 20 36  1  0  0  0  0
M  END
$$$$
