C25H26O7
APtclcactv06291803053D 0   0.00000     0.00000
 
 58 61  0  0  0  0  0  0  0  0999 V2000
   -6.0620    2.7255    0.3903 C   0  0  0  0  0  0  0  0  0  0  0  0
   -6.6855    1.4546   -0.1902 C   0  0  0  0  0  0  0  0  0  0  0  0
   -6.1882    1.2556   -1.5976 C   0  0  0  0  0  0  0  0  0  0  0  0
   -5.0703    0.5664   -1.8177 C   0  0  0  0  0  0  0  0  0  0  0  0
   -4.3581    0.0048   -0.6503 C   0  0  0  0  0  0  0  0  0  0  0  0
   -5.0443   -0.0882    0.5694 C   0  0  0  0  0  0  0  0  0  0  0  0
   -6.3318    0.3398    0.6294 O   0  0  0  0  0  0  0  0  0  0  0  0
   -4.4080   -0.6085    1.6824 C   0  0  0  0  0  0  0  0  0  0  0  0
   -3.0973   -1.0365    1.5944 C   0  0  0  0  0  0  0  0  0  0  0  0
   -2.4047   -0.9494    0.3880 C   0  0  0  0  0  0  0  0  0  0  0  0
   -3.0368   -0.4265   -0.7442 C   0  0  0  0  0  0  0  0  0  0  0  0
   -2.3688   -0.3387   -1.9234 O   0  0  0  0  0  0  0  0  0  0  0  0
   -0.9977   -1.4117    0.3052 C   0  0  0  0  0  0  0  0  0  0  0  0
   -0.6822   -2.5836   -0.3034 C   0  0  0  0  0  0  0  0  0  0  0  0
    0.5653   -3.0477   -0.3873 O   0  0  0  0  0  0  0  0  0  0  0  0
    1.6255   -2.2489   -0.1608 C   0  0  0  0  0  0  0  0  0  0  0  0
    2.8960   -2.6354   -0.5646 C   0  0  0  0  0  0  0  0  0  0  0  0
    3.9843   -1.8135   -0.3190 C   0  0  0  0  0  0  0  0  0  0  0  0
    3.8237   -0.5961    0.3338 C   0  0  0  0  0  0  0  0  0  0  0  0
    2.5665   -0.1900    0.7422 C   0  0  0  0  0  0  0  0  0  0  0  0
    1.4618   -1.0115    0.4883 C   0  0  0  0  0  0  0  0  0  0  0  0
    0.1008   -0.6077    0.8767 C   0  0  0  0  0  0  0  0  0  0  0  0
   -0.1072    0.3299    1.6278 O   0  0  0  0  0  0  0  0  0  0  0  0
    2.4049    0.9951    1.3832 O   0  0  0  0  0  0  0  0  0  0  0  0
    5.0207    0.2809    0.5968 C   0  0  0  0  0  0  0  0  0  0  0  0
    5.2252    1.2321   -0.5840 C   0  0  0  0  0  0  0  0  0  0  0  0
    6.4405    2.1225   -0.3171 C   0  0  0  0  0  0  0  0  0  0  0  0
    6.5714    3.1561   -1.4375 C   0  0  0  0  0  0  0  0  0  0  0  0
    6.2617    2.8415    1.0216 C   0  0  0  0  0  0  0  0  0  0  0  0
    7.6201    1.3173   -0.2715 O   0  0  0  0  0  0  0  0  0  0  0  0
    5.2218   -2.2015   -0.7199 O   0  0  0  0  0  0  0  0  0  0  0  0
   -8.2081    1.6029   -0.2093 C   0  0  0  0  0  0  0  0  0  0  0  0
   -6.3457    3.5816   -0.2218 H   0  0  0  0  0  0  0  0  0  0  0  0
   -6.4197    2.8729    1.4093 H   0  0  0  0  0  0  0  0  0  0  0  0
   -4.9765    2.6274    0.3969 H   0  0  0  0  0  0  0  0  0  0  0  0
   -6.7385    1.6716   -2.4286 H   0  0  0  0  0  0  0  0  0  0  0  0
   -4.6950    0.4215   -2.8200 H   0  0  0  0  0  0  0  0  0  0  0  0
   -4.9366   -0.6799    2.6214 H   0  0  0  0  0  0  0  0  0  0  0  0
   -2.6057   -1.4410    2.4669 H   0  0  0  0  0  0  0  0  0  0  0  0
   -2.4541   -1.1226   -2.4831 H   0  0  0  0  0  0  0  0  0  0  0  0
   -1.4790   -3.1676   -0.7398 H   0  0  0  0  0  0  0  0  0  0  0  0
    3.0367   -3.5789   -1.0710 H   0  0  0  0  0  0  0  0  0  0  0  0
    2.2362    1.7419    0.7926 H   0  0  0  0  0  0  0  0  0  0  0  0
    4.8543    0.8599    1.5052 H   0  0  0  0  0  0  0  0  0  0  0  0
    5.9071   -0.3414    0.7198 H   0  0  0  0  0  0  0  0  0  0  0  0
    5.3916    0.6531   -1.4924 H   0  0  0  0  0  0  0  0  0  0  0  0
    4.3388    1.8544   -0.7070 H   0  0  0  0  0  0  0  0  0  0  0  0
    5.6716    3.7703   -1.4723 H   0  0  0  0  0  0  0  0  0  0  0  0
    7.4371    3.7905   -1.2474 H   0  0  0  0  0  0  0  0  0  0  0  0
    6.6987    2.6439   -2.3912 H   0  0  0  0  0  0  0  0  0  0  0  0
    6.1684    2.1051    1.8199 H   0  0  0  0  0  0  0  0  0  0  0  0
    7.1274    3.4758    1.2118 H   0  0  0  0  0  0  0  0  0  0  0  0
    5.3619    3.4557    0.9869 H   0  0  0  0  0  0  0  0  0  0  0  0
    7.7965    0.8314   -1.0888 H   0  0  0  0  0  0  0  0  0  0  0  0
    5.4539   -1.9140   -1.6135 H   0  0  0  0  0  0  0  0  0  0  0  0
   -8.4821    2.4587   -0.8261 H   0  0  0  0  0  0  0  0  0  0  0  0
   -8.6561    0.6991   -0.6223 H   0  0  0  0  0  0  0  0  0  0  0  0
   -8.5710    1.7564    0.8070 H   0  0  0  0  0  0  0  0  0  0  0  0
  1  2  1  0  0  0  0
  2  3  1  0  0  0  0
  3  4  2  0  0  0  0
  4  5  1  0  0  0  0
  5  6  2  0  0  0  0
  6  7  1  0  0  0  0
  2  7  1  0  0  0  0
  6  8  1  0  0  0  0
  8  9  2  0  0  0  0
  9 10  1  0  0  0  0
 10 11  2  0  0  0  0
  5 11  1  0  0  0  0
 11 12  1  0  0  0  0
 10 13  1  0  0  0  0
 13 14  2  0  0  0  0
 14 15  1  0  0  0  0
 15 16  1  0  0  0  0
 16 17  2  0  0  0  0
 17 18  1  0  0  0  0
 18 19  2  0  0  0  0
 19 20  1  0  0  0  0
 20 21  2  0  0  0  0
 16 21  1  0  0  0  0
 21 22  1  0  0  0  0
 13 22  1  0  0  0  0
 22 23  2  0  0  0  0
 20 24  1  0  0  0  0
 19 25  1  0  0  0  0
 25 26  1  0  0  0  0
 26 27  1  0  0  0  0
 27 28  1  0  0  0  0
 27 29  1  0  0  0  0
 27 30  1  0  0  0  0
 18 31  1  0  0  0  0
  2 32  1  0  0  0  0
  1 33  1  0  0  0  0
  1 34  1  0  0  0  0
  1 35  1  0  0  0  0
  3 36  1  0  0  0  0
  4 37  1  0  0  0  0
  8 38  1  0  0  0  0
  9 39  1  0  0  0  0
 12 40  1  0  0  0  0
 14 41  1  0  0  0  0
 17 42  1  0  0  0  0
 24 43  1  0  0  0  0
 25 44  1  0  0  0  0
 25 45  1  0  0  0  0
 26 46  1  0  0  0  0
 26 47  1  0  0  0  0
 28 48  1  0  0  0  0
 28 49  1  0  0  0  0
 28 50  1  0  0  0  0
 29 51  1  0  0  0  0
 29 52  1  0  0  0  0
 29 53  1  0  0  0  0
 30 54  1  0  0  0  0
 31 55  1  0  0  0  0
 32 56  1  0  0  0  0
 32 57  1  0  0  0  0
 32 58  1  0  0  0  0
M  END
$$$$
