C50H58O10
APtclcactv06281817273D 0   0.00000     0.00000
 
118121  0  0  0  0  0  0  0  0999 V2000
    0.2053   -5.6699    0.2742 C   0  0  0  0  0  0  0  0  0  0  0  0
   -0.3864   -6.7001    1.2013 C   0  0  0  0  0  0  0  0  0  0  0  0
   -0.9481   -6.3254    2.3239 C   0  0  0  0  0  0  0  0  0  0  0  0
   -1.1151   -4.8594    2.6303 C   0  0  0  0  0  0  0  0  0  0  0  0
   -2.6053   -4.5204    2.7044 C   0  0  0  0  0  0  0  0  0  0  0  0
   -2.7723   -3.0544    3.0108 C   0  0  0  0  0  0  0  0  0  0  0  0
   -2.9457   -2.1970    2.0357 C   0  0  0  0  0  0  0  0  0  0  0  0
   -3.2326   -0.7506    2.3462 C   0  0  0  0  0  0  0  0  0  0  0  0
   -2.2095    0.1218    1.6655 C   0  0  0  0  0  0  0  0  0  0  0  0
   -2.4451    0.5893    0.3850 C   0  0  0  0  0  0  0  0  0  0  0  0
   -1.5138    1.3888   -0.2462 C   0  0  0  0  0  0  0  0  0  0  0  0
   -0.3300    1.7286    0.4062 C   0  0  0  0  0  0  0  0  0  0  0  0
   -0.0913    1.2576    1.6992 C   0  0  0  0  0  0  0  0  0  0  0  0
   -1.0384    0.4576    2.3270 C   0  0  0  0  0  0  0  0  0  0  0  0
   -0.8121   -0.0039    3.5862 O   0  0  0  0  0  0  0  0  0  0  0  0
    1.0609    1.5844    2.3428 O   0  0  0  0  0  0  0  0  0  0  0  0
    0.6729    2.5869   -0.2704 C   0  0  0  0  0  0  0  0  0  0  0  0
    0.3729    3.9174   -0.5572 C   0  0  0  0  0  0  0  0  0  0  0  0
    1.3111    4.7148   -1.1879 C   0  0  0  0  0  0  0  0  0  0  0  0
    2.5522    4.1873   -1.5347 C   0  0  0  0  0  0  0  0  0  0  0  0
    2.8496    2.8635   -1.2489 C   0  0  0  0  0  0  0  0  0  0  0  0
    1.9187    2.0657   -0.6150 C   0  0  0  0  0  0  0  0  0  0  0  0
    2.2453    0.6275   -0.3054 C   0  0  0  0  0  0  0  0  0  0  0  0
    1.9287   -0.2412   -1.5244 C   0  0  0  0  0  0  0  0  0  0  0  0
    2.3137   -1.6696   -1.2370 C   0  0  0  0  0  0  0  0  0  0  0  0
    2.7079   -1.9812   -0.1326 O   0  0  0  0  0  0  0  0  0  0  0  0
    2.2121   -2.6818   -2.2910 C   0  0  0  0  0  0  0  0  0  0  0  0
    2.6859   -3.9868   -2.0657 C   0  0  0  0  0  0  0  0  0  0  0  0
    2.5836   -4.9342   -3.0697 C   0  0  0  0  0  0  0  0  0  0  0  0
    2.0162   -4.5925   -4.2888 C   0  0  0  0  0  0  0  0  0  0  0  0
    1.5484   -3.2992   -4.5091 C   0  0  0  0  0  0  0  0  0  0  0  0
    1.6371   -2.3562   -3.5272 C   0  0  0  0  0  0  0  0  0  0  0  0
    1.9170   -5.5226   -5.2714 O   0  0  0  0  0  0  0  0  0  0  0  0
    3.2399   -4.3148   -0.8722 O   0  0  0  0  0  0  0  0  0  0  0  0
    4.1939    2.2964   -1.6258 C   0  0  0  0  0  0  0  0  0  0  0  0
    5.1340    2.4107   -0.4535 C   0  0  0  0  0  0  0  0  0  0  0  0
    6.3141    2.9572   -0.6111 C   0  0  0  0  0  0  0  0  0  0  0  0
    6.7889    3.3407   -1.9890 C   0  0  0  0  0  0  0  0  0  0  0  0
    7.1968    3.2024    0.5854 C   0  0  0  0  0  0  0  0  0  0  0  0
    8.1881    2.0465    0.7333 C   0  0  0  0  0  0  0  0  0  0  0  0
    8.9906    2.2312    1.9954 C   0  0  0  0  0  0  0  0  0  0  0  0
    8.8782    1.3690    2.9752 C   0  0  0  0  0  0  0  0  0  0  0  0
    7.8604    0.2609    2.8907 C   0  0  0  0  0  0  0  0  0  0  0  0
    9.7668    1.4851    4.1868 C   0  0  0  0  0  0  0  0  0  0  0  0
    3.4738    4.9714   -2.1550 O   0  0  0  0  0  0  0  0  0  0  0  0
    1.0212    6.0133   -1.4695 O   0  0  0  0  0  0  0  0  0  0  0  0
   -3.7237    0.2236   -0.3239 C   0  0  0  0  0  0  0  0  0  0  0  0
   -4.8285    1.2020    0.0800 C   0  0  0  0  0  0  0  0  0  0  0  0
   -6.1071    0.8364   -0.6290 C   0  0  0  0  0  0  0  0  0  0  0  0
   -6.1322   -0.1137   -1.3833 O   0  0  0  0  0  0  0  0  0  0  0  0
   -7.3196    1.6279   -0.4073 C   0  0  0  0  0  0  0  0  0  0  0  0
   -8.5148    1.2897   -1.0671 C   0  0  0  0  0  0  0  0  0  0  0  0
   -9.6538    2.0455   -0.8487 C   0  0  0  0  0  0  0  0  0  0  0  0
   -9.6103    3.1288    0.0170 C   0  0  0  0  0  0  0  0  0  0  0  0
   -8.4252    3.4614    0.6686 C   0  0  0  0  0  0  0  0  0  0  0  0
   -7.2960    2.7226    0.4678 C   0  0  0  0  0  0  0  0  0  0  0  0
  -10.7279    3.8681    0.2295 O   0  0  0  0  0  0  0  0  0  0  0  0
   -8.5510    0.2301   -1.9125 O   0  0  0  0  0  0  0  0  0  0  0  0
   -2.7399   -2.5747    4.4391 C   0  0  0  0  0  0  0  0  0  0  0  0
   -0.3319   -8.1614    0.8370 C   0  0  0  0  0  0  0  0  0  0  0  0
    0.9296   -5.0642    0.8189 H   0  0  0  0  0  0  0  0  0  0  0  0
    0.7022   -6.1712   -0.5563 H   0  0  0  0  0  0  0  0  0  0  0  0
   -0.5881   -5.0290   -0.1105 H   0  0  0  0  0  0  0  0  0  0  0  0
   -1.2914   -7.0672    3.0298 H   0  0  0  0  0  0  0  0  0  0  0  0
   -0.6428   -4.6318    3.5859 H   0  0  0  0  0  0  0  0  0  0  0  0
   -0.6467   -4.2681    1.8435 H   0  0  0  0  0  0  0  0  0  0  0  0
   -3.0776   -4.7480    1.7488 H   0  0  0  0  0  0  0  0  0  0  0  0
   -3.0737   -5.1117    3.4912 H   0  0  0  0  0  0  0  0  0  0  0  0
   -2.8830   -2.5268    1.0092 H   0  0  0  0  0  0  0  0  0  0  0  0
   -4.2282   -0.4921    1.9855 H   0  0  0  0  0  0  0  0  0  0  0  0
   -3.1844   -0.5938    3.4238 H   0  0  0  0  0  0  0  0  0  0  0  0
   -1.7023    1.7509   -1.2460 H   0  0  0  0  0  0  0  0  0  0  0  0
   -1.1341    0.5831    4.2840 H   0  0  0  0  0  0  0  0  0  0  0  0
    1.0039    2.3976    2.8628 H   0  0  0  0  0  0  0  0  0  0  0  0
   -0.5903    4.3251   -0.2879 H   0  0  0  0  0  0  0  0  0  0  0  0
    3.3041    0.5397   -0.0618 H   0  0  0  0  0  0  0  0  0  0  0  0
    1.6483    0.2940    0.5434 H   0  0  0  0  0  0  0  0  0  0  0  0
    0.8616   -0.1890   -1.7405 H   0  0  0  0  0  0  0  0  0  0  0  0
    2.4917    0.1208   -2.3847 H   0  0  0  0  0  0  0  0  0  0  0  0
    2.9454   -5.9382   -2.9044 H   0  0  0  0  0  0  0  0  0  0  0  0
    1.1086   -3.0426   -5.4616 H   0  0  0  0  0  0  0  0  0  0  0  0
    1.2721   -1.3556   -3.7056 H   0  0  0  0  0  0  0  0  0  0  0  0
    1.0931   -6.0285   -5.2524 H   0  0  0  0  0  0  0  0  0  0  0  0
    2.6055   -4.6460   -0.2219 H   0  0  0  0  0  0  0  0  0  0  0  0
    4.0817    1.2476   -1.9006 H   0  0  0  0  0  0  0  0  0  0  0  0
    4.5986    2.8523   -2.4716 H   0  0  0  0  0  0  0  0  0  0  0  0
    4.8348    2.0421    0.5165 H   0  0  0  0  0  0  0  0  0  0  0  0
    6.5451    4.3859   -2.1795 H   0  0  0  0  0  0  0  0  0  0  0  0
    7.8681    3.2019   -2.0531 H   0  0  0  0  0  0  0  0  0  0  0  0
    6.2970    2.7118   -2.7310 H   0  0  0  0  0  0  0  0  0  0  0  0
    7.7440    4.1351    0.4482 H   0  0  0  0  0  0  0  0  0  0  0  0
    6.5817    3.2707    1.4827 H   0  0  0  0  0  0  0  0  0  0  0  0
    7.6425    1.1042    0.7843 H   0  0  0  0  0  0  0  0  0  0  0  0
    8.8595    2.0315   -0.1252 H   0  0  0  0  0  0  0  0  0  0  0  0
    9.6583    3.0746    2.0922 H   0  0  0  0  0  0  0  0  0  0  0  0
    8.2794   -0.5755    2.3312 H   0  0  0  0  0  0  0  0  0  0  0  0
    7.5985   -0.0693    3.8960 H   0  0  0  0  0  0  0  0  0  0  0  0
    6.9671    0.6259    2.3839 H   0  0  0  0  0  0  0  0  0  0  0  0
   10.4327    2.3399    4.0684 H   0  0  0  0  0  0  0  0  0  0  0  0
    9.1522    1.6238    5.0762 H   0  0  0  0  0  0  0  0  0  0  0  0
   10.3584    0.5756    4.2921 H   0  0  0  0  0  0  0  0  0  0  0  0
    4.0630    5.4407   -1.5486 H   0  0  0  0  0  0  0  0  0  0  0  0
    1.2597    6.6313   -0.7650 H   0  0  0  0  0  0  0  0  0  0  0  0
   -3.5690    0.2750   -1.4017 H   0  0  0  0  0  0  0  0  0  0  0  0
   -4.0160   -0.7891   -0.0466 H   0  0  0  0  0  0  0  0  0  0  0  0
   -4.9831    1.1507    1.1577 H   0  0  0  0  0  0  0  0  0  0  0  0
   -4.5362    2.2148   -0.1973 H   0  0  0  0  0  0  0  0  0  0  0  0
  -10.5752    1.7923   -1.3520 H   0  0  0  0  0  0  0  0  0  0  0  0
   -8.4011    4.3067    1.3403 H   0  0  0  0  0  0  0  0  0  0  0  0
   -6.3808    2.9868    0.9768 H   0  0  0  0  0  0  0  0  0  0  0  0
  -11.2735    3.5540    0.9635 H   0  0  0  0  0  0  0  0  0  0  0  0
   -8.7831   -0.6060   -1.4855 H   0  0  0  0  0  0  0  0  0  0  0  0
   -1.7320   -2.2426    4.6880 H   0  0  0  0  0  0  0  0  0  0  0  0
   -3.4361   -1.7446    4.5594 H   0  0  0  0  0  0  0  0  0  0  0  0
   -3.0282   -3.3898    5.1028 H   0  0  0  0  0  0  0  0  0  0  0  0
    0.5853   -8.5999    1.2303 H   0  0  0  0  0  0  0  0  0  0  0  0
   -1.1928   -8.6749    1.2651 H   0  0  0  0  0  0  0  0  0  0  0  0
   -0.3487   -8.2663   -0.2478 H   0  0  0  0  0  0  0  0  0  0  0  0
  1  2  1  0  0  0  0
  2  3  2  0  0  0  0
  3  4  1  0  0  0  0
  4  5  1  0  0  0  0
  5  6  1  0  0  0  0
  6  7  2  0  0  0  0
  7  8  1  0  0  0  0
  8  9  1  0  0  0  0
  9 10  2  0  0  0  0
 10 11  1  0  0  0  0
 11 12  2  0  0  0  0
 12 13  1  0  0  0  0
 13 14  2  0  0  0  0
  9 14  1  0  0  0  0
 14 15  1  0  0  0  0
 13 16  1  0  0  0  0
 12 17  1  0  0  0  0
 17 18  2  0  0  0  0
 18 19  1  0  0  0  0
 19 20  2  0  0  0  0
 20 21  1  0  0  0  0
 21 22  2  0  0  0  0
 17 22  1  0  0  0  0
 22 23  1  0  0  0  0
 23 24  1  0  0  0  0
 24 25  1  0  0  0  0
 25 26  2  0  0  0  0
 25 27  1  0  0  0  0
 27 28  2  0  0  0  0
 28 29  1  0  0  0  0
 29 30  2  0  0  0  0
 30 31  1  0  0  0  0
 31 32  2  0  0  0  0
 27 32  1  0  0  0  0
 30 33  1  0  0  0  0
 28 34  1  0  0  0  0
 21 35  1  0  0  0  0
 35 36  1  0  0  0  0
 36 37  2  0  0  0  0
 37 38  1  0  0  0  0
 37 39  1  0  0  0  0
 39 40  1  0  0  0  0
 40 41  1  0  0  0  0
 41 42  2  0  0  0  0
 42 43  1  0  0  0  0
 42 44  1  0  0  0  0
 20 45  1  0  0  0  0
 19 46  1  0  0  0  0
 10 47  1  0  0  0  0
 47 48  1  0  0  0  0
 48 49  1  0  0  0  0
 49 50  2  0  0  0  0
 49 51  1  0  0  0  0
 51 52  2  0  0  0  0
 52 53  1  0  0  0  0
 53 54  2  0  0  0  0
 54 55  1  0  0  0  0
 55 56  2  0  0  0  0
 51 56  1  0  0  0  0
 54 57  1  0  0  0  0
 52 58  1  0  0  0  0
  6 59  1  0  0  0  0
  2 60  1  0  0  0  0
  1 61  1  0  0  0  0
  1 62  1  0  0  0  0
  1 63  1  0  0  0  0
  3 64  1  0  0  0  0
  4 65  1  0  0  0  0
  4 66  1  0  0  0  0
  5 67  1  0  0  0  0
  5 68  1  0  0  0  0
  7 69  1  0  0  0  0
  8 70  1  0  0  0  0
  8 71  1  0  0  0  0
 11 72  1  0  0  0  0
 15 73  1  0  0  0  0
 16 74  1  0  0  0  0
 18 75  1  0  0  0  0
 23 76  1  0  0  0  0
 23 77  1  0  0  0  0
 24 78  1  0  0  0  0
 24 79  1  0  0  0  0
 29 80  1  0  0  0  0
 31 81  1  0  0  0  0
 32 82  1  0  0  0  0
 33 83  1  0  0  0  0
 34 84  1  0  0  0  0
 35 85  1  0  0  0  0
 35 86  1  0  0  0  0
 36 87  1  0  0  0  0
 38 88  1  0  0  0  0
 38 89  1  0  0  0  0
 38 90  1  0  0  0  0
 39 91  1  0  0  0  0
 39 92  1  0  0  0  0
 40 93  1  0  0  0  0
 40 94  1  0  0  0  0
 41 95  1  0  0  0  0
 43 96  1  0  0  0  0
 43 97  1  0  0  0  0
 43 98  1  0  0  0  0
 44 99  1  0  0  0  0
 44100  1  0  0  0  0
 44101  1  0  0  0  0
 45102  1  0  0  0  0
 46103  1  0  0  0  0
 47104  1  0  0  0  0
 47105  1  0  0  0  0
 48106  1  0  0  0  0
 48107  1  0  0  0  0
 53108  1  0  0  0  0
 55109  1  0  0  0  0
 56110  1  0  0  0  0
 57111  1  0  0  0  0
 58112  1  0  0  0  0
 59113  1  0  0  0  0
 59114  1  0  0  0  0
 59115  1  0  0  0  0
 60116  1  0  0  0  0
 60117  1  0  0  0  0
 60118  1  0  0  0  0
M  END
$$$$
