C26H28O14
APtclcactv06291803053D 0   0.00000     0.00000
 
 68 72  0  0  0  0  0  0  0  0999 V2000
    5.1767   -3.2045    0.7426 C   0  0  0  0  0  0  0  0  0  0  0  0
    3.8038   -3.9113    0.7885 C   0  0  0  0  0  0  0  0  0  0  0  0
    2.8253   -2.8022    1.2353 C   0  0  0  0  0  0  0  0  0  0  0  0
    3.7227   -1.5565    1.4065 C   0  0  0  0  0  0  0  0  0  0  0  0
    4.8658   -1.8060    0.5597 O   0  0  0  0  0  0  0  0  0  0  0  0
    3.0314   -0.3823    0.9757 O   0  0  0  0  0  0  0  0  0  0  0  0
    3.7492    0.8318    1.2050 C   0  0  0  0  0  0  0  0  0  0  0  0
    2.9189    2.0168    0.7078 C   0  0  0  0  0  0  0  0  0  0  0  0
    3.6303    3.3245    1.0653 C   0  0  0  0  0  0  0  0  0  0  0  0
    2.8237    4.5032    0.5119 C   0  0  0  0  0  0  0  0  0  0  0  0
    2.6557    4.3275   -1.0005 C   0  0  0  0  0  0  0  0  0  0  0  0
    1.9819    2.9811   -1.2782 C   0  0  0  0  0  0  0  0  0  0  0  0
    2.7674    1.9309   -0.7105 O   0  0  0  0  0  0  0  0  0  0  0  0
    0.6783    2.9709   -0.6929 O   0  0  0  0  0  0  0  0  0  0  0  0
   -0.0980    1.8842   -0.9363 C   0  0  0  0  0  0  0  0  0  0  0  0
    0.3931    0.8500   -1.7252 C   0  0  0  0  0  0  0  0  0  0  0  0
   -0.3893   -0.2616   -1.9795 C   0  0  0  0  0  0  0  0  0  0  0  0
   -1.6776   -0.3369   -1.4363 C   0  0  0  0  0  0  0  0  0  0  0  0
   -2.1715    0.7099   -0.6385 C   0  0  0  0  0  0  0  0  0  0  0  0
   -1.3709    1.8137   -0.3909 C   0  0  0  0  0  0  0  0  0  0  0  0
   -3.4152    0.6282   -0.1201 O   0  0  0  0  0  0  0  0  0  0  0  0
   -4.2147   -0.4281   -0.3376 C   0  0  0  0  0  0  0  0  0  0  0  0
   -3.8314   -1.4917   -1.0939 C   0  0  0  0  0  0  0  0  0  0  0  0
   -2.5444   -1.5019   -1.6821 C   0  0  0  0  0  0  0  0  0  0  0  0
   -2.1675   -2.4394   -2.3665 O   0  0  0  0  0  0  0  0  0  0  0  0
   -5.5601   -0.4359    0.2672 C   0  0  0  0  0  0  0  0  0  0  0  0
   -5.9829    0.6422    1.0499 C   0  0  0  0  0  0  0  0  0  0  0  0
   -7.2399    0.6308    1.6127 C   0  0  0  0  0  0  0  0  0  0  0  0
   -8.0874   -0.4506    1.4033 C   0  0  0  0  0  0  0  0  0  0  0  0
   -7.6710   -1.5245    0.6258 C   0  0  0  0  0  0  0  0  0  0  0  0
   -6.4179   -1.5188    0.0545 C   0  0  0  0  0  0  0  0  0  0  0  0
   -9.3254   -0.4579    1.9604 O   0  0  0  0  0  0  0  0  0  0  0  0
    0.0879   -1.2717   -2.7500 O   0  0  0  0  0  0  0  0  0  0  0  0
    1.8431    5.3836   -1.5166 O   0  0  0  0  0  0  0  0  0  0  0  0
    1.5381    4.5373    1.1349 O   0  0  0  0  0  0  0  0  0  0  0  0
    3.7314    3.4401    2.4860 O   0  0  0  0  0  0  0  0  0  0  0  0
    1.8361   -2.5723    0.2300 O   0  0  0  0  0  0  0  0  0  0  0  0
    3.4237   -4.4349   -0.5979 C   0  0  0  0  0  0  0  0  0  0  0  0
    4.3932   -5.3928   -1.0276 O   0  0  0  0  0  0  0  0  0  0  0  0
    3.8210   -4.9771    1.7403 O   0  0  0  0  0  0  0  0  0  0  0  0
    5.7124   -3.3547    1.6799 H   0  0  0  0  0  0  0  0  0  0  0  0
    5.7663   -3.5749   -0.0960 H   0  0  0  0  0  0  0  0  0  0  0  0
    2.3546   -3.0668    2.1822 H   0  0  0  0  0  0  0  0  0  0  0  0
    4.0354   -1.4539    2.4456 H   0  0  0  0  0  0  0  0  0  0  0  0
    3.9407    0.9447    2.2721 H   0  0  0  0  0  0  0  0  0  0  0  0
    4.6967    0.8009    0.6671 H   0  0  0  0  0  0  0  0  0  0  0  0
    1.9369    1.9964    1.1804 H   0  0  0  0  0  0  0  0  0  0  0  0
    4.6281    3.3280    0.6267 H   0  0  0  0  0  0  0  0  0  0  0  0
    3.3532    5.4343    0.7142 H   0  0  0  0  0  0  0  0  0  0  0  0
    3.6339    4.3512   -1.4808 H   0  0  0  0  0  0  0  0  0  0  0  0
    1.8985    2.8315   -2.3546 H   0  0  0  0  0  0  0  0  0  0  0  0
    1.3878    0.9152   -2.1408 H   0  0  0  0  0  0  0  0  0  0  0  0
   -1.7415    2.6229    0.2208 H   0  0  0  0  0  0  0  0  0  0  0  0
   -4.5046   -2.3226   -1.2445 H   0  0  0  0  0  0  0  0  0  0  0  0
   -5.3248    1.4828    1.2134 H   0  0  0  0  0  0  0  0  0  0  0  0
   -7.5673    1.4632    2.2179 H   0  0  0  0  0  0  0  0  0  0  0  0
   -8.3328   -2.3629    0.4656 H   0  0  0  0  0  0  0  0  0  0  0  0
   -6.0952   -2.3536   -0.5499 H   0  0  0  0  0  0  0  0  0  0  0  0
  -10.0103   -0.0651    1.4020 H   0  0  0  0  0  0  0  0  0  0  0  0
    0.5530   -1.9591   -2.2537 H   0  0  0  0  0  0  0  0  0  0  0  0
    1.6947    5.3352   -2.4709 H   0  0  0  0  0  0  0  0  0  0  0  0
    0.9728    5.2606    0.8310 H   0  0  0  0  0  0  0  0  0  0  0  0
    4.1726    4.2472    2.7845 H   0  0  0  0  0  0  0  0  0  0  0  0
    1.1953   -1.8852    0.4585 H   0  0  0  0  0  0  0  0  0  0  0  0
    2.4423   -4.9069   -0.5516 H   0  0  0  0  0  0  0  0  0  0  0  0
    3.3949   -3.6052   -1.3043 H   0  0  0  0  0  0  0  0  0  0  0  0
    4.2154   -5.7677   -1.9010 H   0  0  0  0  0  0  0  0  0  0  0  0
    4.4622   -5.6727    1.5403 H   0  0  0  0  0  0  0  0  0  0  0  0
  1  2  1  0  0  0  0
  2  3  1  0  0  0  0
  3  4  1  0  0  0  0
  4  5  1  0  0  0  0
  1  5  1  0  0  0  0
  4  6  1  0  0  0  0
  6  7  1  0  0  0  0
  7  8  1  0  0  0  0
  8  9  1  0  0  0  0
  9 10  1  0  0  0  0
 10 11  1  0  0  0  0
 11 12  1  0  0  0  0
 12 13  1  0  0  0  0
  8 13  1  0  0  0  0
 12 14  1  0  0  0  0
 14 15  1  0  0  0  0
 15 16  2  0  0  0  0
 16 17  1  0  0  0  0
 17 18  2  0  0  0  0
 18 19  1  0  0  0  0
 19 20  2  0  0  0  0
 15 20  1  0  0  0  0
 19 21  1  0  0  0  0
 21 22  1  0  0  0  0
 22 23  2  0  0  0  0
 23 24  1  0  0  0  0
 18 24  1  0  0  0  0
 24 25  2  0  0  0  0
 22 26  1  0  0  0  0
 26 27  2  0  0  0  0
 27 28  1  0  0  0  0
 28 29  2  0  0  0  0
 29 30  1  0  0  0  0
 30 31  2  0  0  0  0
 26 31  1  0  0  0  0
 29 32  1  0  0  0  0
 17 33  1  0  0  0  0
 11 34  1  0  0  0  0
 10 35  1  0  0  0  0
  9 36  1  0  0  0  0
  3 37  1  0  0  0  0
  2 38  1  0  0  0  0
 38 39  1  0  0  0  0
  2 40  1  0  0  0  0
  1 41  1  0  0  0  0
  1 42  1  0  0  0  0
  3 43  1  0  0  0  0
  4 44  1  0  0  0  0
  7 45  1  0  0  0  0
  7 46  1  0  0  0  0
  8 47  1  0  0  0  0
  9 48  1  0  0  0  0
 10 49  1  0  0  0  0
 11 50  1  0  0  0  0
 12 51  1  0  0  0  0
 16 52  1  0  0  0  0
 20 53  1  0  0  0  0
 23 54  1  0  0  0  0
 27 55  1  0  0  0  0
 28 56  1  0  0  0  0
 30 57  1  0  0  0  0
 31 58  1  0  0  0  0
 32 59  1  0  0  0  0
 33 60  1  0  0  0  0
 34 61  1  0  0  0  0
 35 62  1  0  0  0  0
 36 63  1  0  0  0  0
 37 64  1  0  0  0  0
 38 65  1  0  0  0  0
 38 66  1  0  0  0  0
 39 67  1  0  0  0  0
 40 68  1  0  0  0  0
M  END
$$$$
