C33H40O21
APtclcactv06291803053D 0   0.00000     0.00000
 
 94 99  0  0  0  0  0  0  0  0999 V2000
    3.5204   -2.3019    2.1159 C   0  0  0  0  0  0  0  0  0  0  0  0
    3.0243   -2.8139    3.2945 C   0  0  0  0  0  0  0  0  0  0  0  0
    2.3468   -1.9876    4.1828 C   0  0  0  0  0  0  0  0  0  0  0  0
    2.1670   -0.6419    3.8873 C   0  0  0  0  0  0  0  0  0  0  0  0
    2.6597   -0.1211    2.7111 C   0  0  0  0  0  0  0  0  0  0  0  0
    3.3419   -0.9486    1.8144 C   0  0  0  0  0  0  0  0  0  0  0  0
    3.8716   -0.3957    0.5543 C   0  0  0  0  0  0  0  0  0  0  0  0
    3.6373   -1.0686   -0.6071 C   0  0  0  0  0  0  0  0  0  0  0  0
    4.1402   -0.5496   -1.8283 C   0  0  0  0  0  0  0  0  0  0  0  0
    3.9498   -1.1246   -2.8880 O   0  0  0  0  0  0  0  0  0  0  0  0
    4.9000    0.7093   -1.7672 C   0  0  0  0  0  0  0  0  0  0  0  0
    5.4324    1.2937   -2.9237 C   0  0  0  0  0  0  0  0  0  0  0  0
    6.1399    2.4774   -2.8246 C   0  0  0  0  0  0  0  0  0  0  0  0
    6.3210    3.0816   -1.5852 C   0  0  0  0  0  0  0  0  0  0  0  0
    5.7970    2.5091   -0.4366 C   0  0  0  0  0  0  0  0  0  0  0  0
    5.0842    1.3226   -0.5154 C   0  0  0  0  0  0  0  0  0  0  0  0
    4.5629    0.7562    0.5931 O   0  0  0  0  0  0  0  0  0  0  0  0
    7.0182    4.2433   -1.4993 O   0  0  0  0  0  0  0  0  0  0  0  0
    5.2555    0.7021   -4.1322 O   0  0  0  0  0  0  0  0  0  0  0  0
    2.9269   -2.2294   -0.5960 O   0  0  0  0  0  0  0  0  0  0  0  0
    1.7045   -2.2491   -1.3359 C   0  0  0  0  0  0  0  0  0  0  0  0
    1.2256   -3.6947   -1.4922 C   0  0  0  0  0  0  0  0  0  0  0  0
    0.9399   -4.2824   -0.1068 C   0  0  0  0  0  0  0  0  0  0  0  0
   -0.0912   -3.4023    0.6063 C   0  0  0  0  0  0  0  0  0  0  0  0
    0.4386   -1.9679    0.6816 C   0  0  0  0  0  0  0  0  0  0  0  0
    0.7129   -1.4930   -0.6380 O   0  0  0  0  0  0  0  0  0  0  0  0
   -0.6114   -1.0701    1.3391 C   0  0  0  0  0  0  0  0  0  0  0  0
   -0.0733    0.2420    1.5151 O   0  0  0  0  0  0  0  0  0  0  0  0
   -0.9784    1.1644    2.1249 C   0  0  0  0  0  0  0  0  0  0  0  0
   -0.2607    2.4929    2.3771 C   0  0  0  0  0  0  0  0  0  0  0  0
    0.1782    3.0897    1.0364 C   0  0  0  0  0  0  0  0  0  0  0  0
   -1.0505    3.2545    0.1367 C   0  0  0  0  0  0  0  0  0  0  0  0
   -1.7378    1.8966   -0.0290 C   0  0  0  0  0  0  0  0  0  0  0  0
   -2.0922    1.3836    1.2568 O   0  0  0  0  0  0  0  0  0  0  0  0
   -3.0000    2.0637   -0.8773 C   0  0  0  0  0  0  0  0  0  0  0  0
   -3.5777    0.7812   -1.1295 O   0  0  0  0  0  0  0  0  0  0  0  0
   -4.7684    0.8250   -1.9184 C   0  0  0  0  0  0  0  0  0  0  0  0
   -5.2276   -0.6020   -2.2292 C   0  0  0  0  0  0  0  0  0  0  0  0
   -5.5649   -1.3185   -0.9181 C   0  0  0  0  0  0  0  0  0  0  0  0
   -6.6322   -0.5144   -0.1694 C   0  0  0  0  0  0  0  0  0  0  0  0
   -6.1187    0.9092    0.0618 C   0  0  0  0  0  0  0  0  0  0  0  0
   -5.7946    1.5073   -1.1949 O   0  0  0  0  0  0  0  0  0  0  0  0
   -7.2027    1.7362    0.7560 C   0  0  0  0  0  0  0  0  0  0  0  0
   -6.6839    3.0285    1.0765 O   0  0  0  0  0  0  0  0  0  0  0  0
   -7.8297   -0.4695   -0.9479 O   0  0  0  0  0  0  0  0  0  0  0  0
   -6.0643   -2.6267   -1.2030 O   0  0  0  0  0  0  0  0  0  0  0  0
   -6.3879   -0.5594   -3.0623 O   0  0  0  0  0  0  0  0  0  0  0  0
   -1.9599    4.1801    0.7352 O   0  0  0  0  0  0  0  0  0  0  0  0
    0.7841    4.3651    1.2563 O   0  0  0  0  0  0  0  0  0  0  0  0
   -1.1492    3.3984    3.0349 O   0  0  0  0  0  0  0  0  0  0  0  0
   -1.3200   -3.4199   -0.1231 O   0  0  0  0  0  0  0  0  0  0  0  0
    0.4226   -5.6071   -0.2469 O   0  0  0  0  0  0  0  0  0  0  0  0
    0.0318   -3.7200   -2.2772 O   0  0  0  0  0  0  0  0  0  0  0  0
    1.8586   -2.4969    5.3431 O   0  0  0  0  0  0  0  0  0  0  0  0
    4.0503   -2.9439    1.4280 H   0  0  0  0  0  0  0  0  0  0  0  0
    3.1617   -3.8593    3.5283 H   0  0  0  0  0  0  0  0  0  0  0  0
    1.6399   -0.0033    4.5806 H   0  0  0  0  0  0  0  0  0  0  0  0
    2.5189    0.9249    2.4818 H   0  0  0  0  0  0  0  0  0  0  0  0
    6.5533    2.9337   -3.7118 H   0  0  0  0  0  0  0  0  0  0  0  0
    5.9442    2.9876    0.5203 H   0  0  0  0  0  0  0  0  0  0  0  0
    6.4727    5.0368   -1.5880 H   0  0  0  0  0  0  0  0  0  0  0  0
    4.4563    0.9869   -4.5963 H   0  0  0  0  0  0  0  0  0  0  0  0
    1.8687   -1.8120   -2.3208 H   0  0  0  0  0  0  0  0  0  0  0  0
    1.9993   -4.2834   -1.9852 H   0  0  0  0  0  0  0  0  0  0  0  0
    1.8613   -4.3090    0.4750 H   0  0  0  0  0  0  0  0  0  0  0  0
   -0.2593   -3.7819    1.6141 H   0  0  0  0  0  0  0  0  0  0  0  0
    1.3544   -1.9493    1.2723 H   0  0  0  0  0  0  0  0  0  0  0  0
   -1.4948   -1.0181    0.7027 H   0  0  0  0  0  0  0  0  0  0  0  0
   -0.8865   -1.4832    2.3095 H   0  0  0  0  0  0  0  0  0  0  0  0
   -1.3305    0.7559    3.0722 H   0  0  0  0  0  0  0  0  0  0  0  0
    0.6148    2.3208    3.0032 H   0  0  0  0  0  0  0  0  0  0  0  0
    0.8943    2.4222    0.5570 H   0  0  0  0  0  0  0  0  0  0  0  0
   -0.7399    3.6270   -0.8395 H   0  0  0  0  0  0  0  0  0  0  0  0
   -1.0573    1.2025   -0.5223 H   0  0  0  0  0  0  0  0  0  0  0  0
   -3.7173    2.6865   -0.3428 H   0  0  0  0  0  0  0  0  0  0  0  0
   -2.7414    2.5381   -1.8240 H   0  0  0  0  0  0  0  0  0  0  0  0
   -4.5677    1.3534   -2.8504 H   0  0  0  0  0  0  0  0  0  0  0  0
   -4.4292   -1.1380   -2.7424 H   0  0  0  0  0  0  0  0  0  0  0  0
   -4.6680   -1.3951   -0.3033 H   0  0  0  0  0  0  0  0  0  0  0  0
   -6.8383   -0.9877    0.7905 H   0  0  0  0  0  0  0  0  0  0  0  0
   -5.2281    0.8769    0.6895 H   0  0  0  0  0  0  0  0  0  0  0  0
   -8.0597    1.8433    0.0910 H   0  0  0  0  0  0  0  0  0  0  0  0
   -7.5138    1.2324    1.6712 H   0  0  0  0  0  0  0  0  0  0  0  0
   -7.3184    3.6082    1.5198 H   0  0  0  0  0  0  0  0  0  0  0  0
   -8.2086   -1.3388   -1.1372 H   0  0  0  0  0  0  0  0  0  0  0  0
   -5.4415   -3.1896   -1.6830 H   0  0  0  0  0  0  0  0  0  0  0  0
   -6.2479   -0.1143   -3.9093 H   0  0  0  0  0  0  0  0  0  0  0  0
   -1.5886    5.0620    0.8745 H   0  0  0  0  0  0  0  0  0  0  0  0
    1.5659    4.3364    1.8246 H   0  0  0  0  0  0  0  0  0  0  0  0
   -1.4713    3.0819    3.8900 H   0  0  0  0  0  0  0  0  0  0  0  0
   -1.7107   -4.2997   -0.2142 H   0  0  0  0  0  0  0  0  0  0  0  0
    1.0220   -6.2179   -0.6971 H   0  0  0  0  0  0  0  0  0  0  0  0
    0.1563   -3.4324   -3.1920 H   0  0  0  0  0  0  0  0  0  0  0  0
    2.4794   -2.4542    6.0834 H   0  0  0  0  0  0  0  0  0  0  0  0
  1  2  2  0  0  0  0
  2  3  1  0  0  0  0
  3  4  2  0  0  0  0
  4  5  1  0  0  0  0
  5  6  2  0  0  0  0
  1  6  1  0  0  0  0
  6  7  1  0  0  0  0
  7  8  2  0  0  0  0
  8  9  1  0  0  0  0
  9 10  2  0  0  0  0
  9 11  1  0  0  0  0
 11 12  2  0  0  0  0
 12 13  1  0  0  0  0
 13 14  2  0  0  0  0
 14 15  1  0  0  0  0
 15 16  2  0  0  0  0
 11 16  1  0  0  0  0
 16 17  1  0  0  0  0
  7 17  1  0  0  0  0
 14 18  1  0  0  0  0
 12 19  1  0  0  0  0
  8 20  1  0  0  0  0
 20 21  1  0  0  0  0
 21 22  1  0  0  0  0
 22 23  1  0  0  0  0
 23 24  1  0  0  0  0
 24 25  1  0  0  0  0
 25 26  1  0  0  0  0
 21 26  1  0  0  0  0
 25 27  1  0  0  0  0
 27 28  1  0  0  0  0
 28 29  1  0  0  0  0
 29 30  1  0  0  0  0
 30 31  1  0  0  0  0
 31 32  1  0  0  0  0
 32 33  1  0  0  0  0
 33 34  1  0  0  0  0
 29 34  1  0  0  0  0
 33 35  1  0  0  0  0
 35 36  1  0  0  0  0
 36 37  1  0  0  0  0
 37 38  1  0  0  0  0
 38 39  1  0  0  0  0
 39 40  1  0  0  0  0
 40 41  1  0  0  0  0
 41 42  1  0  0  0  0
 37 42  1  0  0  0  0
 41 43  1  0  0  0  0
 43 44  1  0  0  0  0
 40 45  1  0  0  0  0
 39 46  1  0  0  0  0
 38 47  1  0  0  0  0
 32 48  1  0  0  0  0
 31 49  1  0  0  0  0
 30 50  1  0  0  0  0
 24 51  1  0  0  0  0
 23 52  1  0  0  0  0
 22 53  1  0  0  0  0
  3 54  1  0  0  0  0
  1 55  1  0  0  0  0
  2 56  1  0  0  0  0
  4 57  1  0  0  0  0
  5 58  1  0  0  0  0
 13 59  1  0  0  0  0
 15 60  1  0  0  0  0
 18 61  1  0  0  0  0
 19 62  1  0  0  0  0
 21 63  1  0  0  0  0
 22 64  1  0  0  0  0
 23 65  1  0  0  0  0
 24 66  1  0  0  0  0
 25 67  1  0  0  0  0
 27 68  1  0  0  0  0
 27 69  1  0  0  0  0
 29 70  1  0  0  0  0
 30 71  1  0  0  0  0
 31 72  1  0  0  0  0
 32 73  1  0  0  0  0
 33 74  1  0  0  0  0
 35 75  1  0  0  0  0
 35 76  1  0  0  0  0
 37 77  1  0  0  0  0
 38 78  1  0  0  0  0
 39 79  1  0  0  0  0
 40 80  1  0  0  0  0
 41 81  1  0  0  0  0
 43 82  1  0  0  0  0
 43 83  1  0  0  0  0
 44 84  1  0  0  0  0
 45 85  1  0  0  0  0
 46 86  1  0  0  0  0
 47 87  1  0  0  0  0
 48 88  1  0  0  0  0
 49 89  1  0  0  0  0
 50 90  1  0  0  0  0
 51 91  1  0  0  0  0
 52 92  1  0  0  0  0
 53 93  1  0  0  0  0
 54 94  1  0  0  0  0
M  END
$$$$
