C21H24O11
APtclcactv06291803053D 0   0.00000     0.00000
 
 56 58  0  0  0  0  0  0  0  0999 V2000
   -5.2685    0.7018   -1.4346 C   0  0  0  0  0  0  0  0  0  0  0  0
   -6.6345    0.5610   -1.2759 C   0  0  0  0  0  0  0  0  0  0  0  0
   -7.1994    0.6608   -0.0145 C   0  0  0  0  0  0  0  0  0  0  0  0
   -6.3887    0.9028    1.0903 C   0  0  0  0  0  0  0  0  0  0  0  0
   -5.0202    1.0429    0.9242 C   0  0  0  0  0  0  0  0  0  0  0  0
   -4.4631    0.9423   -0.3369 C   0  0  0  0  0  0  0  0  0  0  0  0
   -2.9745    1.0949   -0.5156 C   0  0  0  0  0  0  0  0  0  0  0  0
   -2.3026   -0.2738   -0.3885 C   0  0  0  0  0  0  0  0  0  0  0  0
   -0.8140   -0.1211   -0.5672 C   0  0  0  0  0  0  0  0  0  0  0  0
   -0.3371    0.9753   -0.7759 O   0  0  0  0  0  0  0  0  0  0  0  0
    0.0553   -1.2933   -0.4892 C   0  0  0  0  0  0  0  0  0  0  0  0
   -0.4930   -2.5668   -0.2474 C   0  0  0  0  0  0  0  0  0  0  0  0
    0.3375   -3.6693   -0.1758 C   0  0  0  0  0  0  0  0  0  0  0  0
    1.7090   -3.5235   -0.3417 C   0  0  0  0  0  0  0  0  0  0  0  0
    2.2599   -2.2703   -0.5809 C   0  0  0  0  0  0  0  0  0  0  0  0
    1.4458   -1.1567   -0.6612 C   0  0  0  0  0  0  0  0  0  0  0  0
    1.9856    0.0652   -0.8952 O   0  0  0  0  0  0  0  0  0  0  0  0
    3.4049    0.1288   -1.0489 C   0  0  0  0  0  0  0  0  0  0  0  0
    3.8140    1.5547   -1.4272 C   0  0  0  0  0  0  0  0  0  0  0  0
    3.4263    2.5071   -0.2918 C   0  0  0  0  0  0  0  0  0  0  0  0
    4.0919    2.0359    1.0048 C   0  0  0  0  0  0  0  0  0  0  0  0
    3.6720    0.5914    1.2892 C   0  0  0  0  0  0  0  0  0  0  0  0
    4.0342   -0.2354    0.1813 O   0  0  0  0  0  0  0  0  0  0  0  0
    4.3801    0.0932    2.5507 C   0  0  0  0  0  0  0  0  0  0  0  0
    3.9010   -1.2117    2.8819 O   0  0  0  0  0  0  0  0  0  0  0  0
    5.5124    2.1013    0.8634 O   0  0  0  0  0  0  0  0  0  0  0  0
    3.8702    3.8290   -0.6041 O   0  0  0  0  0  0  0  0  0  0  0  0
    5.2271    1.6073   -1.6330 O   0  0  0  0  0  0  0  0  0  0  0  0
    2.5161   -4.6116   -0.2694 O   0  0  0  0  0  0  0  0  0  0  0  0
   -1.8315   -2.7115   -0.0846 O   0  0  0  0  0  0  0  0  0  0  0  0
   -6.9385    1.0021    2.3302 O   0  0  0  0  0  0  0  0  0  0  0  0
   -8.5431    0.5230    0.1433 O   0  0  0  0  0  0  0  0  0  0  0  0
   -4.8289    0.6193   -2.4176 H   0  0  0  0  0  0  0  0  0  0  0  0
   -7.2615    0.3736   -2.1350 H   0  0  0  0  0  0  0  0  0  0  0  0
   -4.3889    1.2311    1.7800 H   0  0  0  0  0  0  0  0  0  0  0  0
   -2.7677    1.5110   -1.5016 H   0  0  0  0  0  0  0  0  0  0  0  0
   -2.5834    1.7643    0.2505 H   0  0  0  0  0  0  0  0  0  0  0  0
   -2.5094   -0.6898    0.5976 H   0  0  0  0  0  0  0  0  0  0  0  0
   -2.6938   -0.9432   -1.1546 H   0  0  0  0  0  0  0  0  0  0  0  0
   -0.0812   -4.6474    0.0100 H   0  0  0  0  0  0  0  0  0  0  0  0
    3.3273   -2.1670   -0.7085 H   0  0  0  0  0  0  0  0  0  0  0  0
    3.7166   -0.5594   -1.8346 H   0  0  0  0  0  0  0  0  0  0  0  0
    3.3005    1.8504   -2.3420 H   0  0  0  0  0  0  0  0  0  0  0  0
    2.3434    2.5045   -0.1675 H   0  0  0  0  0  0  0  0  0  0  0  0
    3.7772    2.6758    1.8292 H   0  0  0  0  0  0  0  0  0  0  0  0
    2.5930    0.5490    1.4370 H   0  0  0  0  0  0  0  0  0  0  0  0
    5.4545    0.0512    2.3717 H   0  0  0  0  0  0  0  0  0  0  0  0
    4.1756    0.7756    3.3757 H   0  0  0  0  0  0  0  0  0  0  0  0
    4.3074   -1.5908    3.6732 H   0  0  0  0  0  0  0  0  0  0  0  0
    5.8487    2.9885    0.6766 H   0  0  0  0  0  0  0  0  0  0  0  0
    3.4928    4.1885   -1.4186 H   0  0  0  0  0  0  0  0  0  0  0  0
    5.5442    1.0240   -2.3360 H   0  0  0  0  0  0  0  0  0  0  0  0
    2.6582   -5.0530   -1.1179 H   0  0  0  0  0  0  0  0  0  0  0  0
   -2.3118   -2.8790   -0.9070 H   0  0  0  0  0  0  0  0  0  0  0  0
   -6.9947    0.1609    2.8040 H   0  0  0  0  0  0  0  0  0  0  0  0
   -8.8290   -0.3867    0.3037 H   0  0  0  0  0  0  0  0  0  0  0  0
  1  2  2  0  0  0  0
  2  3  1  0  0  0  0
  3  4  2  0  0  0  0
  4  5  1  0  0  0  0
  5  6  2  0  0  0  0
  1  6  1  0  0  0  0
  6  7  1  0  0  0  0
  7  8  1  0  0  0  0
  8  9  1  0  0  0  0
  9 10  2  0  0  0  0
  9 11  1  0  0  0  0
 11 12  2  0  0  0  0
 12 13  1  0  0  0  0
 13 14  2  0  0  0  0
 14 15  1  0  0  0  0
 15 16  2  0  0  0  0
 11 16  1  0  0  0  0
 16 17  1  0  0  0  0
 17 18  1  0  0  0  0
 18 19  1  0  0  0  0
 19 20  1  0  0  0  0
 20 21  1  0  0  0  0
 21 22  1  0  0  0  0
 22 23  1  0  0  0  0
 18 23  1  0  0  0  0
 22 24  1  0  0  0  0
 24 25  1  0  0  0  0
 21 26  1  0  0  0  0
 20 27  1  0  0  0  0
 19 28  1  0  0  0  0
 14 29  1  0  0  0  0
 12 30  1  0  0  0  0
  4 31  1  0  0  0  0
  3 32  1  0  0  0  0
  1 33  1  0  0  0  0
  2 34  1  0  0  0  0
  5 35  1  0  0  0  0
  7 36  1  0  0  0  0
  7 37  1  0  0  0  0
  8 38  1  0  0  0  0
  8 39  1  0  0  0  0
 13 40  1  0  0  0  0
 15 41  1  0  0  0  0
 18 42  1  0  0  0  0
 19 43  1  0  0  0  0
 20 44  1  0  0  0  0
 21 45  1  0  0  0  0
 22 46  1  0  0  0  0
 24 47  1  0  0  0  0
 24 48  1  0  0  0  0
 25 49  1  0  0  0  0
 26 50  1  0  0  0  0
 27 51  1  0  0  0  0
 28 52  1  0  0  0  0
 29 53  1  0  0  0  0
 30 54  1  0  0  0  0
 31 55  1  0  0  0  0
 32 56  1  0  0  0  0
M  END
$$$$
