C32H31O14
APtclcactv06291803053D 0   0.00000     0.00000
 
 77 82  0  0  0  0  0  0  0  0999 V2000
   -5.4082    2.8411   -1.9658 C   0  0  0  0  0  0  0  0  0  0  0  0
   -5.8848    1.9427   -0.9620 O   0  0  0  0  0  0  0  0  0  0  0  0
   -4.9577    1.4022   -0.1266 C   0  0  0  0  0  0  0  0  0  0  0  0
   -3.6217    1.7305   -0.2717 C   0  0  0  0  0  0  0  0  0  0  0  0
   -2.6709    1.1760    0.5861 C   0  0  0  0  0  0  0  0  0  0  0  0
   -3.0701    0.2914    1.5886 C   0  0  0  0  0  0  0  0  0  0  0  0
   -4.4072   -0.0342    1.7302 C   0  0  0  0  0  0  0  0  0  0  0  0
   -5.3543    0.5239    0.8772 C   0  0  0  0  0  0  0  0  0  0  0  0
   -6.6683    0.2025    1.0181 O   0  0  0  0  0  0  0  0  0  0  0  0
   -4.7968   -0.8967    2.7069 O   0  0  0  0  0  0  0  0  0  0  0  0
   -3.7852   -1.3630    3.6020 C   0  0  0  0  0  0  0  0  0  0  0  0
   -1.2410    1.5253    0.4324 C   0  0  0  0  0  0  0  0  0  0  0  0
   -0.9555    2.6991    0.3091 O   0  3  0  0  0  0  0  0  0  0  0  0
    0.2811    3.1580    0.1630 C   0  0  0  0  0  0  0  0  0  0  0  0
    0.5837    4.5158    0.0224 C   0  0  0  0  0  0  0  0  0  0  0  0
    1.9016    4.9087   -0.1256 C   0  0  0  0  0  0  0  0  0  0  0  0
    2.9478    3.9862   -0.1393 C   0  0  0  0  0  0  0  0  0  0  0  0
    2.6824    2.6382   -0.0027 C   0  0  0  0  0  0  0  0  0  0  0  0
    1.3485    2.2364    0.1475 C   0  0  0  0  0  0  0  0  0  0  0  0
    1.0366    0.8114    0.2946 C   0  0  0  0  0  0  0  0  0  0  0  0
   -0.3100    0.4811    0.4446 C   0  0  0  0  0  0  0  0  0  0  0  0
   -0.7053   -0.8122    0.5883 O   0  0  0  0  0  0  0  0  0  0  0  0
   -0.4762   -1.6874   -0.5178 C   0  0  0  0  0  0  0  0  0  0  0  0
   -0.6340   -3.1400   -0.0608 C   0  0  0  0  0  0  0  0  0  0  0  0
   -2.0716   -3.3630    0.4184 C   0  0  0  0  0  0  0  0  0  0  0  0
   -3.0375   -3.0019   -0.7143 C   0  0  0  0  0  0  0  0  0  0  0  0
   -2.7870   -1.5546   -1.1460 C   0  0  0  0  0  0  0  0  0  0  0  0
   -1.4241   -1.4087   -1.5503 O   0  0  0  0  0  0  0  0  0  0  0  0
   -3.7069   -1.2051   -2.3176 C   0  0  0  0  0  0  0  0  0  0  0  0
   -3.5322    0.1695   -2.6668 O   0  0  0  0  0  0  0  0  0  0  0  0
   -2.8204   -3.8757   -1.8239 O   0  0  0  0  0  0  0  0  0  0  0  0
   -2.2483   -4.7347    0.7781 O   0  0  0  0  0  0  0  0  0  0  0  0
   -0.3531   -4.0174   -1.1532 O   0  0  0  0  0  0  0  0  0  0  0  0
    2.1501   -0.1245    0.2777 C   0  0  0  0  0  0  0  0  0  0  0  0
    3.4062    0.3821    0.1267 C   0  0  0  0  0  0  0  0  0  0  0  0
    3.6548    1.7000   -0.0090 O   0  0  0  0  0  0  0  0  0  0  0  0
    4.5458   -0.5550    0.1081 C   0  0  0  0  0  0  0  0  0  0  0  0
    5.8545   -0.0657    0.0827 C   0  0  0  0  0  0  0  0  0  0  0  0
    6.9183   -0.9477    0.0654 C   0  0  0  0  0  0  0  0  0  0  0  0
    6.6846   -2.3214    0.0727 C   0  0  0  0  0  0  0  0  0  0  0  0
    5.3851   -2.8075    0.0980 C   0  0  0  0  0  0  0  0  0  0  0  0
    4.3192   -1.9337    0.1217 C   0  0  0  0  0  0  0  0  0  0  0  0
    7.7320   -3.1872    0.0547 O   0  0  0  0  0  0  0  0  0  0  0  0
    8.1932   -0.4749    0.0406 O   0  0  0  0  0  0  0  0  0  0  0  0
    8.3587    0.9445    0.0340 C   0  0  0  0  0  0  0  0  0  0  0  0
    2.1850    6.2301   -0.2620 O   0  0  0  0  0  0  0  0  0  0  0  0
   -4.6996    2.3220   -2.6112 H   0  0  0  0  0  0  0  0  0  0  0  0
   -6.2479    3.1987   -2.5617 H   0  0  0  0  0  0  0  0  0  0  0  0
   -4.9135    3.6880   -1.4902 H   0  0  0  0  0  0  0  0  0  0  0  0
   -3.3147    2.4151   -1.0485 H   0  0  0  0  0  0  0  0  0  0  0  0
   -2.3358   -0.1392    2.2533 H   0  0  0  0  0  0  0  0  0  0  0  0
   -7.1536    0.7854    1.6180 H   0  0  0  0  0  0  0  0  0  0  0  0
   -4.2115   -2.1047    4.2775 H   0  0  0  0  0  0  0  0  0  0  0  0
   -2.9747   -1.8153    3.0305 H   0  0  0  0  0  0  0  0  0  0  0  0
   -3.3977   -0.5246    4.1809 H   0  0  0  0  0  0  0  0  0  0  0  0
   -0.2060    5.2525    0.0289 H   0  0  0  0  0  0  0  0  0  0  0  0
    3.9660    4.3266   -0.2571 H   0  0  0  0  0  0  0  0  0  0  0  0
    0.5331   -1.5340   -0.8997 H   0  0  0  0  0  0  0  0  0  0  0  0
    0.0580   -3.3417    0.7569 H   0  0  0  0  0  0  0  0  0  0  0  0
   -2.2703   -2.7296    1.2829 H   0  0  0  0  0  0  0  0  0  0  0  0
   -4.0646   -3.1048   -0.3639 H   0  0  0  0  0  0  0  0  0  0  0  0
   -2.9920   -0.8853   -0.3105 H   0  0  0  0  0  0  0  0  0  0  0  0
   -3.4586   -1.8320   -3.1741 H   0  0  0  0  0  0  0  0  0  0  0  0
   -4.7438   -1.3779   -2.0294 H   0  0  0  0  0  0  0  0  0  0  0  0
   -4.0857    0.4614   -3.4040 H   0  0  0  0  0  0  0  0  0  0  0  0
   -2.9569   -4.8111   -1.6205 H   0  0  0  0  0  0  0  0  0  0  0  0
   -1.6623   -5.0341    1.4867 H   0  0  0  0  0  0  0  0  0  0  0  0
    0.5634   -3.9832   -1.4596 H   0  0  0  0  0  0  0  0  0  0  0  0
    1.9867   -1.1870    0.3817 H   0  0  0  0  0  0  0  0  0  0  0  0
    6.0342    0.9992    0.0763 H   0  0  0  0  0  0  0  0  0  0  0  0
    5.2084   -3.8730    0.1036 H   0  0  0  0  0  0  0  0  0  0  0  0
    3.3088   -2.3147    0.1413 H   0  0  0  0  0  0  0  0  0  0  0  0
    8.0518   -3.4359    0.9328 H   0  0  0  0  0  0  0  0  0  0  0  0
    7.8741    1.3627   -0.8483 H   0  0  0  0  0  0  0  0  0  0  0  0
    7.9069    1.3672    0.9313 H   0  0  0  0  0  0  0  0  0  0  0  0
    9.4214    1.1863    0.0137 H   0  0  0  0  0  0  0  0  0  0  0  0
    2.3435    6.6868    0.5755 H   0  0  0  0  0  0  0  0  0  0  0  0
  1  2  1  0  0  0  0
  2  3  1  0  0  0  0
  3  4  2  0  0  0  0
  4  5  1  0  0  0  0
  5  6  2  0  0  0  0
  6  7  1  0  0  0  0
  7  8  2  0  0  0  0
  3  8  1  0  0  0  0
  8  9  1  0  0  0  0
  7 10  1  0  0  0  0
 10 11  1  0  0  0  0
  5 12  1  0  0  0  0
 12 13  2  0  0  0  0
 13 14  1  0  0  0  0
 14 15  2  0  0  0  0
 15 16  1  0  0  0  0
 16 17  2  0  0  0  0
 17 18  1  0  0  0  0
 18 19  2  0  0  0  0
 14 19  1  0  0  0  0
 19 20  1  0  0  0  0
 20 21  2  0  0  0  0
 12 21  1  0  0  0  0
 21 22  1  0  0  0  0
 22 23  1  0  0  0  0
 23 24  1  0  0  0  0
 24 25  1  0  0  0  0
 25 26  1  0  0  0  0
 26 27  1  0  0  0  0
 27 28  1  0  0  0  0
 23 28  1  0  0  0  0
 27 29  1  0  0  0  0
 29 30  1  0  0  0  0
 26 31  1  0  0  0  0
 25 32  1  0  0  0  0
 24 33  1  0  0  0  0
 20 34  1  0  0  0  0
 34 35  2  0  0  0  0
 35 36  1  0  0  0  0
 18 36  1  0  0  0  0
 35 37  1  0  0  0  0
 37 38  2  0  0  0  0
 38 39  1  0  0  0  0
 39 40  2  0  0  0  0
 40 41  1  0  0  0  0
 41 42  2  0  0  0  0
 37 42  1  0  0  0  0
 40 43  1  0  0  0  0
 39 44  1  0  0  0  0
 44 45  1  0  0  0  0
 16 46  1  0  0  0  0
  1 47  1  0  0  0  0
  1 48  1  0  0  0  0
  1 49  1  0  0  0  0
  4 50  1  0  0  0  0
  6 51  1  0  0  0  0
  9 52  1  0  0  0  0
 11 53  1  0  0  0  0
 11 54  1  0  0  0  0
 11 55  1  0  0  0  0
 15 56  1  0  0  0  0
 17 57  1  0  0  0  0
 23 58  1  0  0  0  0
 24 59  1  0  0  0  0
 25 60  1  0  0  0  0
 26 61  1  0  0  0  0
 27 62  1  0  0  0  0
 29 63  1  0  0  0  0
 29 64  1  0  0  0  0
 30 65  1  0  0  0  0
 31 66  1  0  0  0  0
 32 67  1  0  0  0  0
 33 68  1  0  0  0  0
 34 69  1  0  0  0  0
 38 70  1  0  0  0  0
 41 71  1  0  0  0  0
 42 72  1  0  0  0  0
 43 73  1  0  0  0  0
 45 74  1  0  0  0  0
 45 75  1  0  0  0  0
 45 76  1  0  0  0  0
 46 77  1  0  0  0  0
M  CHG  1  13   1
M  END
$$$$
