C11H8O3
APtclcactv06211804453D 0   0.00000     0.00000
 
 22 23  0  0  0  0  0  0  0  0999 V2000
    3.7402    0.4257    0.0091 C   0  0  0  0  0  0  0  0  0  0  0  0
    2.2335    0.3958    0.0034 C   0  0  0  0  0  0  0  0  0  0  0  0
    1.5497    1.5480   -0.0044 C   0  0  0  0  0  0  0  0  0  0  0  0
    0.0745    1.5537   -0.0102 C   0  0  0  0  0  0  0  0  0  0  0  0
   -0.5312    2.6076   -0.0172 O   0  0  0  0  0  0  0  0  0  0  0  0
   -0.6628    0.2770   -0.0079 C   0  0  0  0  0  0  0  0  0  0  0  0
    0.0537   -0.9345   -0.0002 C   0  0  0  0  0  0  0  0  0  0  0  0
    1.5317   -0.9010    0.0002 C   0  0  0  0  0  0  0  0  0  0  0  0
    2.1655   -1.9377    0.0063 O   0  0  0  0  0  0  0  0  0  0  0  0
   -0.6319   -2.1423    0.0024 C   0  0  0  0  0  0  0  0  0  0  0  0
   -2.0205   -2.1510   -0.0025 C   0  0  0  0  0  0  0  0  0  0  0  0
   -2.7289   -0.9689   -0.0104 C   0  0  0  0  0  0  0  0  0  0  0  0
   -2.0590    0.2551   -0.0122 C   0  0  0  0  0  0  0  0  0  0  0  0
   -2.7591    1.4155   -0.0200 O   0  0  0  0  0  0  0  0  0  0  0  0
    4.0831    1.4603    0.0059 H   0  0  0  0  0  0  0  0  0  0  0  0
    4.1101   -0.0769    0.9028 H   0  0  0  0  0  0  0  0  0  0  0  0
    4.1171   -0.0848   -0.8771 H   0  0  0  0  0  0  0  0  0  0  0  0
    2.0858    2.4855   -0.0060 H   0  0  0  0  0  0  0  0  0  0  0  0
   -0.0856   -3.0739    0.0079 H   0  0  0  0  0  0  0  0  0  0  0  0
   -2.5499   -3.0923   -0.0004 H   0  0  0  0  0  0  0  0  0  0  0  0
   -3.8087   -0.9901   -0.0145 H   0  0  0  0  0  0  0  0  0  0  0  0
   -2.9664    1.7558    0.8611 H   0  0  0  0  0  0  0  0  0  0  0  0
  1  2  1  0  0  0  0
  2  3  2  0  0  0  0
  3  4  1  0  0  0  0
  4  5  2  0  0  0  0
  4  6  1  0  0  0  0
  6  7  2  0  0  0  0
  7  8  1  0  0  0  0
  2  8  1  0  0  0  0
  8  9  2  0  0  0  0
  7 10  1  0  0  0  0
 10 11  2  0  0  0  0
 11 12  1  0  0  0  0
 12 13  2  0  0  0  0
  6 13  1  0  0  0  0
 13 14  1  0  0  0  0
  1 15  1  0  0  0  0
  1 16  1  0  0  0  0
  1 17  1  0  0  0  0
  3 18  1  0  0  0  0
 10 19  1  0  0  0  0
 11 20  1  0  0  0  0
 12 21  1  0  0  0  0
 14 22  1  0  0  0  0
M  END
$$$$
