C15H10O4
APtclcactv06211804453D 0   0.00000     0.00000
 
 29 31  0  0  0  0  0  0  0  0999 V2000
    4.8639   -1.1077    0.2996 C   0  0  0  0  0  0  0  0  0  0  0  0
    3.4804   -0.5253    0.1670 C   0  0  0  0  0  0  0  0  0  0  0  0
    3.3113    0.8437    0.1746 C   0  0  0  0  0  0  0  0  0  0  0  0
    2.0390    1.3975    0.0531 C   0  0  0  0  0  0  0  0  0  0  0  0
    0.9303    0.5584   -0.0766 C   0  0  0  0  0  0  0  0  0  0  0  0
    1.1106   -0.8387   -0.0842 C   0  0  0  0  0  0  0  0  0  0  0  0
    2.3891   -1.3700    0.0329 C   0  0  0  0  0  0  0  0  0  0  0  0
   -0.0640   -1.7267   -0.2219 C   0  0  0  0  0  0  0  0  0  0  0  0
    0.0823   -2.9055   -0.4784 O   0  0  0  0  0  0  0  0  0  0  0  0
   -1.4191   -1.1617   -0.0428 C   0  0  0  0  0  0  0  0  0  0  0  0
   -1.5954    0.2355   -0.0340 C   0  0  0  0  0  0  0  0  0  0  0  0
   -0.4277    1.1216   -0.2046 C   0  0  0  0  0  0  0  0  0  0  0  0
   -0.5828    2.3030   -0.4476 O   0  0  0  0  0  0  0  0  0  0  0  0
   -2.8748    0.7695    0.1366 C   0  0  0  0  0  0  0  0  0  0  0  0
   -3.9622   -0.0855    0.2955 C   0  0  0  0  0  0  0  0  0  0  0  0
   -3.7822   -1.4536    0.2851 C   0  0  0  0  0  0  0  0  0  0  0  0
   -2.5183   -1.9971    0.1172 C   0  0  0  0  0  0  0  0  0  0  0  0
   -3.0569    2.1131    0.1468 O   0  0  0  0  0  0  0  0  0  0  0  0
    1.8779    2.7437    0.0612 O   0  0  0  0  0  0  0  0  0  0  0  0
    5.0917   -1.2669    1.3535 H   0  0  0  0  0  0  0  0  0  0  0  0
    4.9097   -2.0595   -0.2298 H   0  0  0  0  0  0  0  0  0  0  0  0
    5.5911   -0.4182   -0.1292 H   0  0  0  0  0  0  0  0  0  0  0  0
    4.1706    1.4901    0.2757 H   0  0  0  0  0  0  0  0  0  0  0  0
    2.5320   -2.4405    0.0272 H   0  0  0  0  0  0  0  0  0  0  0  0
   -4.9525    0.3245    0.4281 H   0  0  0  0  0  0  0  0  0  0  0  0
   -4.6335   -2.1065    0.4089 H   0  0  0  0  0  0  0  0  0  0  0  0
   -2.3878   -3.0692    0.1102 H   0  0  0  0  0  0  0  0  0  0  0  0
   -3.2303    2.4932   -0.7253 H   0  0  0  0  0  0  0  0  0  0  0  0
    1.9221    3.1504   -0.8150 H   0  0  0  0  0  0  0  0  0  0  0  0
  1  2  1  0  0  0  0
  2  3  2  0  0  0  0
  3  4  1  0  0  0  0
  4  5  2  0  0  0  0
  5  6  1  0  0  0  0
  6  7  2  0  0  0  0
  2  7  1  0  0  0  0
  6  8  1  0  0  0  0
  8  9  2  0  0  0  0
  8 10  1  0  0  0  0
 10 11  2  0  0  0  0
 11 12  1  0  0  0  0
  5 12  1  0  0  0  0
 12 13  2  0  0  0  0
 11 14  1  0  0  0  0
 14 15  2  0  0  0  0
 15 16  1  0  0  0  0
 16 17  2  0  0  0  0
 10 17  1  0  0  0  0
 14 18  1  0  0  0  0
  4 19  1  0  0  0  0
  1 20  1  0  0  0  0
  1 21  1  0  0  0  0
  1 22  1  0  0  0  0
  3 23  1  0  0  0  0
  7 24  1  0  0  0  0
 15 25  1  0  0  0  0
 16 26  1  0  0  0  0
 17 27  1  0  0  0  0
 18 28  1  0  0  0  0
 19 29  1  0  0  0  0
M  END
$$$$
