C30H27O12
APtclcactv06291803063D 0   0.00000     0.00000
 
 69 73  0  0  0  0  0  0  0  0999 V2000
    5.8038   -0.4073    0.1831 C   0  0  0  0  0  0  0  0  0  0  0  0
    6.7691   -1.3853    0.2642 C   0  0  0  0  0  0  0  0  0  0  0  0
    8.1151   -1.0444    0.1936 C   0  0  0  0  0  0  0  0  0  0  0  0
    8.4935    0.2847    0.0408 C   0  0  0  0  0  0  0  0  0  0  0  0
    7.5361    1.2703   -0.0414 C   0  0  0  0  0  0  0  0  0  0  0  0
    6.1794    0.9324    0.0287 C   0  0  0  0  0  0  0  0  0  0  0  0
    5.1530    1.9805   -0.0590 C   0  0  0  0  0  0  0  0  0  0  0  0
    3.8445    1.6519    0.0089 C   0  0  0  0  0  0  0  0  0  0  0  0
    2.8543    2.6630   -0.0757 C   0  0  0  0  0  0  0  0  0  0  0  0
    3.1830    3.8266   -0.2094 O   0  3  0  0  0  0  0  0  0  0  0  0
    2.4724    4.4802   -0.2624 H   0  0  0  0  0  0  0  0  0  0  0  0
    1.5472    2.3348   -0.0079 O   0  0  0  0  0  0  0  0  0  0  0  0
    0.6041    3.4043   -0.0999 C   0  0  0  0  0  0  0  0  0  0  0  0
   -0.8156    2.8421   -0.0041 C   0  0  0  0  0  0  0  0  0  0  0  0
   -1.8211    3.9962    0.0229 C   0  0  0  0  0  0  0  0  0  0  0  0
   -3.2418    3.4246    0.0581 C   0  0  0  0  0  0  0  0  0  0  0  0
   -3.4416    2.5076   -1.1525 C   0  0  0  0  0  0  0  0  0  0  0  0
   -2.3736    1.4110   -1.1340 C   0  0  0  0  0  0  0  0  0  0  0  0
   -1.0766    2.0110   -1.1369 O   0  0  0  0  0  0  0  0  0  0  0  0
   -2.5279    0.6153    0.0429 O   0  0  0  0  0  0  0  0  0  0  0  0
   -1.9476   -0.6145    0.0370 C   0  0  0  0  0  0  0  0  0  0  0  0
   -2.7366   -1.7586    0.0932 C   0  0  0  0  0  0  0  0  0  0  0  0
   -2.1869   -2.9836    0.0886 O   0  0  0  0  0  0  0  0  0  0  0  0
   -0.8493   -3.1482    0.0290 C   0  0  0  0  0  0  0  0  0  0  0  0
   -0.2991   -4.4148    0.0247 C   0  0  0  0  0  0  0  0  0  0  0  0
    1.0899   -4.5715   -0.0378 C   0  0  0  0  0  0  0  0  0  0  0  0
    1.6188   -5.7959   -0.0423 O   0  0  0  0  0  0  0  0  0  0  0  0
    1.9315   -3.4473   -0.0965 C   0  0  0  0  0  0  0  0  0  0  0  0
    1.4026   -2.1904   -0.0926 C   0  0  0  0  0  0  0  0  0  0  0  0
    0.0009   -2.0179   -0.0301 C   0  0  0  0  0  0  0  0  0  0  0  0
   -0.5648   -0.7325   -0.0308 C   0  0  0  0  0  0  0  0  0  0  0  0
    2.2194   -1.1084   -0.1484 O   0  0  0  0  0  0  0  0  0  0  0  0
   -4.2000   -1.6241    0.1591 C   0  0  0  0  0  0  0  0  0  0  0  0
   -5.0148   -2.3978   -0.6758 C   0  0  0  0  0  0  0  0  0  0  0  0
   -6.3835   -2.2682   -0.6102 C   0  0  0  0  0  0  0  0  0  0  0  0
   -6.9572   -1.3706    0.2834 C   0  0  0  0  0  0  0  0  0  0  0  0
   -6.1524   -0.5998    1.1149 C   0  0  0  0  0  0  0  0  0  0  0  0
   -4.7827   -0.7261    1.0612 C   0  0  0  0  0  0  0  0  0  0  0  0
   -8.3073   -1.2461    0.3440 O   0  0  0  0  0  0  0  0  0  0  0  0
   -4.7390    1.9117   -1.0912 O   0  0  0  0  0  0  0  0  0  0  0  0
   -3.4259    2.6753    1.2609 O   0  0  0  0  0  0  0  0  0  0  0  0
   -1.5991    4.7959    1.1861 O   0  0  0  0  0  0  0  0  0  0  0  0
    9.0631   -2.0124    0.2746 O   0  0  0  0  0  0  0  0  0  0  0  0
    4.7583   -0.6736    0.2339 H   0  0  0  0  0  0  0  0  0  0  0  0
    6.4804   -2.4191    0.3833 H   0  0  0  0  0  0  0  0  0  0  0  0
    9.5405    0.5443   -0.0132 H   0  0  0  0  0  0  0  0  0  0  0  0
    7.8311    2.3025   -0.1598 H   0  0  0  0  0  0  0  0  0  0  0  0
    5.4449    3.0135   -0.1777 H   0  0  0  0  0  0  0  0  0  0  0  0
    3.5526    0.6188    0.1276 H   0  0  0  0  0  0  0  0  0  0  0  0
    0.7720    4.1080    0.7154 H   0  0  0  0  0  0  0  0  0  0  0  0
    0.7281    3.9171   -1.0538 H   0  0  0  0  0  0  0  0  0  0  0  0
   -0.9128    2.2539    0.9085 H   0  0  0  0  0  0  0  0  0  0  0  0
   -1.6969    4.6084   -0.8703 H   0  0  0  0  0  0  0  0  0  0  0  0
   -3.9640    4.2402    0.0209 H   0  0  0  0  0  0  0  0  0  0  0  0
   -3.3501    3.0898   -2.0694 H   0  0  0  0  0  0  0  0  0  0  0  0
   -2.4844    0.7807   -2.0163 H   0  0  0  0  0  0  0  0  0  0  0  0
   -0.9399   -5.2830    0.0699 H   0  0  0  0  0  0  0  0  0  0  0  0
    3.0023   -3.5796   -0.1445 H   0  0  0  0  0  0  0  0  0  0  0  0
    0.0619    0.1458   -0.0790 H   0  0  0  0  0  0  0  0  0  0  0  0
    3.1603   -1.3276   -0.1886 H   0  0  0  0  0  0  0  0  0  0  0  0
   -4.5701   -3.0950   -1.3705 H   0  0  0  0  0  0  0  0  0  0  0  0
   -7.0130   -2.8644   -1.2542 H   0  0  0  0  0  0  0  0  0  0  0  0
   -6.6028    0.0959    1.8073 H   0  0  0  0  0  0  0  0  0  0  0  0
   -4.1585   -0.1272    1.7077 H   0  0  0  0  0  0  0  0  0  0  0  0
   -8.7293   -1.8428    0.9773 H   0  0  0  0  0  0  0  0  0  0  0  0
   -4.9340    1.3172   -1.8286 H   0  0  0  0  0  0  0  0  0  0  0  0
   -4.3056    2.2837    1.3496 H   0  0  0  0  0  0  0  0  0  0  0  0
   -2.2023    5.5473    1.2678 H   0  0  0  0  0  0  0  0  0  0  0  0
    9.3158   -2.3879   -0.5799 H   0  0  0  0  0  0  0  0  0  0  0  0
  1  2  2  0  0  0  0
  2  3  1  0  0  0  0
  3  4  2  0  0  0  0
  4  5  1  0  0  0  0
  5  6  2  0  0  0  0
  1  6  1  0  0  0  0
  6  7  1  0  0  0  0
  7  8  2  0  0  0  0
  8  9  1  0  0  0  0
  9 10  2  0  0  0  0
 10 11  1  0  0  0  0
  9 12  1  0  0  0  0
 12 13  1  0  0  0  0
 13 14  1  0  0  0  0
 14 15  1  0  0  0  0
 15 16  1  0  0  0  0
 16 17  1  0  0  0  0
 17 18  1  0  0  0  0
 18 19  1  0  0  0  0
 14 19  1  0  0  0  0
 18 20  1  0  0  0  0
 20 21  1  0  0  0  0
 21 22  2  0  0  0  0
 22 23  1  0  0  0  0
 23 24  1  0  0  0  0
 24 25  2  0  0  0  0
 25 26  1  0  0  0  0
 26 27  2  0  0  0  0
 26 28  1  0  0  0  0
 28 29  2  0  0  0  0
 29 30  1  0  0  0  0
 24 30  1  0  0  0  0
 30 31  2  0  0  0  0
 21 31  1  0  0  0  0
 29 32  1  0  0  0  0
 22 33  1  0  0  0  0
 33 34  2  0  0  0  0
 34 35  1  0  0  0  0
 35 36  2  0  0  0  0
 36 37  1  0  0  0  0
 37 38  2  0  0  0  0
 33 38  1  0  0  0  0
 36 39  1  0  0  0  0
 17 40  1  0  0  0  0
 16 41  1  0  0  0  0
 15 42  1  0  0  0  0
  3 43  1  0  0  0  0
  1 44  1  0  0  0  0
  2 45  1  0  0  0  0
  4 46  1  0  0  0  0
  5 47  1  0  0  0  0
  7 48  1  0  0  0  0
  8 49  1  0  0  0  0
 13 50  1  0  0  0  0
 13 51  1  0  0  0  0
 14 52  1  0  0  0  0
 15 53  1  0  0  0  0
 16 54  1  0  0  0  0
 17 55  1  0  0  0  0
 18 56  1  0  0  0  0
 25 57  1  0  0  0  0
 28 58  1  0  0  0  0
 31 59  1  0  0  0  0
 32 60  1  0  0  0  0
 34 61  1  0  0  0  0
 35 62  1  0  0  0  0
 37 63  1  0  0  0  0
 38 64  1  0  0  0  0
 39 65  1  0  0  0  0
 40 66  1  0  0  0  0
 41 67  1  0  0  0  0
 42 68  1  0  0  0  0
 43 69  1  0  0  0  0
M  CHG  1  10   1
M  END
$$$$
