C29H30O18
APtclcactv06291803053D 0   0.00000     0.00000
 
 77 81  0  0  0  0  0  0  0  0999 V2000
   -6.8047   -1.9527   -1.2083 C   0  0  0  0  0  0  0  0  0  0  0  0
   -6.2387   -3.3798   -1.0373 C   0  0  0  0  0  0  0  0  0  0  0  0
   -4.7793   -3.1531   -0.5833 C   0  0  0  0  0  0  0  0  0  0  0  0
   -4.6362   -1.6157   -0.5337 C   0  0  0  0  0  0  0  0  0  0  0  0
   -5.9830   -1.1253   -0.3561 O   0  0  0  0  0  0  0  0  0  0  0  0
   -3.8160   -1.2278    0.5703 O   0  0  0  0  0  0  0  0  0  0  0  0
   -3.5388    0.1730    0.6245 C   0  0  0  0  0  0  0  0  0  0  0  0
   -3.3522    0.6018    2.0832 C   0  0  0  0  0  0  0  0  0  0  0  0
   -2.9792    2.0869    2.1235 C   0  0  0  0  0  0  0  0  0  0  0  0
   -1.7175    2.3111    1.2860 C   0  0  0  0  0  0  0  0  0  0  0  0
   -1.9490    1.8630   -0.0510 O   0  0  0  0  0  0  0  0  0  0  0  0
   -2.2555    0.4711   -0.1551 C   0  0  0  0  0  0  0  0  0  0  0  0
   -1.1789   -0.2958    0.3880 O   0  0  0  0  0  0  0  0  0  0  0  0
    0.0138   -0.2264   -0.2567 C   0  0  0  0  0  0  0  0  0  0  0  0
    0.1380    0.5677   -1.3911 C   0  0  0  0  0  0  0  0  0  0  0  0
    1.3485    0.6460   -2.0553 C   0  0  0  0  0  0  0  0  0  0  0  0
    2.4459   -0.0801   -1.5765 C   0  0  0  0  0  0  0  0  0  0  0  0
    2.3175   -0.8823   -0.4293 C   0  0  0  0  0  0  0  0  0  0  0  0
    1.0978   -0.9439    0.2259 C   0  0  0  0  0  0  0  0  0  0  0  0
    3.3810   -1.5795    0.0237 O   0  0  0  0  0  0  0  0  0  0  0  0
    4.5769   -1.5390   -0.5852 C   0  0  0  0  0  0  0  0  0  0  0  0
    4.8046   -0.7944   -1.7004 C   0  0  0  0  0  0  0  0  0  0  0  0
    3.7528   -0.0261   -2.2533 C   0  0  0  0  0  0  0  0  0  0  0  0
    3.9216    0.6535   -3.2528 O   0  0  0  0  0  0  0  0  0  0  0  0
    5.6863   -2.3321   -0.0229 C   0  0  0  0  0  0  0  0  0  0  0  0
    5.4833   -3.1068    1.1225 C   0  0  0  0  0  0  0  0  0  0  0  0
    6.5257   -3.8481    1.6447 C   0  0  0  0  0  0  0  0  0  0  0  0
    7.7763   -3.8219    1.0298 C   0  0  0  0  0  0  0  0  0  0  0  0
    7.9780   -3.0524   -0.1078 C   0  0  0  0  0  0  0  0  0  0  0  0
    6.9412   -2.3150   -0.6376 C   0  0  0  0  0  0  0  0  0  0  0  0
    8.8003   -4.5507    1.5452 O   0  0  0  0  0  0  0  0  0  0  0  0
    6.3317   -4.6031    2.7591 O   0  0  0  0  0  0  0  0  0  0  0  0
    1.4717    1.4203   -3.1630 O   0  0  0  0  0  0  0  0  0  0  0  0
   -1.3725    3.8017    1.2721 C   0  0  0  0  0  0  0  0  0  0  0  0
   -0.1126    4.0004    0.5782 O   0  0  0  0  0  0  0  0  0  0  0  0
    0.3352    5.2618    0.4775 C   0  0  0  0  0  0  0  0  0  0  0  0
   -0.3043    6.1697    0.9534 O   0  0  0  0  0  0  0  0  0  0  0  0
    1.6357    5.5455   -0.2292 C   0  0  0  0  0  0  0  0  0  0  0  0
    1.9087    7.0273   -0.2031 C   0  0  0  0  0  0  0  0  0  0  0  0
    1.1274    7.7762    0.3341 O   0  0  0  0  0  0  0  0  0  0  0  0
    3.0198    7.5152   -0.7768 O   0  0  0  0  0  0  0  0  0  0  0  0
   -4.0524    2.8635    1.5876 O   0  0  0  0  0  0  0  0  0  0  0  0
   -4.5699    0.3950    2.8018 O   0  0  0  0  0  0  0  0  0  0  0  0
   -4.5642   -3.7180    0.7115 O   0  0  0  0  0  0  0  0  0  0  0  0
   -7.0211   -4.1421    0.0339 C   0  0  0  0  0  0  0  0  0  0  0  0
   -8.3874   -4.2600   -0.3676 O   0  0  0  0  0  0  0  0  0  0  0  0
   -6.2727   -4.0842   -2.2802 O   0  0  0  0  0  0  0  0  0  0  0  0
   -6.7180   -1.6319   -2.2464 H   0  0  0  0  0  0  0  0  0  0  0  0
   -7.8448   -1.9157   -0.8844 H   0  0  0  0  0  0  0  0  0  0  0  0
   -4.0838   -3.5782   -1.3069 H   0  0  0  0  0  0  0  0  0  0  0  0
   -4.2170   -1.2433   -1.4683 H   0  0  0  0  0  0  0  0  0  0  0  0
   -4.3694    0.7259    0.1858 H   0  0  0  0  0  0  0  0  0  0  0  0
   -2.5549    0.0131    2.5371 H   0  0  0  0  0  0  0  0  0  0  0  0
   -2.7904    2.3871    3.1542 H   0  0  0  0  0  0  0  0  0  0  0  0
   -0.8893    1.7502    1.7191 H   0  0  0  0  0  0  0  0  0  0  0  0
   -2.3973    0.2075   -1.2032 H   0  0  0  0  0  0  0  0  0  0  0  0
   -0.7129    1.1246   -1.7547 H   0  0  0  0  0  0  0  0  0  0  0  0
    0.9894   -1.5574    1.1080 H   0  0  0  0  0  0  0  0  0  0  0  0
    5.7819   -0.7886   -2.1601 H   0  0  0  0  0  0  0  0  0  0  0  0
    4.5140   -3.1257    1.5984 H   0  0  0  0  0  0  0  0  0  0  0  0
    8.9486   -3.0346   -0.5810 H   0  0  0  0  0  0  0  0  0  0  0  0
    7.1009   -1.7172   -1.5228 H   0  0  0  0  0  0  0  0  0  0  0  0
    8.8628   -5.4477    1.1894 H   0  0  0  0  0  0  0  0  0  0  0  0
    6.0411   -5.5071    2.5761 H   0  0  0  0  0  0  0  0  0  0  0  0
    1.7405    2.3307   -2.9786 H   0  0  0  0  0  0  0  0  0  0  0  0
   -2.1608    4.3523    0.7588 H   0  0  0  0  0  0  0  0  0  0  0  0
   -1.2842    4.1637    2.2964 H   0  0  0  0  0  0  0  0  0  0  0  0
    2.4456    5.0179    0.2747 H   0  0  0  0  0  0  0  0  0  0  0  0
    1.5689    5.2064   -1.2629 H   0  0  0  0  0  0  0  0  0  0  0  0
    3.1517    8.4723   -0.7346 H   0  0  0  0  0  0  0  0  0  0  0  0
   -3.8843    3.8158    1.5823 H   0  0  0  0  0  0  0  0  0  0  0  0
   -4.5236    0.6458    3.7345 H   0  0  0  0  0  0  0  0  0  0  0  0
   -3.6639   -3.6044    1.0456 H   0  0  0  0  0  0  0  0  0  0  0  0
   -6.5920   -5.1363    0.1589 H   0  0  0  0  0  0  0  0  0  0  0  0
   -6.9654   -3.6010    0.9785 H   0  0  0  0  0  0  0  0  0  0  0  0
   -8.9440   -4.7335    0.2657 H   0  0  0  0  0  0  0  0  0  0  0  0
   -7.1619   -4.2013   -2.6417 H   0  0  0  0  0  0  0  0  0  0  0  0
  1  2  1  0  0  0  0
  2  3  1  0  0  0  0
  3  4  1  0  0  0  0
  4  5  1  0  0  0  0
  1  5  1  0  0  0  0
  4  6  1  0  0  0  0
  6  7  1  0  0  0  0
  7  8  1  0  0  0  0
  8  9  1  0  0  0  0
  9 10  1  0  0  0  0
 10 11  1  0  0  0  0
 11 12  1  0  0  0  0
  7 12  1  0  0  0  0
 12 13  1  0  0  0  0
 13 14  1  0  0  0  0
 14 15  2  0  0  0  0
 15 16  1  0  0  0  0
 16 17  2  0  0  0  0
 17 18  1  0  0  0  0
 18 19  2  0  0  0  0
 14 19  1  0  0  0  0
 18 20  1  0  0  0  0
 20 21  1  0  0  0  0
 21 22  2  0  0  0  0
 22 23  1  0  0  0  0
 17 23  1  0  0  0  0
 23 24  2  0  0  0  0
 21 25  1  0  0  0  0
 25 26  2  0  0  0  0
 26 27  1  0  0  0  0
 27 28  2  0  0  0  0
 28 29  1  0  0  0  0
 29 30  2  0  0  0  0
 25 30  1  0  0  0  0
 28 31  1  0  0  0  0
 27 32  1  0  0  0  0
 16 33  1  0  0  0  0
 10 34  1  0  0  0  0
 34 35  1  0  0  0  0
 35 36  1  0  0  0  0
 36 37  2  0  0  0  0
 36 38  1  0  0  0  0
 38 39  1  0  0  0  0
 39 40  2  0  0  0  0
 39 41  1  0  0  0  0
  9 42  1  0  0  0  0
  8 43  1  0  0  0  0
  3 44  1  0  0  0  0
  2 45  1  0  0  0  0
 45 46  1  0  0  0  0
  2 47  1  0  0  0  0
  1 48  1  0  0  0  0
  1 49  1  0  0  0  0
  3 50  1  0  0  0  0
  4 51  1  0  0  0  0
  7 52  1  0  0  0  0
  8 53  1  0  0  0  0
  9 54  1  0  0  0  0
 10 55  1  0  0  0  0
 12 56  1  0  0  0  0
 15 57  1  0  0  0  0
 19 58  1  0  0  0  0
 22 59  1  0  0  0  0
 26 60  1  0  0  0  0
 29 61  1  0  0  0  0
 30 62  1  0  0  0  0
 31 63  1  0  0  0  0
 32 64  1  0  0  0  0
 33 65  1  0  0  0  0
 34 66  1  0  0  0  0
 34 67  1  0  0  0  0
 38 68  1  0  0  0  0
 38 69  1  0  0  0  0
 41 70  1  0  0  0  0
 42 71  1  0  0  0  0
 43 72  1  0  0  0  0
 44 73  1  0  0  0  0
 45 74  1  0  0  0  0
 45 75  1  0  0  0  0
 46 76  1  0  0  0  0
 47 77  1  0  0  0  0
M  END
$$$$
