C25H34O3
APtclcactv06281817273D 0   0.00000     0.00000
 
 62 62  0  0  0  0  0  0  0  0999 V2000
    3.7166    1.7809   -0.1622 C   0  0  0  0  0  0  0  0  0  0  0  0
    3.7394    0.2746   -0.1222 C   0  0  0  0  0  0  0  0  0  0  0  0
    4.9312   -0.3887   -0.0470 C   0  0  0  0  0  0  0  0  0  0  0  0
    6.1343    0.3325   -0.0070 C   0  0  0  0  0  0  0  0  0  0  0  0
    7.3261   -0.3308    0.0682 C   0  0  0  0  0  0  0  0  0  0  0  0
    8.5292    0.3905    0.1082 C   0  0  0  0  0  0  0  0  0  0  0  0
    9.7210   -0.2728    0.1834 C   0  0  0  0  0  0  0  0  0  0  0  0
    9.7438   -1.7791    0.2234 C   0  0  0  0  0  0  0  0  0  0  0  0
   10.9241    0.4484    0.2234 C   0  0  0  0  0  0  0  0  0  0  0  0
   11.9845   -0.1418    0.2903 O   0  0  0  0  0  0  0  0  0  0  0  0
    2.5363   -0.4467   -0.1622 C   0  0  0  0  0  0  0  0  0  0  0  0
    1.3445    0.2166   -0.2374 C   0  0  0  0  0  0  0  0  0  0  0  0
    0.1414   -0.5046   -0.2774 C   0  0  0  0  0  0  0  0  0  0  0  0
   -1.0504    0.1587   -0.3526 C   0  0  0  0  0  0  0  0  0  0  0  0
   -1.0732    1.6650   -0.3926 C   0  0  0  0  0  0  0  0  0  0  0  0
   -2.2535   -0.5626   -0.3925 C   0  0  0  0  0  0  0  0  0  0  0  0
   -3.4453    0.1007   -0.4678 C   0  0  0  0  0  0  0  0  0  0  0  0
   -4.6484   -0.6205   -0.5077 C   0  0  0  0  0  0  0  0  0  0  0  0
   -4.6300   -1.8354   -0.4754 O   0  0  0  0  0  0  0  0  0  0  0  0
   -5.9632    0.1112   -0.5907 C   0  0  0  0  0  0  0  0  0  0  0  0
   -7.1145   -0.8932   -0.8039 C   0  0  0  0  0  0  0  0  0  0  0  0
   -7.6592   -1.1550    0.6222 C   0  0  0  0  0  0  0  0  0  0  0  0
   -7.5650    0.2414    1.2857 C   0  0  0  0  0  0  0  0  0  0  0  0
   -6.2497    0.8326    0.7379 C   0  0  0  0  0  0  0  0  0  0  0  0
   -5.1100    0.5811    1.7272 C   0  0  0  0  0  0  0  0  0  0  0  0
   -6.4114    2.3345    0.4946 C   0  0  0  0  0  0  0  0  0  0  0  0
   -9.0157   -1.6015    0.5721 O   0  0  0  0  0  0  0  0  0  0  0  0
   -5.9290    1.1209   -1.7397 C   0  0  0  0  0  0  0  0  0  0  0  0
    3.7611    2.1175   -1.1980 H   0  0  0  0  0  0  0  0  0  0  0  0
    2.7973    2.1427    0.2982 H   0  0  0  0  0  0  0  0  0  0  0  0
    4.5750    2.1719    0.3841 H   0  0  0  0  0  0  0  0  0  0  0  0
    4.9475   -1.4682   -0.0183 H   0  0  0  0  0  0  0  0  0  0  0  0
    6.1180    1.4120   -0.0357 H   0  0  0  0  0  0  0  0  0  0  0  0
    7.3424   -1.4103    0.0969 H   0  0  0  0  0  0  0  0  0  0  0  0
    8.5129    1.4700    0.0795 H   0  0  0  0  0  0  0  0  0  0  0  0
    9.7992   -2.1688   -0.7930 H   0  0  0  0  0  0  0  0  0  0  0  0
   10.6131   -2.1144    0.7891 H   0  0  0  0  0  0  0  0  0  0  0  0
    8.8354   -2.1436    0.7032 H   0  0  0  0  0  0  0  0  0  0  0  0
   10.9078    1.5279    0.1947 H   0  0  0  0  0  0  0  0  0  0  0  0
    2.5526   -1.5262   -0.1335 H   0  0  0  0  0  0  0  0  0  0  0  0
    1.3282    1.2961   -0.2661 H   0  0  0  0  0  0  0  0  0  0  0  0
    0.1577   -1.5841   -0.2487 H   0  0  0  0  0  0  0  0  0  0  0  0
   -1.0287    2.0016   -1.4284 H   0  0  0  0  0  0  0  0  0  0  0  0
   -1.9925    2.0268    0.0679 H   0  0  0  0  0  0  0  0  0  0  0  0
   -0.2148    2.0560    0.1537 H   0  0  0  0  0  0  0  0  0  0  0  0
   -2.2372   -1.6421   -0.3638 H   0  0  0  0  0  0  0  0  0  0  0  0
   -3.4616    1.1802   -0.4965 H   0  0  0  0  0  0  0  0  0  0  0  0
   -7.8894   -0.4570   -1.4342 H   0  0  0  0  0  0  0  0  0  0  0  0
   -6.7384   -1.8167   -1.2441 H   0  0  0  0  0  0  0  0  0  0  0  0
   -7.0333   -1.8757    1.1485 H   0  0  0  0  0  0  0  0  0  0  0  0
   -8.4128    0.8608    0.9929 H   0  0  0  0  0  0  0  0  0  0  0  0
   -7.5178    0.1459    2.3705 H   0  0  0  0  0  0  0  0  0  0  0  0
   -4.9099   -0.4887    1.7867 H   0  0  0  0  0  0  0  0  0  0  0  0
   -4.2134    1.1002    1.3882 H   0  0  0  0  0  0  0  0  0  0  0  0
   -5.3947    0.9528    2.7116 H   0  0  0  0  0  0  0  0  0  0  0  0
   -6.6381    2.8329    1.4370 H   0  0  0  0  0  0  0  0  0  0  0  0
   -5.4858    2.7377    0.0837 H   0  0  0  0  0  0  0  0  0  0  0  0
   -7.2255    2.5027   -0.2104 H   0  0  0  0  0  0  0  0  0  0  0  0
   -9.1385   -2.4336    0.0951 H   0  0  0  0  0  0  0  0  0  0  0  0
   -5.7382    0.5983   -2.6771 H   0  0  0  0  0  0  0  0  0  0  0  0
   -6.8878    1.6359   -1.7995 H   0  0  0  0  0  0  0  0  0  0  0  0
   -5.1366    1.8478   -1.5612 H   0  0  0  0  0  0  0  0  0  0  0  0
  1  2  1  0  0  0  0
  2  3  2  0  0  0  0
  3  4  1  0  0  0  0
  4  5  2  0  0  0  0
  5  6  1  0  0  0  0
  6  7  2  0  0  0  0
  7  8  1  0  0  0  0
  7  9  1  0  0  0  0
  9 10  2  0  0  0  0
  2 11  1  0  0  0  0
 11 12  2  0  0  0  0
 12 13  1  0  0  0  0
 13 14  2  0  0  0  0
 14 15  1  0  0  0  0
 14 16  1  0  0  0  0
 16 17  2  0  0  0  0
 17 18  1  0  0  0  0
 18 19  2  0  0  0  0
 18 20  1  0  0  0  0
 20 21  1  0  0  0  0
 21 22  1  0  0  0  0
 22 23  1  0  0  0  0
 23 24  1  0  0  0  0
 20 24  1  0  0  0  0
 24 25  1  0  0  0  0
 24 26  1  0  0  0  0
 22 27  1  0  0  0  0
 20 28  1  0  0  0  0
  1 29  1  0  0  0  0
  1 30  1  0  0  0  0
  1 31  1  0  0  0  0
  3 32  1  0  0  0  0
  4 33  1  0  0  0  0
  5 34  1  0  0  0  0
  6 35  1  0  0  0  0
  8 36  1  0  0  0  0
  8 37  1  0  0  0  0
  8 38  1  0  0  0  0
  9 39  1  0  0  0  0
 11 40  1  0  0  0  0
 12 41  1  0  0  0  0
 13 42  1  0  0  0  0
 15 43  1  0  0  0  0
 15 44  1  0  0  0  0
 15 45  1  0  0  0  0
 16 46  1  0  0  0  0
 17 47  1  0  0  0  0
 21 48  1  0  0  0  0
 21 49  1  0  0  0  0
 22 50  1  0  0  0  0
 23 51  1  0  0  0  0
 23 52  1  0  0  0  0
 25 53  1  0  0  0  0
 25 54  1  0  0  0  0
 25 55  1  0  0  0  0
 26 56  1  0  0  0  0
 26 57  1  0  0  0  0
 26 58  1  0  0  0  0
 27 59  1  0  0  0  0
 28 60  1  0  0  0  0
 28 61  1  0  0  0  0
 28 62  1  0  0  0  0
M  END
$$$$
