C15H18
APtclcactv06211804453D 0   0.00000     0.00000
 
 33 34  0  0  0  0  0  0  0  0999 V2000
   -2.5389    3.0756   -0.0280 C   0  0  0  0  0  0  0  0  0  0  0  0
   -1.9672    1.6813   -0.0179 C   0  0  0  0  0  0  0  0  0  0  0  0
   -0.6171    1.5105   -0.0212 C   0  0  0  0  0  0  0  0  0  0  0  0
   -0.0804    0.2115   -0.0119 C   0  0  0  0  0  0  0  0  0  0  0  0
    1.3078   -0.0046   -0.0144 C   0  0  0  0  0  0  0  0  0  0  0  0
    1.7914   -1.2771   -0.0047 C   0  0  0  0  0  0  0  0  0  0  0  0
    0.9296   -2.3719    0.0076 C   0  0  0  0  0  0  0  0  0  0  0  0
   -0.4208   -2.2009    0.0100 C   0  0  0  0  0  0  0  0  0  0  0  0
   -0.9571   -0.9023    0.0008 C   0  0  0  0  0  0  0  0  0  0  0  0
   -2.3458   -0.6861    0.0034 C   0  0  0  0  0  0  0  0  0  0  0  0
   -2.8292    0.5861    0.0003 C   0  0  0  0  0  0  0  0  0  0  0  0
   -1.3359   -3.3982    0.0224 C   0  0  0  0  0  0  0  0  0  0  0  0
    2.2567    1.1661   -0.0282 C   0  0  0  0  0  0  0  0  0  0  0  0
    3.0522    1.1932    1.2785 C   0  0  0  0  0  0  0  0  0  0  0  0
    3.2198    1.0280   -1.2089 C   0  0  0  0  0  0  0  0  0  0  0  0
   -2.6804    3.4029   -1.0580 H   0  0  0  0  0  0  0  0  0  0  0  0
   -3.4984    3.0786    0.4893 H   0  0  0  0  0  0  0  0  0  0  0  0
   -1.8515    3.7538    0.4776 H   0  0  0  0  0  0  0  0  0  0  0  0
    0.0386    2.3686   -0.0313 H   0  0  0  0  0  0  0  0  0  0  0  0
    2.8589   -1.4405   -0.0070 H   0  0  0  0  0  0  0  0  0  0  0  0
    1.3393   -3.3712    0.0151 H   0  0  0  0  0  0  0  0  0  0  0  0
   -3.0258   -1.5251    0.0124 H   0  0  0  0  0  0  0  0  0  0  0  0
   -3.8967    0.7495    0.0023 H   0  0  0  0  0  0  0  0  0  0  0  0
   -1.5537   -3.6784    1.0530 H   0  0  0  0  0  0  0  0  0  0  0  0
   -2.2651   -3.1506   -0.4909 H   0  0  0  0  0  0  0  0  0  0  0  0
   -0.8509   -4.2315   -0.4859 H   0  0  0  0  0  0  0  0  0  0  0  0
    1.6900    2.0919   -0.1279 H   0  0  0  0  0  0  0  0  0  0  0  0
    3.6188    0.2675    1.3781 H   0  0  0  0  0  0  0  0  0  0  0  0
    3.7384    2.0400    1.2685 H   0  0  0  0  0  0  0  0  0  0  0  0
    2.3660    1.2916    2.1196 H   0  0  0  0  0  0  0  0  0  0  0  0
    2.6531    1.0087   -2.1398 H   0  0  0  0  0  0  0  0  0  0  0  0
    3.9061    1.8748   -1.2189 H   0  0  0  0  0  0  0  0  0  0  0  0
    3.7865    0.1023   -1.1092 H   0  0  0  0  0  0  0  0  0  0  0  0
  1  2  1  0  0  0  0
  2  3  2  0  0  0  0
  3  4  1  0  0  0  0
  4  5  2  0  0  0  0
  5  6  1  0  0  0  0
  6  7  2  0  0  0  0
  7  8  1  0  0  0  0
  8  9  2  0  0  0  0
  4  9  1  0  0  0  0
  9 10  1  0  0  0  0
 10 11  2  0  0  0  0
  2 11  1  0  0  0  0
  8 12  1  0  0  0  0
  5 13  1  0  0  0  0
 13 14  1  0  0  0  0
 13 15  1  0  0  0  0
  1 16  1  0  0  0  0
  1 17  1  0  0  0  0
  1 18  1  0  0  0  0
  3 19  1  0  0  0  0
  6 20  1  0  0  0  0
  7 21  1  0  0  0  0
 10 22  1  0  0  0  0
 11 23  1  0  0  0  0
 12 24  1  0  0  0  0
 12 25  1  0  0  0  0
 12 26  1  0  0  0  0
 13 27  1  0  0  0  0
 14 28  1  0  0  0  0
 14 29  1  0  0  0  0
 14 30  1  0  0  0  0
 15 31  1  0  0  0  0
 15 32  1  0  0  0  0
 15 33  1  0  0  0  0
M  END
$$$$
