C15H22
APtclcactv06211804453D 0   0.00000     0.00000
 
 37 38  0  0  0  0  0  0  0  0999 V2000
   -0.8208    3.4197    0.1900 C   0  0  0  0  0  0  0  0  0  0  0  0
    0.0198    2.2620   -0.3522 C   0  0  0  0  0  0  0  0  0  0  0  0
    1.3573    2.2226    0.3841 C   0  0  0  0  0  0  0  0  0  0  0  0
    2.0915    0.9373   -0.0161 C   0  0  0  0  0  0  0  0  0  0  0  0
    1.3527   -0.2505    0.5971 C   0  0  0  0  0  0  0  0  0  0  0  0
   -0.1170   -0.1846    0.2738 C   0  0  0  0  0  0  0  0  0  0  0  0
   -0.7299    0.9701   -0.1577 C   0  0  0  0  0  0  0  0  0  0  0  0
   -2.0916    0.9649   -0.4325 C   0  0  0  0  0  0  0  0  0  0  0  0
   -2.8329   -0.1883   -0.2805 C   0  0  0  0  0  0  0  0  0  0  0  0
   -2.2166   -1.3491    0.1489 C   0  0  0  0  0  0  0  0  0  0  0  0
   -0.8651   -1.3454    0.4245 C   0  0  0  0  0  0  0  0  0  0  0  0
   -3.0188   -2.6139    0.3158 C   0  0  0  0  0  0  0  0  0  0  0  0
    1.9346   -1.5501    0.0375 C   0  0  0  0  0  0  0  0  0  0  0  0
    1.8140   -1.5477   -1.4878 C   0  0  0  0  0  0  0  0  0  0  0  0
    3.4087   -1.6604    0.4323 C   0  0  0  0  0  0  0  0  0  0  0  0
   -0.2898    4.3587    0.0335 H   0  0  0  0  0  0  0  0  0  0  0  0
   -1.7765    3.4511   -0.3332 H   0  0  0  0  0  0  0  0  0  0  0  0
   -0.9949    3.2741    1.2561 H   0  0  0  0  0  0  0  0  0  0  0  0
    0.1996    2.4160   -1.4162 H   0  0  0  0  0  0  0  0  0  0  0  0
    1.9560    3.0896    0.1048 H   0  0  0  0  0  0  0  0  0  0  0  0
    1.1843    2.2266    1.4603 H   0  0  0  0  0  0  0  0  0  0  0  0
    2.1009    0.8429   -1.1020 H   0  0  0  0  0  0  0  0  0  0  0  0
    3.1144    0.9668    0.3592 H   0  0  0  0  0  0  0  0  0  0  0  0
    1.4836   -0.2354    1.6791 H   0  0  0  0  0  0  0  0  0  0  0  0
   -2.5738    1.8713   -0.7675 H   0  0  0  0  0  0  0  0  0  0  0  0
   -3.8913   -0.1845   -0.4958 H   0  0  0  0  0  0  0  0  0  0  0  0
   -0.3845   -2.2525    0.7599 H   0  0  0  0  0  0  0  0  0  0  0  0
   -3.0131   -3.1739   -0.6193 H   0  0  0  0  0  0  0  0  0  0  0  0
   -2.5784   -3.2218    1.1061 H   0  0  0  0  0  0  0  0  0  0  0  0
   -4.0452   -2.3607    0.5814 H   0  0  0  0  0  0  0  0  0  0  0  0
    1.3850   -2.3990    0.4441 H   0  0  0  0  0  0  0  0  0  0  0  0
    2.2286   -2.4735   -1.8865 H   0  0  0  0  0  0  0  0  0  0  0  0
    0.7638   -1.4690   -1.7690 H   0  0  0  0  0  0  0  0  0  0  0  0
    2.3636   -0.6987   -1.8944 H   0  0  0  0  0  0  0  0  0  0  0  0
    3.4913   -1.7108    1.5180 H   0  0  0  0  0  0  0  0  0  0  0  0
    3.8359   -2.5620   -0.0068 H   0  0  0  0  0  0  0  0  0  0  0  0
    3.9491   -0.7871    0.0669 H   0  0  0  0  0  0  0  0  0  0  0  0
  1  2  1  0  0  0  0
  2  3  1  0  0  0  0
  3  4  1  0  0  0  0
  4  5  1  0  0  0  0
  5  6  1  0  0  0  0
  6  7  2  0  0  0  0
  2  7  1  0  0  0  0
  7  8  1  0  0  0  0
  8  9  2  0  0  0  0
  9 10  1  0  0  0  0
 10 11  2  0  0  0  0
  6 11  1  0  0  0  0
 10 12  1  0  0  0  0
  5 13  1  0  0  0  0
 13 14  1  0  0  0  0
 13 15  1  0  0  0  0
  1 16  1  0  0  0  0
  1 17  1  0  0  0  0
  1 18  1  0  0  0  0
  2 19  1  0  0  0  0
  3 20  1  0  0  0  0
  3 21  1  0  0  0  0
  4 22  1  0  0  0  0
  4 23  1  0  0  0  0
  5 24  1  0  0  0  0
  8 25  1  0  0  0  0
  9 26  1  0  0  0  0
 11 27  1  0  0  0  0
 12 28  1  0  0  0  0
 12 29  1  0  0  0  0
 12 30  1  0  0  0  0
 13 31  1  0  0  0  0
 14 32  1  0  0  0  0
 14 33  1  0  0  0  0
 14 34  1  0  0  0  0
 15 35  1  0  0  0  0
 15 36  1  0  0  0  0
 15 37  1  0  0  0  0
M  END
$$$$
