C19H22O7
APtclcactv06291803063D 0   0.00000     0.00000
 
 48 49  0  0  0  0  0  0  0  0999 V2000
    2.4411   -3.8686    0.7341 C   0  0  0  0  0  0  0  0  0  0  0  0
    2.4286   -2.4107    1.1156 C   0  0  0  0  0  0  0  0  0  0  0  0
    3.0811   -1.5378    0.3887 C   0  0  0  0  0  0  0  0  0  0  0  0
    3.0962   -0.0619    0.7347 C   0  0  0  0  0  0  0  0  0  0  0  0
    3.0011    0.7229   -0.5483 C   0  0  0  0  0  0  0  0  0  0  0  0
    3.1502    0.1570   -1.7464 C   0  0  0  0  0  0  0  0  0  0  0  0
    3.3756   -1.1465   -1.9559 O   0  0  0  0  0  0  0  0  0  0  0  0
    3.8682   -1.9503   -0.8421 C   0  0  0  0  0  0  0  0  0  0  0  0
    5.2614   -1.7025   -0.6429 O   0  0  0  0  0  0  0  0  0  0  0  0
    2.7433    2.1131   -0.4790 C   0  0  0  0  0  0  0  0  0  0  0  0
    2.5525    2.7481   -1.4992 O   0  0  0  0  0  0  0  0  0  0  0  0
    2.7092    2.7340    0.7184 O   0  0  0  0  0  0  0  0  0  0  0  0
    2.3349    4.1131    0.7236 C   0  0  0  0  0  0  0  0  0  0  0  0
    1.9028    0.2702    1.6327 C   0  0  0  0  0  0  0  0  0  0  0  0
    0.6227    0.0524    0.8679 C   0  0  0  0  0  0  0  0  0  0  0  0
    0.6560   -0.4201   -0.2436 O   0  0  0  0  0  0  0  0  0  0  0  0
   -0.5544    0.3834    1.4215 O   0  0  0  0  0  0  0  0  0  0  0  0
   -1.7527    0.0431    0.6753 C   0  0  0  0  0  0  0  0  0  0  0  0
   -2.9795    0.6037    1.3974 C   0  0  0  0  0  0  0  0  0  0  0  0
   -4.2232    0.2506    0.6230 C   0  0  0  0  0  0  0  0  0  0  0  0
   -4.8914   -0.9297    0.8913 C   0  0  0  0  0  0  0  0  0  0  0  0
   -6.0317   -1.2557    0.1828 C   0  0  0  0  0  0  0  0  0  0  0  0
   -6.5061   -0.3977   -0.7987 C   0  0  0  0  0  0  0  0  0  0  0  0
   -5.8338    0.7860   -1.0660 C   0  0  0  0  0  0  0  0  0  0  0  0
   -4.6971    1.1101   -0.3508 C   0  0  0  0  0  0  0  0  0  0  0  0
   -7.6273   -0.7163   -1.4973 O   0  0  0  0  0  0  0  0  0  0  0  0
    1.8482   -4.4368    1.4508 H   0  0  0  0  0  0  0  0  0  0  0  0
    2.0171   -3.9868   -0.2631 H   0  0  0  0  0  0  0  0  0  0  0  0
    3.4671   -4.2365    0.7386 H   0  0  0  0  0  0  0  0  0  0  0  0
    1.8817   -2.0856    1.9884 H   0  0  0  0  0  0  0  0  0  0  0  0
    4.0247    0.1857    1.2493 H   0  0  0  0  0  0  0  0  0  0  0  0
    3.0840    0.7979   -2.6131 H   0  0  0  0  0  0  0  0  0  0  0  0
    3.7046   -3.0082   -1.0475 H   0  0  0  0  0  0  0  0  0  0  0  0
    5.8121   -1.9151   -1.4089 H   0  0  0  0  0  0  0  0  0  0  0  0
    3.0874    4.6959    0.1925 H   0  0  0  0  0  0  0  0  0  0  0  0
    1.3700    4.2296    0.2301 H   0  0  0  0  0  0  0  0  0  0  0  0
    2.2617    4.4658    1.7524 H   0  0  0  0  0  0  0  0  0  0  0  0
    1.9168   -0.3771    2.5096 H   0  0  0  0  0  0  0  0  0  0  0  0
    1.9646    1.3115    1.9487 H   0  0  0  0  0  0  0  0  0  0  0  0
   -1.6921    0.4724   -0.3248 H   0  0  0  0  0  0  0  0  0  0  0  0
   -1.8387   -1.0409    0.6008 H   0  0  0  0  0  0  0  0  0  0  0  0
   -3.0402    0.1745    2.3975 H   0  0  0  0  0  0  0  0  0  0  0  0
   -2.8935    1.6878    1.4719 H   0  0  0  0  0  0  0  0  0  0  0  0
   -4.5215   -1.5975    1.6552 H   0  0  0  0  0  0  0  0  0  0  0  0
   -6.5531   -2.1780    0.3925 H   0  0  0  0  0  0  0  0  0  0  0  0
   -6.2011    1.4557   -1.8296 H   0  0  0  0  0  0  0  0  0  0  0  0
   -4.1734    2.0315   -0.5585 H   0  0  0  0  0  0  0  0  0  0  0  0
   -8.4457   -0.3923   -1.0969 H   0  0  0  0  0  0  0  0  0  0  0  0
  1  2  1  0  0  0  0
  2  3  2  0  0  0  0
  3  4  1  0  0  0  0
  4  5  1  0  0  0  0
  5  6  2  0  0  0  0
  6  7  1  0  0  0  0
  7  8  1  0  0  0  0
  3  8  1  0  0  0  0
  8  9  1  0  0  0  0
  5 10  1  0  0  0  0
 10 11  2  0  0  0  0
 10 12  1  0  0  0  0
 12 13  1  0  0  0  0
  4 14  1  0  0  0  0
 14 15  1  0  0  0  0
 15 16  2  0  0  0  0
 15 17  1  0  0  0  0
 17 18  1  0  0  0  0
 18 19  1  0  0  0  0
 19 20  1  0  0  0  0
 20 21  2  0  0  0  0
 21 22  1  0  0  0  0
 22 23  2  0  0  0  0
 23 24  1  0  0  0  0
 24 25  2  0  0  0  0
 20 25  1  0  0  0  0
 23 26  1  0  0  0  0
  1 27  1  0  0  0  0
  1 28  1  0  0  0  0
  1 29  1  0  0  0  0
  2 30  1  0  0  0  0
  4 31  1  0  0  0  0
  6 32  1  0  0  0  0
  8 33  1  0  0  0  0
  9 34  1  0  0  0  0
 13 35  1  0  0  0  0
 13 36  1  0  0  0  0
 13 37  1  0  0  0  0
 14 38  1  0  0  0  0
 14 39  1  0  0  0  0
 18 40  1  0  0  0  0
 18 41  1  0  0  0  0
 19 42  1  0  0  0  0
 19 43  1  0  0  0  0
 21 44  1  0  0  0  0
 22 45  1  0  0  0  0
 24 46  1  0  0  0  0
 25 47  1  0  0  0  0
 26 48  1  0  0  0  0
M  END
$$$$
