C21H40O2
APtclcactv06211806343D 0   0.00000     0.00000
 
 63 62  0  0  0  0  0  0  0  0999 V2000
  -11.4903    3.7262   -0.3002 C   0  0  0  0  0  0  0  0  0  0  0  0
  -10.9065    2.4461    0.3010 C   0  0  0  0  0  0  0  0  0  0  0  0
   -9.5272    2.1806   -0.3055 C   0  0  0  0  0  0  0  0  0  0  0  0
   -8.9435    0.9006    0.2958 C   0  0  0  0  0  0  0  0  0  0  0  0
   -7.5641    0.6351   -0.3107 C   0  0  0  0  0  0  0  0  0  0  0  0
   -6.9804   -0.6450    0.2905 C   0  0  0  0  0  0  0  0  0  0  0  0
   -5.6011   -0.9104   -0.3160 C   0  0  0  0  0  0  0  0  0  0  0  0
   -5.0173   -2.1905    0.2853 C   0  0  0  0  0  0  0  0  0  0  0  0
   -3.6587   -2.4520   -0.3121 C   0  0  0  0  0  0  0  0  0  0  0  0
   -2.6182   -2.6049    0.4689 C   0  0  0  0  0  0  0  0  0  0  0  0
   -1.2596   -2.8663   -0.1284 C   0  0  0  0  0  0  0  0  0  0  0  0
   -0.2673   -1.8205    0.3839 C   0  0  0  0  0  0  0  0  0  0  0  0
    1.1120   -2.0859   -0.2226 C   0  0  0  0  0  0  0  0  0  0  0  0
    2.1043   -1.0400    0.2897 C   0  0  0  0  0  0  0  0  0  0  0  0
    3.4836   -1.3055   -0.3168 C   0  0  0  0  0  0  0  0  0  0  0  0
    4.4759   -0.2596    0.1955 C   0  0  0  0  0  0  0  0  0  0  0  0
    5.8552   -0.5251   -0.4110 C   0  0  0  0  0  0  0  0  0  0  0  0
    6.8475    0.5208    0.1013 C   0  0  0  0  0  0  0  0  0  0  0  0
    8.2268    0.2554   -0.5052 C   0  0  0  0  0  0  0  0  0  0  0  0
    9.2041    1.2855   -0.0006 C   0  0  0  0  0  0  0  0  0  0  0  0
    8.8353    2.1439    0.7656 O   0  0  0  0  0  0  0  0  0  0  0  0
   10.4844    1.2494   -0.4022 O   0  0  0  0  0  0  0  0  0  0  0  0
   11.3696    2.2730    0.1243 C   0  0  0  0  0  0  0  0  0  0  0  0
  -10.8294    4.5648   -0.0809 H   0  0  0  0  0  0  0  0  0  0  0  0
  -11.5843    3.6104   -1.3800 H   0  0  0  0  0  0  0  0  0  0  0  0
  -12.4729    3.9153    0.1319 H   0  0  0  0  0  0  0  0  0  0  0  0
  -10.8125    2.5619    1.3808 H   0  0  0  0  0  0  0  0  0  0  0  0
  -11.5674    1.6075    0.0817 H   0  0  0  0  0  0  0  0  0  0  0  0
   -9.6212    2.0649   -1.3852 H   0  0  0  0  0  0  0  0  0  0  0  0
   -8.8664    3.0193   -0.0862 H   0  0  0  0  0  0  0  0  0  0  0  0
   -8.8494    1.0163    1.3755 H   0  0  0  0  0  0  0  0  0  0  0  0
   -9.6043    0.0619    0.0765 H   0  0  0  0  0  0  0  0  0  0  0  0
   -7.6582    0.5193   -1.3905 H   0  0  0  0  0  0  0  0  0  0  0  0
   -6.9033    1.4737   -0.0914 H   0  0  0  0  0  0  0  0  0  0  0  0
   -6.8864   -0.5292    1.3703 H   0  0  0  0  0  0  0  0  0  0  0  0
   -7.6412   -1.4836    0.0712 H   0  0  0  0  0  0  0  0  0  0  0  0
   -5.6951   -1.0262   -1.3957 H   0  0  0  0  0  0  0  0  0  0  0  0
   -4.9402   -0.0718   -0.0966 H   0  0  0  0  0  0  0  0  0  0  0  0
   -4.9233   -2.0748    1.3651 H   0  0  0  0  0  0  0  0  0  0  0  0
   -5.6782   -3.0292    0.0660 H   0  0  0  0  0  0  0  0  0  0  0  0
   -3.5429   -2.5133   -1.3841 H   0  0  0  0  0  0  0  0  0  0  0  0
   -2.7340   -2.5436    1.5410 H   0  0  0  0  0  0  0  0  0  0  0  0
   -0.9207   -3.8611    0.1610 H   0  0  0  0  0  0  0  0  0  0  0  0
   -1.3226   -2.8058   -1.2149 H   0  0  0  0  0  0  0  0  0  0  0  0
   -0.6062   -0.8257    0.0945 H   0  0  0  0  0  0  0  0  0  0  0  0
   -0.2042   -1.8810    1.4704 H   0  0  0  0  0  0  0  0  0  0  0  0
    1.4509   -3.0807    0.0668 H   0  0  0  0  0  0  0  0  0  0  0  0
    1.0490   -2.0254   -1.3091 H   0  0  0  0  0  0  0  0  0  0  0  0
    1.7654   -0.0453    0.0003 H   0  0  0  0  0  0  0  0  0  0  0  0
    2.1673   -1.1006    1.3762 H   0  0  0  0  0  0  0  0  0  0  0  0
    3.8225   -2.3002   -0.0274 H   0  0  0  0  0  0  0  0  0  0  0  0
    3.4206   -1.2450   -1.4033 H   0  0  0  0  0  0  0  0  0  0  0  0
    4.1370    0.7351   -0.0939 H   0  0  0  0  0  0  0  0  0  0  0  0
    4.5389   -0.3201    1.2820 H   0  0  0  0  0  0  0  0  0  0  0  0
    6.1941   -1.5198   -0.1216 H   0  0  0  0  0  0  0  0  0  0  0  0
    5.7921   -0.4645   -1.4975 H   0  0  0  0  0  0  0  0  0  0  0  0
    6.5086    1.5156   -0.1881 H   0  0  0  0  0  0  0  0  0  0  0  0
    6.9105    0.4603    1.1878 H   0  0  0  0  0  0  0  0  0  0  0  0
    8.5656   -0.7394   -0.2158 H   0  0  0  0  0  0  0  0  0  0  0  0
    8.1637    0.3159   -1.5917 H   0  0  0  0  0  0  0  0  0  0  0  0
   11.4016    2.2015    1.2115 H   0  0  0  0  0  0  0  0  0  0  0  0
   12.3719    2.1290   -0.2790 H   0  0  0  0  0  0  0  0  0  0  0  0
   10.9996    3.2568   -0.1645 H   0  0  0  0  0  0  0  0  0  0  0  0
  1  2  1  0  0  0  0
  2  3  1  0  0  0  0
  3  4  1  0  0  0  0
  4  5  1  0  0  0  0
  5  6  1  0  0  0  0
  6  7  1  0  0  0  0
  7  8  1  0  0  0  0
  8  9  1  0  0  0  0
  9 10  2  0  0  0  0
 10 11  1  0  0  0  0
 11 12  1  0  0  0  0
 12 13  1  0  0  0  0
 13 14  1  0  0  0  0
 14 15  1  0  0  0  0
 15 16  1  0  0  0  0
 16 17  1  0  0  0  0
 17 18  1  0  0  0  0
 18 19  1  0  0  0  0
 19 20  1  0  0  0  0
 20 21  2  0  0  0  0
 20 22  1  0  0  0  0
 22 23  1  0  0  0  0
  1 24  1  0  0  0  0
  1 25  1  0  0  0  0
  1 26  1  0  0  0  0
  2 27  1  0  0  0  0
  2 28  1  0  0  0  0
  3 29  1  0  0  0  0
  3 30  1  0  0  0  0
  4 31  1  0  0  0  0
  4 32  1  0  0  0  0
  5 33  1  0  0  0  0
  5 34  1  0  0  0  0
  6 35  1  0  0  0  0
  6 36  1  0  0  0  0
  7 37  1  0  0  0  0
  7 38  1  0  0  0  0
  8 39  1  0  0  0  0
  8 40  1  0  0  0  0
  9 41  1  0  0  0  0
 10 42  1  0  0  0  0
 11 43  1  0  0  0  0
 11 44  1  0  0  0  0
 12 45  1  0  0  0  0
 12 46  1  0  0  0  0
 13 47  1  0  0  0  0
 13 48  1  0  0  0  0
 14 49  1  0  0  0  0
 14 50  1  0  0  0  0
 15 51  1  0  0  0  0
 15 52  1  0  0  0  0
 16 53  1  0  0  0  0
 16 54  1  0  0  0  0
 17 55  1  0  0  0  0
 17 56  1  0  0  0  0
 18 57  1  0  0  0  0
 18 58  1  0  0  0  0
 19 59  1  0  0  0  0
 19 60  1  0  0  0  0
 23 61  1  0  0  0  0
 23 62  1  0  0  0  0
 23 63  1  0  0  0  0
M  END
$$$$
