C26H25O14
APtclcactv06291803063D 0   0.00000     0.00000
 
 65 69  0  0  0  0  0  0  0  0999 V2000
   -3.1410    3.9019   -2.0777 C   0  0  0  0  0  0  0  0  0  0  0  0
   -3.9123    3.2648   -1.0573 O   0  0  0  0  0  0  0  0  0  0  0  0
   -3.2432    2.4581   -0.1906 C   0  0  0  0  0  0  0  0  0  0  0  0
   -1.8771    2.2855   -0.3214 C   0  0  0  0  0  0  0  0  0  0  0  0
   -1.1909    1.4579    0.5686 C   0  0  0  0  0  0  0  0  0  0  0  0
   -1.8852    0.8060    1.5890 C   0  0  0  0  0  0  0  0  0  0  0  0
   -3.2513    0.9814    1.7161 C   0  0  0  0  0  0  0  0  0  0  0  0
   -3.9327    1.8113    0.8308 C   0  0  0  0  0  0  0  0  0  0  0  0
   -5.2757    1.9827    0.9578 O   0  0  0  0  0  0  0  0  0  0  0  0
   -3.9284    0.3462    2.7099 O   0  0  0  0  0  0  0  0  0  0  0  0
   -3.1639   -0.4793    3.5909 C   0  0  0  0  0  0  0  0  0  0  0  0
    0.2702    1.2714    0.4304 C   0  0  0  0  0  0  0  0  0  0  0  0
    0.9593    2.2579    0.2952 O   0  3  0  0  0  0  0  0  0  0  0  0
    2.1700    2.2897    0.1685 C   0  0  0  0  0  0  0  0  0  0  0  0
    2.8902    3.4817    0.0162 C   0  0  0  0  0  0  0  0  0  0  0  0
    4.2641    3.4377   -0.1228 C   0  0  0  0  0  0  0  0  0  0  0  0
    4.9691    2.2330   -0.1168 C   0  0  0  0  0  0  0  0  0  0  0  0
    4.2922    1.0399    0.0311 C   0  0  0  0  0  0  0  0  0  0  0  0
    2.8981    1.0809    0.1724 C   0  0  0  0  0  0  0  0  0  0  0  0
    2.1563   -0.1740    0.3310 C   0  0  0  0  0  0  0  0  0  0  0  0
    0.7768   -0.0441    0.4698 C   0  0  0  0  0  0  0  0  0  0  0  0
   -0.0345   -1.1223    0.6247 O   0  0  0  0  0  0  0  0  0  0  0  0
   -0.1135   -2.0374   -0.4701 C   0  0  0  0  0  0  0  0  0  0  0  0
   -0.7819   -3.3337   -0.0047 C   0  0  0  0  0  0  0  0  0  0  0  0
   -2.2124   -3.0271    0.4490 C   0  0  0  0  0  0  0  0  0  0  0  0
   -2.9710   -2.3636   -0.7046 C   0  0  0  0  0  0  0  0  0  0  0  0
   -2.2181   -1.1047   -1.1429 C   0  0  0  0  0  0  0  0  0  0  0  0
   -0.8859   -1.4560   -1.5224 O   0  0  0  0  0  0  0  0  0  0  0  0
   -2.9372   -0.4689   -2.3344 C   0  0  0  0  0  0  0  0  0  0  0  0
   -2.3027    0.7668   -2.6696 O   0  0  0  0  0  0  0  0  0  0  0  0
   -3.0606   -3.2732   -1.8030 O   0  0  0  0  0  0  0  0  0  0  0  0
   -2.8684   -4.2424    0.8160 O   0  0  0  0  0  0  0  0  0  0  0  0
   -0.8135   -4.2690   -1.0846 O   0  0  0  0  0  0  0  0  0  0  0  0
    2.9180   -1.4156    0.3335 C   0  0  0  0  0  0  0  0  0  0  0  0
    4.2691   -1.3315    0.1885 C   0  0  0  0  0  0  0  0  0  0  0  0
    4.9200   -0.1568    0.0442 O   0  0  0  0  0  0  0  0  0  0  0  0
    5.0553   -2.5759    0.1892 C   0  0  0  0  0  0  0  0  0  0  0  0
    4.4966   -3.6476    0.3173 O   0  0  0  0  0  0  0  0  0  0  0  0
    6.3953   -2.5268    0.0476 O   0  0  0  0  0  0  0  0  0  0  0  0
    4.9491    4.6012   -0.2701 O   0  0  0  0  0  0  0  0  0  0  0  0
   -2.6592    3.1440   -2.6955 H   0  0  0  0  0  0  0  0  0  0  0  0
   -3.7949    4.5146   -2.6983 H   0  0  0  0  0  0  0  0  0  0  0  0
   -2.3806    4.5330   -1.6178 H   0  0  0  0  0  0  0  0  0  0  0  0
   -1.3418    2.7906   -1.1119 H   0  0  0  0  0  0  0  0  0  0  0  0
   -1.3562    0.1649    2.2785 H   0  0  0  0  0  0  0  0  0  0  0  0
   -5.5256    2.7195    1.5321 H   0  0  0  0  0  0  0  0  0  0  0  0
   -2.4664    0.1398    4.1551 H   0  0  0  0  0  0  0  0  0  0  0  0
   -3.8339   -0.9927    4.2805 H   0  0  0  0  0  0  0  0  0  0  0  0
   -2.6082   -1.2147    3.0090 H   0  0  0  0  0  0  0  0  0  0  0  0
    2.3739    4.4303    0.0071 H   0  0  0  0  0  0  0  0  0  0  0  0
    6.0433    2.2349   -0.2282 H   0  0  0  0  0  0  0  0  0  0  0  0
    0.8904   -2.2563   -0.8340 H   0  0  0  0  0  0  0  0  0  0  0  0
   -0.2184   -3.7557    0.8275 H   0  0  0  0  0  0  0  0  0  0  0  0
   -2.1869   -2.3522    1.3045 H   0  0  0  0  0  0  0  0  0  0  0  0
   -3.9731   -2.0917   -0.3730 H   0  0  0  0  0  0  0  0  0  0  0  0
   -2.1854   -0.3945   -0.3167 H   0  0  0  0  0  0  0  0  0  0  0  0
   -2.8917   -1.1443   -3.1888 H   0  0  0  0  0  0  0  0  0  0  0  0
   -3.9790   -0.2833   -2.0731 H   0  0  0  0  0  0  0  0  0  0  0  0
   -2.7071    1.2262   -3.4183 H   0  0  0  0  0  0  0  0  0  0  0  0
   -3.5224   -4.0969   -1.5949 H   0  0  0  0  0  0  0  0  0  0  0  0
   -2.4370   -4.7197    1.5379 H   0  0  0  0  0  0  0  0  0  0  0  0
    0.0599   -4.5054   -1.4259 H   0  0  0  0  0  0  0  0  0  0  0  0
    2.4273   -2.3710    0.4470 H   0  0  0  0  0  0  0  0  0  0  0  0
    6.8686   -3.3700    0.0542 H   0  0  0  0  0  0  0  0  0  0  0  0
    5.2380    4.9958    0.5641 H   0  0  0  0  0  0  0  0  0  0  0  0
  1  2  1  0  0  0  0
  2  3  1  0  0  0  0
  3  4  2  0  0  0  0
  4  5  1  0  0  0  0
  5  6  2  0  0  0  0
  6  7  1  0  0  0  0
  7  8  2  0  0  0  0
  3  8  1  0  0  0  0
  8  9  1  0  0  0  0
  7 10  1  0  0  0  0
 10 11  1  0  0  0  0
  5 12  1  0  0  0  0
 12 13  2  0  0  0  0
 13 14  1  0  0  0  0
 14 15  2  0  0  0  0
 15 16  1  0  0  0  0
 16 17  2  0  0  0  0
 17 18  1  0  0  0  0
 18 19  2  0  0  0  0
 14 19  1  0  0  0  0
 19 20  1  0  0  0  0
 20 21  2  0  0  0  0
 12 21  1  0  0  0  0
 21 22  1  0  0  0  0
 22 23  1  0  0  0  0
 23 24  1  0  0  0  0
 24 25  1  0  0  0  0
 25 26  1  0  0  0  0
 26 27  1  0  0  0  0
 27 28  1  0  0  0  0
 23 28  1  0  0  0  0
 27 29  1  0  0  0  0
 29 30  1  0  0  0  0
 26 31  1  0  0  0  0
 25 32  1  0  0  0  0
 24 33  1  0  0  0  0
 20 34  1  0  0  0  0
 34 35  2  0  0  0  0
 35 36  1  0  0  0  0
 18 36  1  0  0  0  0
 35 37  1  0  0  0  0
 37 38  2  0  0  0  0
 37 39  1  0  0  0  0
 16 40  1  0  0  0  0
  1 41  1  0  0  0  0
  1 42  1  0  0  0  0
  1 43  1  0  0  0  0
  4 44  1  0  0  0  0
  6 45  1  0  0  0  0
  9 46  1  0  0  0  0
 11 47  1  0  0  0  0
 11 48  1  0  0  0  0
 11 49  1  0  0  0  0
 15 50  1  0  0  0  0
 17 51  1  0  0  0  0
 23 52  1  0  0  0  0
 24 53  1  0  0  0  0
 25 54  1  0  0  0  0
 26 55  1  0  0  0  0
 27 56  1  0  0  0  0
 29 57  1  0  0  0  0
 29 58  1  0  0  0  0
 30 59  1  0  0  0  0
 31 60  1  0  0  0  0
 32 61  1  0  0  0  0
 33 62  1  0  0  0  0
 34 63  1  0  0  0  0
 39 64  1  0  0  0  0
 40 65  1  0  0  0  0
M  CHG  1  13   1
M  END
$$$$
