C17H22O3
APtclcactv06291803063D 0   0.00000     0.00000
 
 42 42  0  0  0  0  0  0  0  0999 V2000
    9.3352    0.9735    0.8034 C   0  0  0  0  0  0  0  0  0  0  0  0
    8.0351    0.2064    1.0527 C   0  0  0  0  0  0  0  0  0  0  0  0
    7.0400    0.5113   -0.0687 C   0  0  0  0  0  0  0  0  0  0  0  0
    5.7399   -0.2558    0.1806 C   0  0  0  0  0  0  0  0  0  0  0  0
    4.7448    0.0491   -0.9409 C   0  0  0  0  0  0  0  0  0  0  0  0
    3.4642   -0.7065   -0.6953 C   0  0  0  0  0  0  0  0  0  0  0  0
    2.3060   -0.0535   -0.6428 C   0  0  0  0  0  0  0  0  0  0  0  0
    1.0552   -0.7915   -0.4030 C   0  0  0  0  0  0  0  0  0  0  0  0
    1.0803   -2.0002   -0.2525 O   0  0  0  0  0  0  0  0  0  0  0  0
   -0.2171   -0.0742   -0.3453 C   0  0  0  0  0  0  0  0  0  0  0  0
   -1.3660   -0.7521   -0.1249 C   0  0  0  0  0  0  0  0  0  0  0  0
   -2.6446   -0.0312   -0.0670 C   0  0  0  0  0  0  0  0  0  0  0  0
   -3.8357   -0.7312    0.1611 C   0  0  0  0  0  0  0  0  0  0  0  0
   -5.0342   -0.0479    0.2144 C   0  0  0  0  0  0  0  0  0  0  0  0
   -5.0570    1.3358    0.0410 C   0  0  0  0  0  0  0  0  0  0  0  0
   -3.8762    2.0311   -0.1853 C   0  0  0  0  0  0  0  0  0  0  0  0
   -2.6753    1.3587   -0.2339 C   0  0  0  0  0  0  0  0  0  0  0  0
   -6.2375    2.0052    0.0931 O   0  0  0  0  0  0  0  0  0  0  0  0
   -6.1930   -0.7244    0.4357 O   0  0  0  0  0  0  0  0  0  0  0  0
   -6.0958   -2.1401    0.6040 C   0  0  0  0  0  0  0  0  0  0  0  0
    9.1276    2.0433    0.7829 H   0  0  0  0  0  0  0  0  0  0  0  0
   10.0442    0.7562    1.6024 H   0  0  0  0  0  0  0  0  0  0  0  0
    9.7601    0.6673   -0.1525 H   0  0  0  0  0  0  0  0  0  0  0  0
    8.2427   -0.8635    1.0733 H   0  0  0  0  0  0  0  0  0  0  0  0
    7.6102    0.5125    2.0087 H   0  0  0  0  0  0  0  0  0  0  0  0
    6.8324    1.5811   -0.0893 H   0  0  0  0  0  0  0  0  0  0  0  0
    7.4649    0.2052   -1.0247 H   0  0  0  0  0  0  0  0  0  0  0  0
    5.9475   -1.3257    0.2012 H   0  0  0  0  0  0  0  0  0  0  0  0
    5.3150    0.0503    1.1365 H   0  0  0  0  0  0  0  0  0  0  0  0
    4.5371    1.1189   -0.9615 H   0  0  0  0  0  0  0  0  0  0  0  0
    5.1697   -0.2570   -1.8968 H   0  0  0  0  0  0  0  0  0  0  0  0
    3.4865   -1.7780   -0.5620 H   0  0  0  0  0  0  0  0  0  0  0  0
    2.2837    1.0180   -0.7761 H   0  0  0  0  0  0  0  0  0  0  0  0
   -0.2394    0.9973   -0.4786 H   0  0  0  0  0  0  0  0  0  0  0  0
   -1.3437   -1.8236    0.0084 H   0  0  0  0  0  0  0  0  0  0  0  0
   -3.8170   -1.8028    0.2945 H   0  0  0  0  0  0  0  0  0  0  0  0
   -3.8993    3.1025   -0.3193 H   0  0  0  0  0  0  0  0  0  0  0  0
   -1.7586    1.9020   -0.4099 H   0  0  0  0  0  0  0  0  0  0  0  0
   -6.4781    2.3099    0.9787 H   0  0  0  0  0  0  0  0  0  0  0  0
   -5.6644   -2.5839   -0.2932 H   0  0  0  0  0  0  0  0  0  0  0  0
   -5.4594   -2.3613    1.4608 H   0  0  0  0  0  0  0  0  0  0  0  0
   -7.0895   -2.5550    0.7728 H   0  0  0  0  0  0  0  0  0  0  0  0
  1  2  1  0  0  0  0
  2  3  1  0  0  0  0
  3  4  1  0  0  0  0
  4  5  1  0  0  0  0
  5  6  1  0  0  0  0
  6  7  2  0  0  0  0
  7  8  1  0  0  0  0
  8  9  2  0  0  0  0
  8 10  1  0  0  0  0
 10 11  2  0  0  0  0
 11 12  1  0  0  0  0
 12 13  2  0  0  0  0
 13 14  1  0  0  0  0
 14 15  2  0  0  0  0
 15 16  1  0  0  0  0
 16 17  2  0  0  0  0
 12 17  1  0  0  0  0
 15 18  1  0  0  0  0
 14 19  1  0  0  0  0
 19 20  1  0  0  0  0
  1 21  1  0  0  0  0
  1 22  1  0  0  0  0
  1 23  1  0  0  0  0
  2 24  1  0  0  0  0
  2 25  1  0  0  0  0
  3 26  1  0  0  0  0
  3 27  1  0  0  0  0
  4 28  1  0  0  0  0
  4 29  1  0  0  0  0
  5 30  1  0  0  0  0
  5 31  1  0  0  0  0
  6 32  1  0  0  0  0
  7 33  1  0  0  0  0
 10 34  1  0  0  0  0
 11 35  1  0  0  0  0
 13 36  1  0  0  0  0
 16 37  1  0  0  0  0
 17 38  1  0  0  0  0
 18 39  1  0  0  0  0
 20 40  1  0  0  0  0
 20 41  1  0  0  0  0
 20 42  1  0  0  0  0
M  END
$$$$
