C29H28O5
APtclcactv06291803063D 0   0.00000     0.00000
 
 62 65  0  0  0  0  0  0  0  0999 V2000
   -2.2172    1.7934    3.6831 C   0  0  0  0  0  0  0  0  0  0  0  0
   -2.7037    0.8261    2.7505 O   0  0  0  0  0  0  0  0  0  0  0  0
   -1.8262    0.3733    1.8169 C   0  0  0  0  0  0  0  0  0  0  0  0
   -2.2317   -0.5658    0.8815 C   0  0  0  0  0  0  0  0  0  0  0  0
   -1.3340   -1.0259   -0.0698 C   0  0  0  0  0  0  0  0  0  0  0  0
   -0.0324   -0.5455   -0.0833 C   0  0  0  0  0  0  0  0  0  0  0  0
    0.3697    0.3904    0.8507 C   0  0  0  0  0  0  0  0  0  0  0  0
   -0.5247    0.8550    1.7957 C   0  0  0  0  0  0  0  0  0  0  0  0
    1.7841    0.9101    0.8341 C   0  0  0  0  0  0  0  0  0  0  0  0
    1.8892    2.0713   -0.1566 C   0  0  0  0  0  0  0  0  0  0  0  0
    3.3087    2.5764   -0.1898 C   0  0  0  0  0  0  0  0  0  0  0  0
    4.1927    2.0890   -1.1325 C   0  0  0  0  0  0  0  0  0  0  0  0
    5.4993    2.5548   -1.1628 C   0  0  0  0  0  0  0  0  0  0  0  0
    5.9144    3.5091   -0.2458 C   0  0  0  0  0  0  0  0  0  0  0  0
    5.0263    3.9936    0.6952 C   0  0  0  0  0  0  0  0  0  0  0  0
    3.7235    3.5317    0.7200 C   0  0  0  0  0  0  0  0  0  0  0  0
    6.3711    2.0764   -2.0891 O   0  0  0  0  0  0  0  0  0  0  0  0
    0.9439   -1.0451   -1.1169 C   0  0  0  0  0  0  0  0  0  0  0  0
    1.5799   -2.3221   -0.6313 C   0  0  0  0  0  0  0  0  0  0  0  0
    0.9358   -3.5304   -0.8231 C   0  0  0  0  0  0  0  0  0  0  0  0
    1.5168   -4.7024   -0.3789 C   0  0  0  0  0  0  0  0  0  0  0  0
    2.7476   -4.6662    0.2602 C   0  0  0  0  0  0  0  0  0  0  0  0
    3.3919   -3.4526    0.4514 C   0  0  0  0  0  0  0  0  0  0  0  0
    2.8093   -2.2840    0.0003 C   0  0  0  0  0  0  0  0  0  0  0  0
    3.3210   -5.8177    0.6985 O   0  0  0  0  0  0  0  0  0  0  0  0
   -1.7286   -1.9469   -0.9879 O   0  0  0  0  0  0  0  0  0  0  0  0
   -3.6459   -1.0862    0.8987 C   0  0  0  0  0  0  0  0  0  0  0  0
   -4.5126   -0.2147    0.0267 C   0  0  0  0  0  0  0  0  0  0  0  0
   -4.6639   -0.5139   -1.3146 C   0  0  0  0  0  0  0  0  0  0  0  0
   -5.4578    0.2834   -2.1161 C   0  0  0  0  0  0  0  0  0  0  0  0
   -6.1035    1.3852   -1.5740 C   0  0  0  0  0  0  0  0  0  0  0  0
   -5.9500    1.6833   -0.2278 C   0  0  0  0  0  0  0  0  0  0  0  0
   -5.1595    0.8795    0.5706 C   0  0  0  0  0  0  0  0  0  0  0  0
   -6.8847    2.1714   -2.3605 O   0  0  0  0  0  0  0  0  0  0  0  0
   -1.3846    1.3698    4.2448 H   0  0  0  0  0  0  0  0  0  0  0  0
   -1.8792    2.6790    3.1449 H   0  0  0  0  0  0  0  0  0  0  0  0
   -3.0165    2.0692    4.3709 H   0  0  0  0  0  0  0  0  0  0  0  0
   -0.2081    1.5864    2.5246 H   0  0  0  0  0  0  0  0  0  0  0  0
    2.0553    1.2574    1.8311 H   0  0  0  0  0  0  0  0  0  0  0  0
    2.4611    0.1114    0.5309 H   0  0  0  0  0  0  0  0  0  0  0  0
    1.6024    1.7280   -1.1505 H   0  0  0  0  0  0  0  0  0  0  0  0
    1.2242    2.8766    0.1557 H   0  0  0  0  0  0  0  0  0  0  0  0
    3.8672    1.3456   -1.8452 H   0  0  0  0  0  0  0  0  0  0  0  0
    6.9310    3.8730   -0.2672 H   0  0  0  0  0  0  0  0  0  0  0  0
    5.3490    4.7366    1.4094 H   0  0  0  0  0  0  0  0  0  0  0  0
    3.0308    3.9116    1.4564 H   0  0  0  0  0  0  0  0  0  0  0  0
    6.3820    2.5788   -2.9153 H   0  0  0  0  0  0  0  0  0  0  0  0
    0.4174   -1.2343   -2.0524 H   0  0  0  0  0  0  0  0  0  0  0  0
    1.7163   -0.2937   -1.2803 H   0  0  0  0  0  0  0  0  0  0  0  0
   -0.0225   -3.5580   -1.3204 H   0  0  0  0  0  0  0  0  0  0  0  0
    1.0131   -5.6459   -0.5287 H   0  0  0  0  0  0  0  0  0  0  0  0
    4.3501   -3.4218    0.9486 H   0  0  0  0  0  0  0  0  0  0  0  0
    3.3105   -1.3389    0.1490 H   0  0  0  0  0  0  0  0  0  0  0  0
    3.8939   -6.2447    0.0469 H   0  0  0  0  0  0  0  0  0  0  0  0
   -2.0884   -1.5639   -1.7996 H   0  0  0  0  0  0  0  0  0  0  0  0
   -3.6615   -2.1084    0.5205 H   0  0  0  0  0  0  0  0  0  0  0  0
   -4.0263   -1.0709    1.9201 H   0  0  0  0  0  0  0  0  0  0  0  0
   -4.1608   -1.3716   -1.7363 H   0  0  0  0  0  0  0  0  0  0  0  0
   -5.5755    0.0495   -3.1639 H   0  0  0  0  0  0  0  0  0  0  0  0
   -6.4516    2.5404    0.1965 H   0  0  0  0  0  0  0  0  0  0  0  0
   -5.0397    1.1111    1.6187 H   0  0  0  0  0  0  0  0  0  0  0  0
   -7.8106    1.8948   -2.3970 H   0  0  0  0  0  0  0  0  0  0  0  0
  1  2  1  0  0  0  0
  2  3  1  0  0  0  0
  3  4  2  0  0  0  0
  4  5  1  0  0  0  0
  5  6  2  0  0  0  0
  6  7  1  0  0  0  0
  7  8  2  0  0  0  0
  3  8  1  0  0  0  0
  7  9  1  0  0  0  0
  9 10  1  0  0  0  0
 10 11  1  0  0  0  0
 11 12  2  0  0  0  0
 12 13  1  0  0  0  0
 13 14  2  0  0  0  0
 14 15  1  0  0  0  0
 15 16  2  0  0  0  0
 11 16  1  0  0  0  0
 13 17  1  0  0  0  0
  6 18  1  0  0  0  0
 18 19  1  0  0  0  0
 19 20  2  0  0  0  0
 20 21  1  0  0  0  0
 21 22  2  0  0  0  0
 22 23  1  0  0  0  0
 23 24  2  0  0  0  0
 19 24  1  0  0  0  0
 22 25  1  0  0  0  0
  5 26  1  0  0  0  0
  4 27  1  0  0  0  0
 27 28  1  0  0  0  0
 28 29  2  0  0  0  0
 29 30  1  0  0  0  0
 30 31  2  0  0  0  0
 31 32  1  0  0  0  0
 32 33  2  0  0  0  0
 28 33  1  0  0  0  0
 31 34  1  0  0  0  0
  1 35  1  0  0  0  0
  1 36  1  0  0  0  0
  1 37  1  0  0  0  0
  8 38  1  0  0  0  0
  9 39  1  0  0  0  0
  9 40  1  0  0  0  0
 10 41  1  0  0  0  0
 10 42  1  0  0  0  0
 12 43  1  0  0  0  0
 14 44  1  0  0  0  0
 15 45  1  0  0  0  0
 16 46  1  0  0  0  0
 17 47  1  0  0  0  0
 18 48  1  0  0  0  0
 18 49  1  0  0  0  0
 20 50  1  0  0  0  0
 21 51  1  0  0  0  0
 23 52  1  0  0  0  0
 24 53  1  0  0  0  0
 25 54  1  0  0  0  0
 26 55  1  0  0  0  0
 27 56  1  0  0  0  0
 27 57  1  0  0  0  0
 29 58  1  0  0  0  0
 30 59  1  0  0  0  0
 32 60  1  0  0  0  0
 33 61  1  0  0  0  0
 34 62  1  0  0  0  0
M  END
$$$$
