C29H32O17
APtclcactv06281817453D 0   0.00000     0.00000
 
 78 82  0  0  0  0  0  0  0  0999 V2000
    7.1506   -2.1733   -0.9420 C   0  0  0  0  0  0  0  0  0  0  0  0
    7.3732   -1.3991    0.3588 C   0  0  0  0  0  0  0  0  0  0  0  0
    8.6171   -0.5172    0.2215 C   0  0  0  0  0  0  0  0  0  0  0  0
    8.3872    0.5061   -0.8949 C   0  0  0  0  0  0  0  0  0  0  0  0
    7.1297    1.3203   -0.5753 C   0  0  0  0  0  0  0  0  0  0  0  0
    5.9433    0.3674   -0.4073 C   0  0  0  0  0  0  0  0  0  0  0  0
    6.2350   -0.5770    0.6248 O   0  0  0  0  0  0  0  0  0  0  0  0
    4.7780    1.1150   -0.0537 O   0  0  0  0  0  0  0  0  0  0  0  0
    3.6088    0.4303    0.0316 C   0  0  0  0  0  0  0  0  0  0  0  0
    3.5916   -0.9368   -0.2221 C   0  0  0  0  0  0  0  0  0  0  0  0
    2.4066   -1.6441   -0.1378 C   0  0  0  0  0  0  0  0  0  0  0  0
    1.2256   -0.9732    0.2048 C   0  0  0  0  0  0  0  0  0  0  0  0
    1.2459    0.4092    0.4608 C   0  0  0  0  0  0  0  0  0  0  0  0
    2.4449    1.0999    0.3762 C   0  0  0  0  0  0  0  0  0  0  0  0
    0.1035    1.0482    0.7893 O   0  0  0  0  0  0  0  0  0  0  0  0
   -1.0753    0.4095    0.8844 C   0  0  0  0  0  0  0  0  0  0  0  0
   -1.2023   -0.9279    0.6568 C   0  0  0  0  0  0  0  0  0  0  0  0
   -0.0569   -1.6880    0.3050 C   0  0  0  0  0  0  0  0  0  0  0  0
   -0.1324   -2.8879    0.0935 O   0  0  0  0  0  0  0  0  0  0  0  0
   -2.4180   -1.5299    0.7659 O   0  0  0  0  0  0  0  0  0  0  0  0
   -2.9479   -2.1402   -0.4125 C   0  0  0  0  0  0  0  0  0  0  0  0
   -4.1230   -3.0456   -0.0343 C   0  0  0  0  0  0  0  0  0  0  0  0
   -5.2339   -2.1942    0.5879 C   0  0  0  0  0  0  0  0  0  0  0  0
   -5.6393   -1.0995   -0.4039 C   0  0  0  0  0  0  0  0  0  0  0  0
   -4.4056   -0.2692   -0.7678 C   0  0  0  0  0  0  0  0  0  0  0  0
   -3.4000   -1.1261   -1.3122 O   0  0  0  0  0  0  0  0  0  0  0  0
   -4.7902    0.7887   -1.8041 C   0  0  0  0  0  0  0  0  0  0  0  0
   -3.6506    1.6510   -2.0613 O   0  0  0  0  0  0  0  0  0  0  0  0
   -3.8231    2.6389   -2.9535 C   0  0  0  0  0  0  0  0  0  0  0  0
   -4.8908    2.7785   -3.5014 O   0  0  0  0  0  0  0  0  0  0  0  0
   -2.6849    3.5739   -3.2718 C   0  0  0  0  0  0  0  0  0  0  0  0
   -6.1762   -1.6997   -1.5844 O   0  0  0  0  0  0  0  0  0  0  0  0
   -6.3639   -3.0198    0.8769 O   0  0  0  0  0  0  0  0  0  0  0  0
   -4.6197   -3.6974   -1.2050 O   0  0  0  0  0  0  0  0  0  0  0  0
   -2.2754    1.1847    1.2490 C   0  0  0  0  0  0  0  0  0  0  0  0
   -3.1408    0.7118    2.2395 C   0  0  0  0  0  0  0  0  0  0  0  0
   -4.2638    1.4425    2.5776 C   0  0  0  0  0  0  0  0  0  0  0  0
   -4.5317    2.6478    1.9312 C   0  0  0  0  0  0  0  0  0  0  0  0
   -3.6728    3.1174    0.9473 C   0  0  0  0  0  0  0  0  0  0  0  0
   -2.5474    2.3971    0.6090 C   0  0  0  0  0  0  0  0  0  0  0  0
   -5.6367    3.3647    2.2648 O   0  0  0  0  0  0  0  0  0  0  0  0
   -5.1079    0.9853    3.5409 O   0  0  0  0  0  0  0  0  0  0  0  0
    2.3878   -2.9784   -0.3854 O   0  0  0  0  0  0  0  0  0  0  0  0
    7.3297    2.0521    0.6357 O   0  0  0  0  0  0  0  0  0  0  0  0
    9.5140    1.3808   -0.9811 O   0  0  0  0  0  0  0  0  0  0  0  0
    8.8564    0.1660    1.4536 O   0  0  0  0  0  0  0  0  0  0  0  0
    8.0193   -2.7995   -1.1453 H   0  0  0  0  0  0  0  0  0  0  0  0
    6.2650   -2.8011   -0.8441 H   0  0  0  0  0  0  0  0  0  0  0  0
    7.0090   -1.4707   -1.7632 H   0  0  0  0  0  0  0  0  0  0  0  0
    7.5145   -2.1015    1.1802 H   0  0  0  0  0  0  0  0  0  0  0  0
    9.4784   -1.1380   -0.0251 H   0  0  0  0  0  0  0  0  0  0  0  0
    8.2539   -0.0134   -1.8439 H   0  0  0  0  0  0  0  0  0  0  0  0
    6.9273    2.0135   -1.3918 H   0  0  0  0  0  0  0  0  0  0  0  0
    5.7660   -0.1611   -1.3440 H   0  0  0  0  0  0  0  0  0  0  0  0
    4.5060   -1.4473   -0.4860 H   0  0  0  0  0  0  0  0  0  0  0  0
    2.4709    2.1619    0.5710 H   0  0  0  0  0  0  0  0  0  0  0  0
   -2.1716   -2.7344   -0.8946 H   0  0  0  0  0  0  0  0  0  0  0  0
   -3.7899   -3.7928    0.6860 H   0  0  0  0  0  0  0  0  0  0  0  0
   -4.8704   -1.7363    1.5079 H   0  0  0  0  0  0  0  0  0  0  0  0
   -6.3907   -0.4549    0.0522 H   0  0  0  0  0  0  0  0  0  0  0  0
   -4.0205    0.2208    0.1264 H   0  0  0  0  0  0  0  0  0  0  0  0
   -5.0908    0.2981   -2.7298 H   0  0  0  0  0  0  0  0  0  0  0  0
   -5.6190    1.3857   -1.4235 H   0  0  0  0  0  0  0  0  0  0  0  0
   -1.8461    3.0029   -3.6700 H   0  0  0  0  0  0  0  0  0  0  0  0
   -3.0110    4.3046   -4.0120 H   0  0  0  0  0  0  0  0  0  0  0  0
   -2.3742    4.0905   -2.3636 H   0  0  0  0  0  0  0  0  0  0  0  0
   -6.9588   -2.2455   -1.4270 H   0  0  0  0  0  0  0  0  0  0  0  0
   -6.1772   -3.7398    1.4947 H   0  0  0  0  0  0  0  0  0  0  0  0
   -3.9938   -4.3155   -1.6066 H   0  0  0  0  0  0  0  0  0  0  0  0
   -2.9325   -0.2227    2.7392 H   0  0  0  0  0  0  0  0  0  0  0  0
   -3.8847    4.0516    0.4484 H   0  0  0  0  0  0  0  0  0  0  0  0
   -1.8806    2.7651   -0.1567 H   0  0  0  0  0  0  0  0  0  0  0  0
   -5.4908    4.0047    2.9748 H   0  0  0  0  0  0  0  0  0  0  0  0
   -4.8860    1.2854    4.4330 H   0  0  0  0  0  0  0  0  0  0  0  0
    2.5391   -3.5258    0.3972 H   0  0  0  0  0  0  0  0  0  0  0  0
    6.5714    2.5913    0.8991 H   0  0  0  0  0  0  0  0  0  0  0  0
    9.4362    2.0558   -1.6691 H   0  0  0  0  0  0  0  0  0  0  0  0
    9.0057   -0.4218    2.2067 H   0  0  0  0  0  0  0  0  0  0  0  0
  1  2  1  0  0  0  0
  2  3  1  0  0  0  0
  3  4  1  0  0  0  0
  4  5  1  0  0  0  0
  5  6  1  0  0  0  0
  6  7  1  0  0  0  0
  2  7  1  0  0  0  0
  6  8  1  0  0  0  0
  8  9  1  0  0  0  0
  9 10  2  0  0  0  0
 10 11  1  0  0  0  0
 11 12  2  0  0  0  0
 12 13  1  0  0  0  0
 13 14  2  0  0  0  0
  9 14  1  0  0  0  0
 13 15  1  0  0  0  0
 15 16  1  0  0  0  0
 16 17  2  0  0  0  0
 17 18  1  0  0  0  0
 12 18  1  0  0  0  0
 18 19  2  0  0  0  0
 17 20  1  0  0  0  0
 20 21  1  0  0  0  0
 21 22  1  0  0  0  0
 22 23  1  0  0  0  0
 23 24  1  0  0  0  0
 24 25  1  0  0  0  0
 25 26  1  0  0  0  0
 21 26  1  0  0  0  0
 25 27  1  0  0  0  0
 27 28  1  0  0  0  0
 28 29  1  0  0  0  0
 29 30  2  0  0  0  0
 29 31  1  0  0  0  0
 24 32  1  0  0  0  0
 23 33  1  0  0  0  0
 22 34  1  0  0  0  0
 16 35  1  0  0  0  0
 35 36  2  0  0  0  0
 36 37  1  0  0  0  0
 37 38  2  0  0  0  0
 38 39  1  0  0  0  0
 39 40  2  0  0  0  0
 35 40  1  0  0  0  0
 38 41  1  0  0  0  0
 37 42  1  0  0  0  0
 11 43  1  0  0  0  0
  5 44  1  0  0  0  0
  4 45  1  0  0  0  0
  3 46  1  0  0  0  0
  1 47  1  0  0  0  0
  1 48  1  0  0  0  0
  1 49  1  0  0  0  0
  2 50  1  0  0  0  0
  3 51  1  0  0  0  0
  4 52  1  0  0  0  0
  5 53  1  0  0  0  0
  6 54  1  0  0  0  0
 10 55  1  0  0  0  0
 14 56  1  0  0  0  0
 21 57  1  0  0  0  0
 22 58  1  0  0  0  0
 23 59  1  0  0  0  0
 24 60  1  0  0  0  0
 25 61  1  0  0  0  0
 27 62  1  0  0  0  0
 27 63  1  0  0  0  0
 31 64  1  0  0  0  0
 31 65  1  0  0  0  0
 31 66  1  0  0  0  0
 32 67  1  0  0  0  0
 33 68  1  0  0  0  0
 34 69  1  0  0  0  0
 36 70  1  0  0  0  0
 39 71  1  0  0  0  0
 40 72  1  0  0  0  0
 41 73  1  0  0  0  0
 42 74  1  0  0  0  0
 43 75  1  0  0  0  0
 44 76  1  0  0  0  0
 45 77  1  0  0  0  0
 46 78  1  0  0  0  0
M  END
$$$$
