C19H21NO3
APtclcactv06281817273D 0   0.00000     0.00000
 
 44 46  0  0  0  0  0  0  0  0999 V2000
   -8.0770    1.3961    0.2948 C   0  0  0  0  0  0  0  0  0  0  0  0
   -8.0182   -0.1105    0.5571 C   0  0  0  0  0  0  0  0  0  0  0  0
   -7.0549   -0.7612   -0.4406 C   0  0  0  0  0  0  0  0  0  0  0  0
   -5.7547   -0.0824   -0.3541 N   0  0  0  0  0  0  0  0  0  0  0  0
   -5.7094    1.3787   -0.5013 C   0  0  0  0  0  0  0  0  0  0  0  0
   -6.6878    2.0054    0.4971 C   0  0  0  0  0  0  0  0  0  0  0  0
   -4.6251   -0.7867   -0.1433 C   0  0  0  0  0  0  0  0  0  0  0  0
   -4.6852   -1.9839    0.0733 O   0  0  0  0  0  0  0  0  0  0  0  0
   -3.3708   -0.1362   -0.1734 C   0  0  0  0  0  0  0  0  0  0  0  0
   -2.2248   -0.8621   -0.0616 C   0  0  0  0  0  0  0  0  0  0  0  0
   -0.9773   -0.2151   -0.0916 C   0  0  0  0  0  0  0  0  0  0  0  0
    0.1694   -0.9414    0.0203 C   0  0  0  0  0  0  0  0  0  0  0  0
    1.4193   -0.2932   -0.0097 C   0  0  0  0  0  0  0  0  0  0  0  0
    2.5604   -1.0160    0.1017 C   0  0  0  0  0  0  0  0  0  0  0  0
    3.8637   -0.3401    0.0703 C   0  0  0  0  0  0  0  0  0  0  0  0
    5.0441   -1.0844    0.1852 C   0  0  0  0  0  0  0  0  0  0  0  0
    6.2670   -0.4438    0.1552 C   0  0  0  0  0  0  0  0  0  0  0  0
    6.3251    0.9434    0.0107 C   0  0  0  0  0  0  0  0  0  0  0  0
    5.1543    1.6820   -0.1029 C   0  0  0  0  0  0  0  0  0  0  0  0
    3.9306    1.0506   -0.0803 C   0  0  0  0  0  0  0  0  0  0  0  0
    7.6347    1.3257    0.0111 O   0  0  0  0  0  0  0  0  0  0  0  0
    8.3862    0.1270   -0.2554 C   0  0  0  0  0  0  0  0  0  0  0  0
    7.5412   -0.9259    0.2451 O   0  0  0  0  0  0  0  0  0  0  0  0
   -8.4060    1.5739   -0.7290 H   0  0  0  0  0  0  0  0  0  0  0  0
   -8.7805    1.8581    0.9875 H   0  0  0  0  0  0  0  0  0  0  0  0
   -7.6656   -0.2895    1.5728 H   0  0  0  0  0  0  0  0  0  0  0  0
   -9.0126   -0.5400    0.4357 H   0  0  0  0  0  0  0  0  0  0  0  0
   -6.9332   -1.8164   -0.1960 H   0  0  0  0  0  0  0  0  0  0  0  0
   -7.4526   -0.6616   -1.4506 H   0  0  0  0  0  0  0  0  0  0  0  0
   -4.7000    1.7355   -0.2968 H   0  0  0  0  0  0  0  0  0  0  0  0
   -5.9974    1.6528   -1.5162 H   0  0  0  0  0  0  0  0  0  0  0  0
   -6.7353    3.0820    0.3330 H   0  0  0  0  0  0  0  0  0  0  0  0
   -6.3477    1.8065    1.5134 H   0  0  0  0  0  0  0  0  0  0  0  0
   -3.3215    0.9369   -0.2852 H   0  0  0  0  0  0  0  0  0  0  0  0
   -2.2741   -1.9351    0.0502 H   0  0  0  0  0  0  0  0  0  0  0  0
   -0.9281    0.8580   -0.2033 H   0  0  0  0  0  0  0  0  0  0  0  0
    0.1201   -2.0145    0.1321 H   0  0  0  0  0  0  0  0  0  0  0  0
    1.4685    0.7799   -0.1215 H   0  0  0  0  0  0  0  0  0  0  0  0
    2.5112   -2.0891    0.2134 H   0  0  0  0  0  0  0  0  0  0  0  0
    4.9982   -2.1576    0.2974 H   0  0  0  0  0  0  0  0  0  0  0  0
    5.2039    2.7551   -0.2143 H   0  0  0  0  0  0  0  0  0  0  0  0
    3.0227    1.6287   -0.1692 H   0  0  0  0  0  0  0  0  0  0  0  0
    8.5514    0.0088   -1.3263 H   0  0  0  0  0  0  0  0  0  0  0  0
    9.3355    0.1432    0.2800 H   0  0  0  0  0  0  0  0  0  0  0  0
  1  2  1  0  0  0  0
  2  3  1  0  0  0  0
  3  4  1  0  0  0  0
  4  5  1  0  0  0  0
  5  6  1  0  0  0  0
  1  6  1  0  0  0  0
  4  7  1  0  0  0  0
  7  8  2  0  0  0  0
  7  9  1  0  0  0  0
  9 10  2  0  0  0  0
 10 11  1  0  0  0  0
 11 12  2  0  0  0  0
 12 13  1  0  0  0  0
 13 14  2  0  0  0  0
 14 15  1  0  0  0  0
 15 16  2  0  0  0  0
 16 17  1  0  0  0  0
 17 18  2  0  0  0  0
 18 19  1  0  0  0  0
 19 20  2  0  0  0  0
 15 20  1  0  0  0  0
 18 21  1  0  0  0  0
 21 22  1  0  0  0  0
 22 23  1  0  0  0  0
 17 23  1  0  0  0  0
  1 24  1  0  0  0  0
  1 25  1  0  0  0  0
  2 26  1  0  0  0  0
  2 27  1  0  0  0  0
  3 28  1  0  0  0  0
  3 29  1  0  0  0  0
  5 30  1  0  0  0  0
  5 31  1  0  0  0  0
  6 32  1  0  0  0  0
  6 33  1  0  0  0  0
  9 34  1  0  0  0  0
 10 35  1  0  0  0  0
 11 36  1  0  0  0  0
 12 37  1  0  0  0  0
 13 38  1  0  0  0  0
 14 39  1  0  0  0  0
 16 40  1  0  0  0  0
 19 41  1  0  0  0  0
 20 42  1  0  0  0  0
 22 43  1  0  0  0  0
 22 44  1  0  0  0  0
M  END
$$$$
