C18H32O16
APtclcactv06211806353D 0   0.00000     0.00000
 
 66 68  0  0  0  0  0  0  0  0999 V2000
    6.0147    0.6419   -1.5877 C   0  0  0  0  0  0  0  0  0  0  0  0
    5.3173   -0.3490   -0.6535 C   0  0  0  0  0  0  0  0  0  0  0  0
    5.2208    0.2290    0.7814 C   0  0  0  0  0  0  0  0  0  0  0  0
    4.0076   -0.5395    1.3596 C   0  0  0  0  0  0  0  0  0  0  0  0
    3.2401   -1.0253    0.1147 C   0  0  0  0  0  0  0  0  0  0  0  0
    3.9372   -0.5260   -1.0389 O   0  0  0  0  0  0  0  0  0  0  0  0
    3.2127   -2.5547    0.0845 C   0  0  0  0  0  0  0  0  0  0  0  0
    2.4227   -2.9952   -1.0218 O   0  0  0  0  0  0  0  0  0  0  0  0
    1.9062   -0.5131    0.1358 O   0  0  0  0  0  0  0  0  0  0  0  0
    1.8314    0.9139    0.1305 C   0  0  0  0  0  0  0  0  0  0  0  0
    0.3714    1.3487    0.2737 C   0  0  0  0  0  0  0  0  0  0  0  0
    0.3015    2.8739    0.3858 C   0  0  0  0  0  0  0  0  0  0  0  0
   -1.1659    3.3053    0.4682 C   0  0  0  0  0  0  0  0  0  0  0  0
   -1.9115    2.7779   -0.7616 C   0  0  0  0  0  0  0  0  0  0  0  0
   -1.7562    1.2564   -0.8293 C   0  0  0  0  0  0  0  0  0  0  0  0
   -0.3674    0.9222   -0.8727 O   0  0  0  0  0  0  0  0  0  0  0  0
   -2.3528    0.6645    0.3264 O   0  0  0  0  0  0  0  0  0  0  0  0
   -2.7116   -0.7083    0.1568 C   0  0  0  0  0  0  0  0  0  0  0  0
   -3.3764   -1.2529    1.4404 C   0  0  0  0  0  0  0  0  0  0  0  0
   -4.8900   -1.0850    1.1796 C   0  0  0  0  0  0  0  0  0  0  0  0
   -4.9606   -0.4587   -0.2308 C   0  0  0  0  0  0  0  0  0  0  0  0
   -3.7217   -0.8412   -0.8668 O   0  0  0  0  0  0  0  0  0  0  0  0
   -6.1534   -1.0232   -1.0051 C   0  0  0  0  0  0  0  0  0  0  0  0
   -6.2695   -0.3484   -2.2594 O   0  0  0  0  0  0  0  0  0  0  0  0
   -5.5451   -2.3549    1.1969 O   0  0  0  0  0  0  0  0  0  0  0  0
   -3.0504   -2.6317    1.6268 O   0  0  0  0  0  0  0  0  0  0  0  0
   -1.4776   -1.5403   -0.1981 C   0  0  0  0  0  0  0  0  0  0  0  0
   -1.0035   -1.1613   -1.4918 O   0  0  0  0  0  0  0  0  0  0  0  0
   -3.2971    3.1124   -0.6597 O   0  0  0  0  0  0  0  0  0  0  0  0
   -1.7567    2.7667    1.6527 O   0  0  0  0  0  0  0  0  0  0  0  0
    0.9909    3.2983    1.5633 O   0  0  0  0  0  0  0  0  0  0  0  0
    4.4467   -1.6517    2.1420 O   0  0  0  0  0  0  0  0  0  0  0  0
    6.4066   -0.0552    1.5265 O   0  0  0  0  0  0  0  0  0  0  0  0
    6.1948    0.0405   -2.8714 O   0  0  0  0  0  0  0  0  0  0  0  0
    5.4027    1.5382   -1.6890 H   0  0  0  0  0  0  0  0  0  0  0  0
    6.9862    0.9104   -1.1727 H   0  0  0  0  0  0  0  0  0  0  0  0
    5.8424   -1.3042   -0.6481 H   0  0  0  0  0  0  0  0  0  0  0  0
    5.0262    1.3012    0.7566 H   0  0  0  0  0  0  0  0  0  0  0  0
    3.3840    0.1258    1.9567 H   0  0  0  0  0  0  0  0  0  0  0  0
    4.2290   -2.9343   -0.0208 H   0  0  0  0  0  0  0  0  0  0  0  0
    2.7794   -2.9288    1.0121 H   0  0  0  0  0  0  0  0  0  0  0  0
    2.3611   -3.9568   -1.1031 H   0  0  0  0  0  0  0  0  0  0  0  0
    2.4121    1.3113    0.9629 H   0  0  0  0  0  0  0  0  0  0  0  0
    2.2337    1.2954   -0.8080 H   0  0  0  0  0  0  0  0  0  0  0  0
   -0.0557    0.8984    1.1698 H   0  0  0  0  0  0  0  0  0  0  0  0
    0.7651    3.3252   -0.4914 H   0  0  0  0  0  0  0  0  0  0  0  0
   -1.2253    4.3934    0.4918 H   0  0  0  0  0  0  0  0  0  0  0  0
   -1.4926    3.2273   -1.6620 H   0  0  0  0  0  0  0  0  0  0  0  0
   -2.2488    0.8803   -1.7259 H   0  0  0  0  0  0  0  0  0  0  0  0
   -3.0708   -0.6667    2.3071 H   0  0  0  0  0  0  0  0  0  0  0  0
   -5.3327   -0.4157    1.9173 H   0  0  0  0  0  0  0  0  0  0  0  0
   -5.0319    0.6267   -0.1608 H   0  0  0  0  0  0  0  0  0  0  0  0
   -6.0026   -2.0887   -1.1784 H   0  0  0  0  0  0  0  0  0  0  0  0
   -7.0652   -0.8746   -0.4268 H   0  0  0  0  0  0  0  0  0  0  0  0
   -7.0065   -0.6559   -2.8047 H   0  0  0  0  0  0  0  0  0  0  0  0
   -6.4978   -2.3082    1.0385 H   0  0  0  0  0  0  0  0  0  0  0  0
   -3.4420   -3.0249    2.4188 H   0  0  0  0  0  0  0  0  0  0  0  0
   -0.6960   -1.3645    0.5411 H   0  0  0  0  0  0  0  0  0  0  0  0
   -1.7416   -2.5978   -0.2033 H   0  0  0  0  0  0  0  0  0  0  0  0
   -0.2701   -1.7018   -1.8158 H   0  0  0  0  0  0  0  0  0  0  0  0
   -3.8310    2.8085   -1.4065 H   0  0  0  0  0  0  0  0  0  0  0  0
   -2.6877    3.0007    1.7692 H   0  0  0  0  0  0  0  0  0  0  0  0
    0.9867    4.2558    1.6979 H   0  0  0  0  0  0  0  0  0  0  0  0
    4.9848   -1.4063    2.9071 H   0  0  0  0  0  0  0  0  0  0  0  0
    7.2094    0.3311    1.1505 H   0  0  0  0  0  0  0  0  0  0  0  0
    6.6321    0.6133   -3.5162 H   0  0  0  0  0  0  0  0  0  0  0  0
  1  2  1  0  0  0  0
  2  3  1  0  0  0  0
  3  4  1  0  0  0  0
  4  5  1  0  0  0  0
  5  6  1  0  0  0  0
  2  6  1  0  0  0  0
  5  7  1  0  0  0  0
  7  8  1  0  0  0  0
  5  9  1  0  0  0  0
  9 10  1  0  0  0  0
 10 11  1  0  0  0  0
 11 12  1  0  0  0  0
 12 13  1  0  0  0  0
 13 14  1  0  0  0  0
 14 15  1  0  0  0  0
 15 16  1  0  0  0  0
 11 16  1  0  0  0  0
 15 17  1  0  0  0  0
 17 18  1  0  0  0  0
 18 19  1  0  0  0  0
 19 20  1  0  0  0  0
 20 21  1  0  0  0  0
 21 22  1  0  0  0  0
 18 22  1  0  0  0  0
 21 23  1  0  0  0  0
 23 24  1  0  0  0  0
 20 25  1  0  0  0  0
 19 26  1  0  0  0  0
 18 27  1  0  0  0  0
 27 28  1  0  0  0  0
 14 29  1  0  0  0  0
 13 30  1  0  0  0  0
 12 31  1  0  0  0  0
  4 32  1  0  0  0  0
  3 33  1  0  0  0  0
  1 34  1  0  0  0  0
  1 35  1  0  0  0  0
  1 36  1  0  0  0  0
  2 37  1  0  0  0  0
  3 38  1  0  0  0  0
  4 39  1  0  0  0  0
  7 40  1  0  0  0  0
  7 41  1  0  0  0  0
  8 42  1  0  0  0  0
 10 43  1  0  0  0  0
 10 44  1  0  0  0  0
 11 45  1  0  0  0  0
 12 46  1  0  0  0  0
 13 47  1  0  0  0  0
 14 48  1  0  0  0  0
 15 49  1  0  0  0  0
 19 50  1  0  0  0  0
 20 51  1  0  0  0  0
 21 52  1  0  0  0  0
 23 53  1  0  0  0  0
 23 54  1  0  0  0  0
 24 55  1  0  0  0  0
 25 56  1  0  0  0  0
 26 57  1  0  0  0  0
 27 58  1  0  0  0  0
 27 59  1  0  0  0  0
 28 60  1  0  0  0  0
 29 61  1  0  0  0  0
 30 62  1  0  0  0  0
 31 63  1  0  0  0  0
 32 64  1  0  0  0  0
 33 65  1  0  0  0  0
 34 66  1  0  0  0  0
M  END
$$$$
