C10H16
APtclcactv06211806353D 0   0.00000     0.00000
 
 26 26  0  0  0  0  0  0  0  0999 V2000
    3.4247   -0.1102   -0.5349 C   0  0  0  0  0  0  0  0  0  0  0  0
    2.1549    0.0719    0.2989 C   0  0  0  0  0  0  0  0  0  0  0  0
    1.3327    1.2196   -0.2851 C   0  0  0  0  0  0  0  0  0  0  0  0
   -0.0148    1.2938    0.4474 C   0  0  0  0  0  0  0  0  0  0  0  0
   -0.7364   -0.0140    0.1937 C   0  0  0  0  0  0  0  0  0  0  0  0
   -2.0379   -0.0409   -0.0724 C   0  0  0  0  0  0  0  0  0  0  0  0
   -2.8227    1.2445   -0.1261 C   0  0  0  0  0  0  0  0  0  0  0  0
   -2.7293   -1.3568   -0.3206 C   0  0  0  0  0  0  0  0  0  0  0  0
    0.0568   -1.2568    0.2521 C   0  0  0  0  0  0  0  0  0  0  0  0
    1.3767   -1.2101    0.2955 C   0  0  0  0  0  0  0  0  0  0  0  0
    4.0100    0.8091   -0.5110 H   0  0  0  0  0  0  0  0  0  0  0  0
    4.0158   -0.9280   -0.1229 H   0  0  0  0  0  0  0  0  0  0  0  0
    3.1530   -0.3412   -1.5649 H   0  0  0  0  0  0  0  0  0  0  0  0
    2.4329    0.3172    1.3239 H   0  0  0  0  0  0  0  0  0  0  0  0
    1.8714    2.1579   -0.1535 H   0  0  0  0  0  0  0  0  0  0  0  0
    1.1612    1.0419   -1.3468 H   0  0  0  0  0  0  0  0  0  0  0  0
    0.1509    1.4248    1.5168 H   0  0  0  0  0  0  0  0  0  0  0  0
   -0.6037    2.1242    0.0578 H   0  0  0  0  0  0  0  0  0  0  0  0
   -2.8084    1.6368   -1.1429 H   0  0  0  0  0  0  0  0  0  0  0  0
   -3.8528    1.0542    0.1754 H   0  0  0  0  0  0  0  0  0  0  0  0
   -2.3747    1.9723    0.5505 H   0  0  0  0  0  0  0  0  0  0  0  0
   -3.0995   -1.7564    0.6235 H   0  0  0  0  0  0  0  0  0  0  0  0
   -3.5650   -1.2049   -1.0036 H   0  0  0  0  0  0  0  0  0  0  0  0
   -2.0232   -2.0607   -0.7612 H   0  0  0  0  0  0  0  0  0  0  0  0
   -0.4456   -2.2128    0.2594 H   0  0  0  0  0  0  0  0  0  0  0  0
    1.9222   -2.1415    0.3302 H   0  0  0  0  0  0  0  0  0  0  0  0
  1  2  1  0  0  0  0
  2  3  1  0  0  0  0
  3  4  1  0  0  0  0
  4  5  1  0  0  0  0
  5  6  2  0  0  0  0
  6  7  1  0  0  0  0
  6  8  1  0  0  0  0
  5  9  1  0  0  0  0
  9 10  2  0  0  0  0
  2 10  1  0  0  0  0
  1 11  1  0  0  0  0
  1 12  1  0  0  0  0
  1 13  1  0  0  0  0
  2 14  1  0  0  0  0
  3 15  1  0  0  0  0
  3 16  1  0  0  0  0
  4 17  1  0  0  0  0
  4 18  1  0  0  0  0
  7 19  1  0  0  0  0
  7 20  1  0  0  0  0
  7 21  1  0  0  0  0
  8 22  1  0  0  0  0
  8 23  1  0  0  0  0
  8 24  1  0  0  0  0
  9 25  1  0  0  0  0
 10 26  1  0  0  0  0
M  END
$$$$
