C12H16N2O
APtclcactv06211804453D 0   0.00000     0.00000
 
 31 32  0  0  0  0  0  0  0  0999 V2000
    3.6362    1.5141   -0.7471 C   0  0  0  0  0  0  0  0  0  0  0  0
    3.7372    0.2609    0.0127 N   0  0  0  0  0  0  0  0  0  0  0  0
    4.6001    0.4271    1.1899 C   0  0  0  0  0  0  0  0  0  0  0  0
    2.4074   -0.2288    0.3997 C   0  0  0  0  0  0  0  0  0  0  0  0
    1.6252   -0.6253   -0.8541 C   0  0  0  0  0  0  0  0  0  0  0  0
    0.2610   -1.1277   -0.4571 C   0  0  0  0  0  0  0  0  0  0  0  0
   -0.0930   -2.4081   -0.2637 C   0  0  0  0  0  0  0  0  0  0  0  0
   -1.4131   -2.4790    0.0883 N   0  0  0  0  0  0  0  0  0  0  0  0
   -1.9550   -1.2116    0.1311 C   0  0  0  0  0  0  0  0  0  0  0  0
   -0.9282   -0.3109   -0.2030 C   0  0  0  0  0  0  0  0  0  0  0  0
   -1.1879    1.0610   -0.2411 C   0  0  0  0  0  0  0  0  0  0  0  0
   -2.4554    1.5234    0.0507 C   0  0  0  0  0  0  0  0  0  0  0  0
   -3.4701    0.6287    0.3816 C   0  0  0  0  0  0  0  0  0  0  0  0
   -3.2244   -0.7252    0.4261 C   0  0  0  0  0  0  0  0  0  0  0  0
   -2.7142    2.8580    0.0152 O   0  0  0  0  0  0  0  0  0  0  0  0
    4.6284    1.8175   -1.0811 H   0  0  0  0  0  0  0  0  0  0  0  0
    2.9917    1.3630   -1.6131 H   0  0  0  0  0  0  0  0  0  0  0  0
    3.2134    2.2917   -0.1108 H   0  0  0  0  0  0  0  0  0  0  0  0
    4.1481    1.1461    1.8731 H   0  0  0  0  0  0  0  0  0  0  0  0
    4.7143   -0.5320    1.6950 H   0  0  0  0  0  0  0  0  0  0  0  0
    5.5783    0.7905    0.8749 H   0  0  0  0  0  0  0  0  0  0  0  0
    2.5150   -1.0966    1.0504 H   0  0  0  0  0  0  0  0  0  0  0  0
    1.8704    0.5581    0.9292 H   0  0  0  0  0  0  0  0  0  0  0  0
    1.5177    0.2425   -1.5048 H   0  0  0  0  0  0  0  0  0  0  0  0
    2.1623   -1.4122   -1.3837 H   0  0  0  0  0  0  0  0  0  0  0  0
    0.5664   -3.2567   -0.3708 H   0  0  0  0  0  0  0  0  0  0  0  0
   -1.8959   -3.2983    0.2790 H   0  0  0  0  0  0  0  0  0  0  0  0
   -0.4017    1.7558   -0.4969 H   0  0  0  0  0  0  0  0  0  0  0  0
   -4.4582    1.0008    0.6089 H   0  0  0  0  0  0  0  0  0  0  0  0
   -4.0188   -1.4101    0.6836 H   0  0  0  0  0  0  0  0  0  0  0  0
   -3.0092    3.1786   -0.8481 H   0  0  0  0  0  0  0  0  0  0  0  0
  1  2  1  0  0  0  0
  2  3  1  0  0  0  0
  2  4  1  0  0  0  0
  4  5  1  0  0  0  0
  5  6  1  0  0  0  0
  6  7  2  0  0  0  0
  7  8  1  0  0  0  0
  8  9  1  0  0  0  0
  9 10  2  0  0  0  0
  6 10  1  0  0  0  0
 10 11  1  0  0  0  0
 11 12  2  0  0  0  0
 12 13  1  0  0  0  0
 13 14  2  0  0  0  0
  9 14  1  0  0  0  0
 12 15  1  0  0  0  0
  1 16  1  0  0  0  0
  1 17  1  0  0  0  0
  1 18  1  0  0  0  0
  3 19  1  0  0  0  0
  3 20  1  0  0  0  0
  3 21  1  0  0  0  0
  4 22  1  0  0  0  0
  4 23  1  0  0  0  0
  5 24  1  0  0  0  0
  5 25  1  0  0  0  0
  7 26  1  0  0  0  0
  8 27  1  0  0  0  0
 11 28  1  0  0  0  0
 13 29  1  0  0  0  0
 14 30  1  0  0  0  0
 15 31  1  0  0  0  0
M  END
$$$$
