C10H16O
APtclcactv06211806303D 0   0.00000     0.00000
 
 27 28  0  0  0  0  0  0  0  0999 V2000
   -0.9263   -0.6665    1.6871 C   0  0  0  0  0  0  0  0  0  0  0  0
   -1.4154   -0.1602    0.3286 C   0  0  0  0  0  0  0  0  0  0  0  0
   -0.8713    1.2299   -0.0495 C   0  0  0  0  0  0  0  0  0  0  0  0
   -0.8565    0.7047   -1.4958 C   0  0  0  0  0  0  0  0  0  0  0  0
   -0.5903   -0.6838   -0.8650 C   0  0  0  0  0  0  0  0  0  0  0  0
    0.8868   -0.7606   -0.4792 C   0  0  0  0  0  0  0  0  0  0  0  0
    1.5314   -1.8948   -0.3601 C   0  0  0  0  0  0  0  0  0  0  0  0
    1.5462    0.5913   -0.2456 C   0  0  0  0  0  0  0  0  0  0  0  0
    0.5361    1.4660    0.5122 C   0  0  0  0  0  0  0  0  0  0  0  0
    2.7302    0.4262    0.5372 O   0  0  0  0  0  0  0  0  0  0  0  0
   -2.9279   -0.3020    0.1471 C   0  0  0  0  0  0  0  0  0  0  0  0
   -1.2400    0.0268    2.4675 H   0  0  0  0  0  0  0  0  0  0  0  0
   -1.3520   -1.6506    1.8828 H   0  0  0  0  0  0  0  0  0  0  0  0
    0.1614   -0.7362    1.6787 H   0  0  0  0  0  0  0  0  0  0  0  0
   -1.5647    2.0522    0.1272 H   0  0  0  0  0  0  0  0  0  0  0  0
   -1.8187    0.7813   -2.0021 H   0  0  0  0  0  0  0  0  0  0  0  0
   -0.0274    1.0833   -2.0935 H   0  0  0  0  0  0  0  0  0  0  0  0
   -0.9899   -1.5488   -1.3944 H   0  0  0  0  0  0  0  0  0  0  0  0
    1.0184   -2.8286   -0.5370 H   0  0  0  0  0  0  0  0  0  0  0  0
    2.5758   -1.8961   -0.0851 H   0  0  0  0  0  0  0  0  0  0  0  0
    1.7936    1.0535   -1.2013 H   0  0  0  0  0  0  0  0  0  0  0  0
    0.8034    2.5159    0.3923 H   0  0  0  0  0  0  0  0  0  0  0  0
    0.5529    1.2060    1.5706 H   0  0  0  0  0  0  0  0  0  0  0  0
    3.3954   -0.1445    0.1287 H   0  0  0  0  0  0  0  0  0  0  0  0
   -3.4402    0.4011    0.8038 H   0  0  0  0  0  0  0  0  0  0  0  0
   -3.1910   -0.0892   -0.8891 H   0  0  0  0  0  0  0  0  0  0  0  0
   -3.2301   -1.3190    0.3971 H   0  0  0  0  0  0  0  0  0  0  0  0
  1  2  1  0  0  0  0
  2  3  1  0  0  0  0
  3  4  1  0  0  0  0
  4  5  1  0  0  0  0
  2  5  1  0  0  0  0
  5  6  1  0  0  0  0
  6  7  2  0  0  0  0
  6  8  1  0  0  0  0
  8  9  1  0  0  0  0
  3  9  1  0  0  0  0
  8 10  1  0  0  0  0
  2 11  1  0  0  0  0
  1 12  1  0  0  0  0
  1 13  1  0  0  0  0
  1 14  1  0  0  0  0
  3 15  1  0  0  0  0
  4 16  1  0  0  0  0
  4 17  1  0  0  0  0
  5 18  1  0  0  0  0
  7 19  1  0  0  0  0
  7 20  1  0  0  0  0
  8 21  1  0  0  0  0
  9 22  1  0  0  0  0
  9 23  1  0  0  0  0
 10 24  1  0  0  0  0
 11 25  1  0  0  0  0
 11 26  1  0  0  0  0
 11 27  1  0  0  0  0
M  END
$$$$
