C28H50N2O4
APtclcactv06211806353D 0   0.00000     0.00000
 
 84 86  0  0  0  0  0  0  0  0999 V2000
   -1.7338    0.0134    0.9348 C   0  0  0  0  0  0  0  0  0  0  0  0
   -3.2174   -0.2755    0.7038 C   0  0  0  0  0  0  0  0  0  0  0  0
   -4.0273    1.0120    0.8743 C   0  0  0  0  0  0  0  0  0  0  0  0
   -5.4302    0.7949    0.2992 C   0  0  0  0  0  0  0  0  0  0  0  0
   -5.7032   -0.7074    0.1995 C   0  0  0  0  0  0  0  0  0  0  0  0
   -4.7612   -1.3411   -0.8197 C   0  0  0  0  0  0  0  0  0  0  0  0
   -3.4007   -0.7753   -0.6778 N   0  0  0  0  0  0  0  0  0  0  0  0
   -4.6989   -2.8533   -0.5989 C   0  0  0  0  0  0  0  0  0  0  0  0
   -3.6080   -3.4563   -1.4860 C   0  0  0  0  0  0  0  0  0  0  0  0
   -2.7271   -4.3908   -0.6552 C   0  0  0  0  0  0  0  0  0  0  0  0
   -1.2565   -4.1595   -1.0076 C   0  0  0  0  0  0  0  0  0  0  0  0
   -0.4541   -3.9241    0.2732 C   0  0  0  0  0  0  0  0  0  0  0  0
    0.9609   -4.4784    0.0997 C   0  0  0  0  0  0  0  0  0  0  0  0
    1.8746   -3.8948    1.1783 C   0  0  0  0  0  0  0  0  0  0  0  0
    3.0510   -3.2157    0.5261 C   0  0  0  0  0  0  0  0  0  0  0  0
    3.7368   -3.8248   -0.2612 O   0  0  0  0  0  0  0  0  0  0  0  0
    3.3363   -1.9369    0.8178 O   0  0  0  0  0  0  0  0  0  0  0  0
    4.4871   -1.3516    0.1505 C   0  0  0  0  0  0  0  0  0  0  0  0
    4.0733   -0.8275   -1.2213 C   0  0  0  0  0  0  0  0  0  0  0  0
    3.5078    0.5884   -1.0909 C   0  0  0  0  0  0  0  0  0  0  0  0
    4.6364    1.5315   -0.6740 C   0  0  0  0  0  0  0  0  0  0  0  0
    4.0535    2.8061   -0.0620 C   0  0  0  0  0  0  0  0  0  0  0  0
    3.2420    3.5563   -1.1211 C   0  0  0  0  0  0  0  0  0  0  0  0
    1.7642    3.5577   -0.7246 C   0  0  0  0  0  0  0  0  0  0  0  0
    1.1357    4.8995   -1.1061 C   0  0  0  0  0  0  0  0  0  0  0  0
   -0.3773    4.7296   -1.2621 C   0  0  0  0  0  0  0  0  0  0  0  0
   -0.9392    4.0120   -0.0344 C   0  0  0  0  0  0  0  0  0  0  0  0
   -2.4174    4.3652    0.1383 C   0  0  0  0  0  0  0  0  0  0  0  0
   -3.1226    3.2282    0.8368 C   0  0  0  0  0  0  0  0  0  0  0  0
   -3.4525    3.3468    1.9922 O   0  0  0  0  0  0  0  0  0  0  0  0
   -3.3746    2.0949    0.1663 O   0  0  0  0  0  0  0  0  0  0  0  0
    5.5516    0.8826    0.2421 N   0  0  0  0  0  0  0  0  0  0  0  0
    5.0766   -0.2415    1.0163 C   0  0  0  0  0  0  0  0  0  0  0  0
    4.0630    0.1911    2.0788 C   0  0  0  0  0  0  0  0  0  0  0  0
   -1.5916    0.3982    1.9446 H   0  0  0  0  0  0  0  0  0  0  0  0
   -1.1613   -0.9060    0.8123 H   0  0  0  0  0  0  0  0  0  0  0  0
   -1.3910    0.7539    0.2121 H   0  0  0  0  0  0  0  0  0  0  0  0
   -3.5606   -1.0278    1.4081 H   0  0  0  0  0  0  0  0  0  0  0  0
   -4.1053    1.2523    1.9338 H   0  0  0  0  0  0  0  0  0  0  0  0
   -6.1662    1.2559    0.9571 H   0  0  0  0  0  0  0  0  0  0  0  0
   -5.4927    1.2420   -0.6919 H   0  0  0  0  0  0  0  0  0  0  0  0
   -5.5581   -1.1695    1.1760 H   0  0  0  0  0  0  0  0  0  0  0  0
   -6.7370   -0.8631   -0.1172 H   0  0  0  0  0  0  0  0  0  0  0  0
   -5.1201   -1.1342   -1.8284 H   0  0  0  0  0  0  0  0  0  0  0  0
   -3.3867    0.0715   -1.2864 H   0  0  0  0  0  0  0  0  0  0  0  0
   -4.4736   -3.0590    0.4475 H   0  0  0  0  0  0  0  0  0  0  0  0
   -5.6618   -3.2977   -0.8536 H   0  0  0  0  0  0  0  0  0  0  0  0
   -4.0694   -4.0198   -2.2980 H   0  0  0  0  0  0  0  0  0  0  0  0
   -2.9981   -2.6566   -1.9060 H   0  0  0  0  0  0  0  0  0  0  0  0
   -2.8831   -4.1950    0.4052 H   0  0  0  0  0  0  0  0  0  0  0  0
   -2.9914   -5.4268   -0.8740 H   0  0  0  0  0  0  0  0  0  0  0  0
   -0.8666   -5.0381   -1.5233 H   0  0  0  0  0  0  0  0  0  0  0  0
   -1.1682   -3.2895   -1.6580 H   0  0  0  0  0  0  0  0  0  0  0  0
   -0.4024   -2.8548    0.4784 H   0  0  0  0  0  0  0  0  0  0  0  0
   -0.9418   -4.4307    1.1064 H   0  0  0  0  0  0  0  0  0  0  0  0
    0.9386   -5.5647    0.1914 H   0  0  0  0  0  0  0  0  0  0  0  0
    1.3402   -4.2056   -0.8851 H   0  0  0  0  0  0  0  0  0  0  0  0
    1.3198   -3.1703    1.7735 H   0  0  0  0  0  0  0  0  0  0  0  0
    2.2313   -4.6974    1.8244 H   0  0  0  0  0  0  0  0  0  0  0  0
    5.2466   -2.1314    0.0164 H   0  0  0  0  0  0  0  0  0  0  0  0
    4.9412   -0.8103   -1.8837 H   0  0  0  0  0  0  0  0  0  0  0  0
    3.3124   -1.4819   -1.6510 H   0  0  0  0  0  0  0  0  0  0  0  0
    3.1101    0.9065   -2.0565 H   0  0  0  0  0  0  0  0  0  0  0  0
    2.7118    0.6056   -0.3518 H   0  0  0  0  0  0  0  0  0  0  0  0
    5.1883    1.8194   -1.5848 H   0  0  0  0  0  0  0  0  0  0  0  0
    3.4093    2.5570    0.7782 H   0  0  0  0  0  0  0  0  0  0  0  0
    4.8684    3.4454    0.2834 H   0  0  0  0  0  0  0  0  0  0  0  0
    3.6007    4.5833   -1.1920 H   0  0  0  0  0  0  0  0  0  0  0  0
    3.3588    3.0634   -2.0859 H   0  0  0  0  0  0  0  0  0  0  0  0
    1.2470    2.7531   -1.2477 H   0  0  0  0  0  0  0  0  0  0  0  0
    1.6749    3.4081    0.3513 H   0  0  0  0  0  0  0  0  0  0  0  0
    1.3390    5.6322   -0.3256 H   0  0  0  0  0  0  0  0  0  0  0  0
    1.5600    5.2448   -2.0489 H   0  0  0  0  0  0  0  0  0  0  0  0
   -0.8451    5.7095   -1.3560 H   0  0  0  0  0  0  0  0  0  0  0  0
   -0.5855    4.1411   -2.1556 H   0  0  0  0  0  0  0  0  0  0  0  0
   -0.8373    2.9344   -0.1640 H   0  0  0  0  0  0  0  0  0  0  0  0
   -0.3871    4.3229    0.8528 H   0  0  0  0  0  0  0  0  0  0  0  0
   -2.5077    5.2707    0.7372 H   0  0  0  0  0  0  0  0  0  0  0  0
   -2.8713    4.5256   -0.8389 H   0  0  0  0  0  0  0  0  0  0  0  0
    6.5107    0.9067    0.0153 H   0  0  0  0  0  0  0  0  0  0  0  0
    5.9414   -0.6761    1.5584 H   0  0  0  0  0  0  0  0  0  0  0  0
    3.2068    0.6605    1.5944 H   0  0  0  0  0  0  0  0  0  0  0  0
    3.7296   -0.6820    2.6397 H   0  0  0  0  0  0  0  0  0  0  0  0
    4.5310    0.9029    2.7589 H   0  0  0  0  0  0  0  0  0  0  0  0
  1  2  1  0  0  0  0
  2  3  1  0  0  0  0
  3  4  1  0  0  0  0
  4  5  1  0  0  0  0
  5  6  1  0  0  0  0
  6  7  1  0  0  0  0
  2  7  1  0  0  0  0
  6  8  1  0  0  0  0
  8  9  1  0  0  0  0
  9 10  1  0  0  0  0
 10 11  1  0  0  0  0
 11 12  1  0  0  0  0
 12 13  1  0  0  0  0
 13 14  1  0  0  0  0
 14 15  1  0  0  0  0
 15 16  2  0  0  0  0
 15 17  1  0  0  0  0
 17 18  1  0  0  0  0
 18 19  1  0  0  0  0
 19 20  1  0  0  0  0
 20 21  1  0  0  0  0
 21 22  1  0  0  0  0
 22 23  1  0  0  0  0
 23 24  1  0  0  0  0
 24 25  1  0  0  0  0
 25 26  1  0  0  0  0
 26 27  1  0  0  0  0
 27 28  1  0  0  0  0
 28 29  1  0  0  0  0
 29 30  2  0  0  0  0
 29 31  1  0  0  0  0
  3 31  1  0  0  0  0
 21 32  1  0  0  0  0
 32 33  1  0  0  0  0
 18 33  1  0  0  0  0
 33 34  1  0  0  0  0
  1 35  1  0  0  0  0
  1 36  1  0  0  0  0
  1 37  1  0  0  0  0
  2 38  1  0  0  0  0
  3 39  1  0  0  0  0
  4 40  1  0  0  0  0
  4 41  1  0  0  0  0
  5 42  1  0  0  0  0
  5 43  1  0  0  0  0
  6 44  1  0  0  0  0
  7 45  1  0  0  0  0
  8 46  1  0  0  0  0
  8 47  1  0  0  0  0
  9 48  1  0  0  0  0
  9 49  1  0  0  0  0
 10 50  1  0  0  0  0
 10 51  1  0  0  0  0
 11 52  1  0  0  0  0
 11 53  1  0  0  0  0
 12 54  1  0  0  0  0
 12 55  1  0  0  0  0
 13 56  1  0  0  0  0
 13 57  1  0  0  0  0
 14 58  1  0  0  0  0
 14 59  1  0  0  0  0
 18 60  1  0  0  0  0
 19 61  1  0  0  0  0
 19 62  1  0  0  0  0
 20 63  1  0  0  0  0
 20 64  1  0  0  0  0
 21 65  1  0  0  0  0
 22 66  1  0  0  0  0
 22 67  1  0  0  0  0
 23 68  1  0  0  0  0
 23 69  1  0  0  0  0
 24 70  1  0  0  0  0
 24 71  1  0  0  0  0
 25 72  1  0  0  0  0
 25 73  1  0  0  0  0
 26 74  1  0  0  0  0
 26 75  1  0  0  0  0
 27 76  1  0  0  0  0
 27 77  1  0  0  0  0
 28 78  1  0  0  0  0
 28 79  1  0  0  0  0
 32 80  1  0  0  0  0
 33 81  1  0  0  0  0
 34 82  1  0  0  0  0
 34 83  1  0  0  0  0
 34 84  1  0  0  0  0
M  END
$$$$
