C17H14O7
APtclcactv06281817283D 0   0.00000     0.00000
 
 38 40  0  0  0  0  0  0  0  0999 V2000
    3.9895    2.7429    1.4062 C   0  0  0  0  0  0  0  0  0  0  0  0
    4.8233    1.7829    0.7541 O   0  0  0  0  0  0  0  0  0  0  0  0
    4.2103    0.6890    0.2277 C   0  0  0  0  0  0  0  0  0  0  0  0
    4.9639   -0.2870   -0.4222 C   0  0  0  0  0  0  0  0  0  0  0  0
    4.3415   -1.4049   -0.9606 C   0  0  0  0  0  0  0  0  0  0  0  0
    2.9757   -1.5552   -0.8548 C   0  0  0  0  0  0  0  0  0  0  0  0
    2.2140   -0.5808   -0.2042 C   0  0  0  0  0  0  0  0  0  0  0  0
    2.8413    0.5424    0.3421 C   0  0  0  0  0  0  0  0  0  0  0  0
    0.7519   -0.7396   -0.0903 C   0  0  0  0  0  0  0  0  0  0  0  0
    0.2466   -1.9747    0.1738 C   0  0  0  0  0  0  0  0  0  0  0  0
   -1.1531   -2.1464    0.2871 C   0  0  0  0  0  0  0  0  0  0  0  0
   -1.6406   -3.2401    0.5237 O   0  0  0  0  0  0  0  0  0  0  0  0
   -1.9991   -0.9540    0.1091 C   0  0  0  0  0  0  0  0  0  0  0  0
   -3.3933   -1.0318    0.2047 C   0  0  0  0  0  0  0  0  0  0  0  0
   -4.1539    0.1136    0.0311 C   0  0  0  0  0  0  0  0  0  0  0  0
   -3.5316    1.3312   -0.2370 C   0  0  0  0  0  0  0  0  0  0  0  0
   -2.1512    1.4121   -0.3329 C   0  0  0  0  0  0  0  0  0  0  0  0
   -1.3752    0.2767   -0.1611 C   0  0  0  0  0  0  0  0  0  0  0  0
   -0.0288    0.3413   -0.2457 O   0  0  0  0  0  0  0  0  0  0  0  0
   -4.2846    2.4490   -0.4063 O   0  0  0  0  0  0  0  0  0  0  0  0
   -3.5870    3.6661   -0.6786 C   0  0  0  0  0  0  0  0  0  0  0  0
   -5.5108    0.0491    0.1221 O   0  0  0  0  0  0  0  0  0  0  0  0
   -3.9962   -2.2208    0.4653 O   0  0  0  0  0  0  0  0  0  0  0  0
    6.3105   -0.1437   -0.5292 O   0  0  0  0  0  0  0  0  0  0  0  0
    4.6030    3.5630    1.7794 H   0  0  0  0  0  0  0  0  0  0  0  0
    3.2580    3.1301    0.6969 H   0  0  0  0  0  0  0  0  0  0  0  0
    3.4717    2.2680    2.2395 H   0  0  0  0  0  0  0  0  0  0  0  0
    4.9290   -2.1585   -1.4640 H   0  0  0  0  0  0  0  0  0  0  0  0
    2.4940   -2.4257   -1.2750 H   0  0  0  0  0  0  0  0  0  0  0  0
    2.2563    1.2975    0.8461 H   0  0  0  0  0  0  0  0  0  0  0  0
    0.9095   -2.8186    0.2958 H   0  0  0  0  0  0  0  0  0  0  0  0
   -1.6798    2.3610   -0.5417 H   0  0  0  0  0  0  0  0  0  0  0  0
   -2.9116    3.8903    0.1470 H   0  0  0  0  0  0  0  0  0  0  0  0
   -3.0128    3.5577   -1.5987 H   0  0  0  0  0  0  0  0  0  0  0  0
   -4.3046    4.4787   -0.7918 H   0  0  0  0  0  0  0  0  0  0  0  0
   -5.8525    0.1951    1.0148 H   0  0  0  0  0  0  0  0  0  0  0  0
   -4.1205   -2.4007    1.4073 H   0  0  0  0  0  0  0  0  0  0  0  0
    6.8068   -0.5299    0.2054 H   0  0  0  0  0  0  0  0  0  0  0  0
  1  2  1  0  0  0  0
  2  3  1  0  0  0  0
  3  4  2  0  0  0  0
  4  5  1  0  0  0  0
  5  6  2  0  0  0  0
  6  7  1  0  0  0  0
  7  8  2  0  0  0  0
  3  8  1  0  0  0  0
  7  9  1  0  0  0  0
  9 10  2  0  0  0  0
 10 11  1  0  0  0  0
 11 12  2  0  0  0  0
 11 13  1  0  0  0  0
 13 14  2  0  0  0  0
 14 15  1  0  0  0  0
 15 16  2  0  0  0  0
 16 17  1  0  0  0  0
 17 18  2  0  0  0  0
 13 18  1  0  0  0  0
 18 19  1  0  0  0  0
  9 19  1  0  0  0  0
 16 20  1  0  0  0  0
 20 21  1  0  0  0  0
 15 22  1  0  0  0  0
 14 23  1  0  0  0  0
  4 24  1  0  0  0  0
  1 25  1  0  0  0  0
  1 26  1  0  0  0  0
  1 27  1  0  0  0  0
  5 28  1  0  0  0  0
  6 29  1  0  0  0  0
  8 30  1  0  0  0  0
 10 31  1  0  0  0  0
 17 32  1  0  0  0  0
 21 33  1  0  0  0  0
 21 34  1  0  0  0  0
 21 35  1  0  0  0  0
 22 36  1  0  0  0  0
 23 37  1  0  0  0  0
 24 38  1  0  0  0  0
M  END
$$$$
