C19H18NO4
APtclcactv06281817283D 0   0.00000     0.00000
 
 42 45  0  0  0  0  0  0  0  0999 V2000
    6.4874    1.0450    0.3260 C   0  0  0  0  0  0  0  0  0  0  0  0
    5.8221   -0.2074    0.1506 O   0  0  0  0  0  0  0  0  0  0  0  0
    4.4647   -0.1807    0.0802 C   0  0  0  0  0  0  0  0  0  0  0  0
    3.7547   -1.3666   -0.0902 C   0  0  0  0  0  0  0  0  0  0  0  0
    2.3728   -1.3414   -0.1693 C   0  0  0  0  0  0  0  0  0  0  0  0
    1.6999   -0.1282   -0.0777 C   0  0  0  0  0  0  0  0  0  0  0  0
    2.4150    1.0558    0.1070 C   0  0  0  0  0  0  0  0  0  0  0  0
    3.7901    1.0279    0.1841 C   0  0  0  0  0  0  0  0  0  0  0  0
    1.6583    2.3510    0.2445 C   0  0  0  0  0  0  0  0  0  0  0  0
    0.4102    2.3141   -0.6319 C   0  0  0  0  0  0  0  0  0  0  0  0
   -0.3837    1.1075   -0.3734 N   0  3  0  0  0  0  0  0  0  0  0  0
    0.2186   -0.0657   -0.1512 C   0  0  0  0  0  0  0  0  0  0  0  0
   -0.5076   -1.2297    0.0346 C   0  0  0  0  0  0  0  0  0  0  0  0
   -1.9096   -1.1639    0.0238 C   0  0  0  0  0  0  0  0  0  0  0  0
   -2.7121   -2.3001    0.2001 C   0  0  0  0  0  0  0  0  0  0  0  0
   -4.0692   -2.1779    0.1967 C   0  0  0  0  0  0  0  0  0  0  0  0
   -4.6787   -0.9351    0.0183 C   0  0  0  0  0  0  0  0  0  0  0  0
   -3.9201    0.2053   -0.1648 C   0  0  0  0  0  0  0  0  0  0  0  0
   -2.5167    0.1059   -0.1718 C   0  0  0  0  0  0  0  0  0  0  0  0
   -1.6954    1.2224   -0.3753 C   0  0  0  0  0  0  0  0  0  0  0  0
   -4.5235    1.4107   -0.3364 O   0  0  0  0  0  0  0  0  0  0  0  0
   -4.7920    2.1753    0.8406 C   0  0  0  0  0  0  0  0  0  0  0  0
   -6.0359   -0.8455    0.0243 O   0  0  0  0  0  0  0  0  0  0  0  0
    4.4192   -2.5499   -0.1794 O   0  0  0  0  0  0  0  0  0  0  0  0
    6.2504    1.7026   -0.5103 H   0  0  0  0  0  0  0  0  0  0  0  0
    6.1549    1.5059    1.2561 H   0  0  0  0  0  0  0  0  0  0  0  0
    7.5644    0.8818    0.3661 H   0  0  0  0  0  0  0  0  0  0  0  0
    1.8200   -2.2597   -0.3019 H   0  0  0  0  0  0  0  0  0  0  0  0
    4.3430    1.9461    0.3162 H   0  0  0  0  0  0  0  0  0  0  0  0
    1.3664    2.4916    1.2852 H   0  0  0  0  0  0  0  0  0  0  0  0
    2.2959    3.1782   -0.0673 H   0  0  0  0  0  0  0  0  0  0  0  0
   -0.1987    3.1939   -0.4238 H   0  0  0  0  0  0  0  0  0  0  0  0
    0.7091    2.3275   -1.6801 H   0  0  0  0  0  0  0  0  0  0  0  0
   -0.0036   -2.1730    0.1850 H   0  0  0  0  0  0  0  0  0  0  0  0
   -2.2559   -3.2693    0.3378 H   0  0  0  0  0  0  0  0  0  0  0  0
   -4.6825   -3.0562    0.3337 H   0  0  0  0  0  0  0  0  0  0  0  0
   -2.1446    2.1912   -0.5367 H   0  0  0  0  0  0  0  0  0  0  0  0
   -5.2741    3.1126    0.5629 H   0  0  0  0  0  0  0  0  0  0  0  0
   -5.4507    1.6091    1.4992 H   0  0  0  0  0  0  0  0  0  0  0  0
   -3.8561    2.3873    1.3575 H   0  0  0  0  0  0  0  0  0  0  0  0
   -6.4158   -0.6880    0.8995 H   0  0  0  0  0  0  0  0  0  0  0  0
    4.5597   -2.9872    0.6716 H   0  0  0  0  0  0  0  0  0  0  0  0
  1  2  1  0  0  0  0
  2  3  1  0  0  0  0
  3  4  2  0  0  0  0
  4  5  1  0  0  0  0
  5  6  2  0  0  0  0
  6  7  1  0  0  0  0
  7  8  2  0  0  0  0
  3  8  1  0  0  0  0
  7  9  1  0  0  0  0
  9 10  1  0  0  0  0
 10 11  1  0  0  0  0
 11 12  2  0  0  0  0
  6 12  1  0  0  0  0
 12 13  1  0  0  0  0
 13 14  2  0  0  0  0
 14 15  1  0  0  0  0
 15 16  2  0  0  0  0
 16 17  1  0  0  0  0
 17 18  2  0  0  0  0
 18 19  1  0  0  0  0
 14 19  1  0  0  0  0
 19 20  2  0  0  0  0
 11 20  1  0  0  0  0
 18 21  1  0  0  0  0
 21 22  1  0  0  0  0
 17 23  1  0  0  0  0
  4 24  1  0  0  0  0
  1 25  1  0  0  0  0
  1 26  1  0  0  0  0
  1 27  1  0  0  0  0
  5 28  1  0  0  0  0
  8 29  1  0  0  0  0
  9 30  1  0  0  0  0
  9 31  1  0  0  0  0
 10 32  1  0  0  0  0
 10 33  1  0  0  0  0
 13 34  1  0  0  0  0
 15 35  1  0  0  0  0
 16 36  1  0  0  0  0
 20 37  1  0  0  0  0
 22 38  1  0  0  0  0
 22 39  1  0  0  0  0
 22 40  1  0  0  0  0
 23 41  1  0  0  0  0
 24 42  1  0  0  0  0
M  CHG  1  11   1
M  END
$$$$
