C16H12O8
APtclcactv06281817283D 0   0.00000     0.00000
 
 36 38  0  0  0  0  0  0  0  0999 V2000
    6.0602   -1.1939    0.9109 C   0  0  0  0  0  0  0  0  0  0  0  0
    5.4902   -0.3612   -0.1008 O   0  0  0  0  0  0  0  0  0  0  0  0
    4.1379   -0.2187   -0.0936 C   0  0  0  0  0  0  0  0  0  0  0  0
    3.5518    0.8101    0.6382 C   0  0  0  0  0  0  0  0  0  0  0  0
    2.1770    0.9575    0.6474 C   0  0  0  0  0  0  0  0  0  0  0  0
    1.3758    0.0722   -0.0789 C   0  0  0  0  0  0  0  0  0  0  0  0
    1.9673   -0.9598   -0.8126 C   0  0  0  0  0  0  0  0  0  0  0  0
    3.3430   -1.0986   -0.8225 C   0  0  0  0  0  0  0  0  0  0  0  0
    3.9193   -2.1024   -1.5366 O   0  0  0  0  0  0  0  0  0  0  0  0
   -0.0906    0.2263   -0.0706 C   0  0  0  0  0  0  0  0  0  0  0  0
   -0.6214    1.4634   -0.2817 C   0  0  0  0  0  0  0  0  0  0  0  0
   -2.0308    1.6283   -0.2768 C   0  0  0  0  0  0  0  0  0  0  0  0
   -2.5421    2.7211   -0.4626 O   0  0  0  0  0  0  0  0  0  0  0  0
   -2.8520    0.4304   -0.0397 C   0  0  0  0  0  0  0  0  0  0  0  0
   -4.2510    0.5007   -0.0185 C   0  0  0  0  0  0  0  0  0  0  0  0
   -4.9871   -0.6476    0.2071 C   0  0  0  0  0  0  0  0  0  0  0  0
   -4.3419   -1.8624    0.4114 C   0  0  0  0  0  0  0  0  0  0  0  0
   -2.9580   -1.9395    0.3923 C   0  0  0  0  0  0  0  0  0  0  0  0
   -2.2022   -0.7993    0.1671 C   0  0  0  0  0  0  0  0  0  0  0  0
   -0.8543   -0.8596    0.1393 O   0  0  0  0  0  0  0  0  0  0  0  0
   -5.0746   -2.9838    0.6321 O   0  0  0  0  0  0  0  0  0  0  0  0
   -4.8789    1.6873   -0.2176 O   0  0  0  0  0  0  0  0  0  0  0  0
    0.1935    2.5322   -0.4949 O   0  0  0  0  0  0  0  0  0  0  0  0
    4.3321    1.6710    1.3450 O   0  0  0  0  0  0  0  0  0  0  0  0
    7.1433   -1.2213    0.7913 H   0  0  0  0  0  0  0  0  0  0  0  0
    5.8132   -0.7924    1.8937 H   0  0  0  0  0  0  0  0  0  0  0  0
    5.6589   -2.2032    0.8195 H   0  0  0  0  0  0  0  0  0  0  0  0
    1.7228    1.7558    1.2157 H   0  0  0  0  0  0  0  0  0  0  0  0
    1.3507   -1.6457   -1.3745 H   0  0  0  0  0  0  0  0  0  0  0  0
    4.1343   -1.8631   -2.4485 H   0  0  0  0  0  0  0  0  0  0  0  0
   -6.0660   -0.6009    0.2252 H   0  0  0  0  0  0  0  0  0  0  0  0
   -2.4681   -2.8886    0.5525 H   0  0  0  0  0  0  0  0  0  0  0  0
   -5.3079   -3.4659   -0.1730 H   0  0  0  0  0  0  0  0  0  0  0  0
   -5.0819    1.8742   -1.1444 H   0  0  0  0  0  0  0  0  0  0  0  0
   -0.2781    3.3648   -0.6341 H   0  0  0  0  0  0  0  0  0  0  0  0
    4.6102    2.4507    0.8452 H   0  0  0  0  0  0  0  0  0  0  0  0
  1  2  1  0  0  0  0
  2  3  1  0  0  0  0
  3  4  2  0  0  0  0
  4  5  1  0  0  0  0
  5  6  2  0  0  0  0
  6  7  1  0  0  0  0
  7  8  2  0  0  0  0
  3  8  1  0  0  0  0
  8  9  1  0  0  0  0
  6 10  1  0  0  0  0
 10 11  2  0  0  0  0
 11 12  1  0  0  0  0
 12 13  2  0  0  0  0
 12 14  1  0  0  0  0
 14 15  2  0  0  0  0
 15 16  1  0  0  0  0
 16 17  2  0  0  0  0
 17 18  1  0  0  0  0
 18 19  2  0  0  0  0
 14 19  1  0  0  0  0
 19 20  1  0  0  0  0
 10 20  1  0  0  0  0
 17 21  1  0  0  0  0
 15 22  1  0  0  0  0
 11 23  1  0  0  0  0
  4 24  1  0  0  0  0
  1 25  1  0  0  0  0
  1 26  1  0  0  0  0
  1 27  1  0  0  0  0
  5 28  1  0  0  0  0
  7 29  1  0  0  0  0
  9 30  1  0  0  0  0
 16 31  1  0  0  0  0
 18 32  1  0  0  0  0
 21 33  1  0  0  0  0
 22 34  1  0  0  0  0
 23 35  1  0  0  0  0
 24 36  1  0  0  0  0
M  END
$$$$
