C25H26O7
APtclcactv06281817283D 0   0.00000     0.00000
 
 58 60  0  0  0  0  0  0  0  0999 V2000
    6.6523    1.7998   -0.9580 C   0  0  0  0  0  0  0  0  0  0  0  0
    5.5993    2.3367   -0.0231 C   0  0  0  0  0  0  0  0  0  0  0  0
    4.3437    2.0023   -0.1894 C   0  0  0  0  0  0  0  0  0  0  0  0
    3.9684    0.9759   -1.2271 C   0  0  0  0  0  0  0  0  0  0  0  0
    3.2603   -0.1758   -0.5614 C   0  0  0  0  0  0  0  0  0  0  0  0
    3.9946   -1.1549    0.0923 C   0  0  0  0  0  0  0  0  0  0  0  0
    3.3449   -2.2226    0.7099 C   0  0  0  0  0  0  0  0  0  0  0  0
    1.9666   -2.3076    0.6725 C   0  0  0  0  0  0  0  0  0  0  0  0
    1.2264   -1.3209    0.0142 C   0  0  0  0  0  0  0  0  0  0  0  0
    1.8841   -0.2511   -0.5984 C   0  0  0  0  0  0  0  0  0  0  0  0
   -0.2450   -1.4066   -0.0294 C   0  0  0  0  0  0  0  0  0  0  0  0
   -0.8231   -2.5887   -0.3830 C   0  0  0  0  0  0  0  0  0  0  0  0
   -2.2379   -2.6874   -0.4293 C   0  0  0  0  0  0  0  0  0  0  0  0
   -2.7911   -3.7299   -0.7412 O   0  0  0  0  0  0  0  0  0  0  0  0
   -3.0123   -1.4840   -0.0861 C   0  0  0  0  0  0  0  0  0  0  0  0
   -2.3157   -0.3146    0.2652 C   0  0  0  0  0  0  0  0  0  0  0  0
   -0.9664   -0.3174    0.2864 O   0  0  0  0  0  0  0  0  0  0  0  0
   -3.0274    0.8300    0.5919 C   0  0  0  0  0  0  0  0  0  0  0  0
   -4.4130    0.8153    0.5704 C   0  0  0  0  0  0  0  0  0  0  0  0
   -5.1047   -0.3406    0.2236 C   0  0  0  0  0  0  0  0  0  0  0  0
   -4.4133   -1.4912   -0.1060 C   0  0  0  0  0  0  0  0  0  0  0  0
   -5.0865   -2.6198   -0.4450 O   0  0  0  0  0  0  0  0  0  0  0  0
   -5.1021    1.9401    0.8915 O   0  0  0  0  0  0  0  0  0  0  0  0
   -2.2935    2.0904    0.9709 C   0  0  0  0  0  0  0  0  0  0  0  0
   -2.0315    2.9104   -0.2661 C   0  0  0  0  0  0  0  0  0  0  0  0
   -2.5288    4.1180   -0.3688 C   0  0  0  0  0  0  0  0  0  0  0  0
   -3.3438    4.6959    0.7594 C   0  0  0  0  0  0  0  0  0  0  0  0
   -2.2857    4.9294   -1.6153 C   0  0  0  0  0  0  0  0  0  0  0  0
   -0.0499   -3.6658   -0.6898 O   0  0  0  0  0  0  0  0  0  0  0  0
    4.0680   -3.1809    1.3489 O   0  0  0  0  0  0  0  0  0  0  0  0
    5.3504   -1.0732    0.1303 O   0  0  0  0  0  0  0  0  0  0  0  0
    5.9908    3.2583    1.1032 C   0  0  0  0  0  0  0  0  0  0  0  0
    6.3810    2.0386   -1.9863 H   0  0  0  0  0  0  0  0  0  0  0  0
    7.6143    2.2542   -0.7211 H   0  0  0  0  0  0  0  0  0  0  0  0
    6.7231    0.7182   -0.8427 H   0  0  0  0  0  0  0  0  0  0  0  0
    3.5775    2.4621    0.4172 H   0  0  0  0  0  0  0  0  0  0  0  0
    3.3079    1.4305   -1.9655 H   0  0  0  0  0  0  0  0  0  0  0  0
    4.8695    0.6120   -1.7207 H   0  0  0  0  0  0  0  0  0  0  0  0
    1.4621   -3.1344    1.1502 H   0  0  0  0  0  0  0  0  0  0  0  0
    1.3150    0.5126   -1.1076 H   0  0  0  0  0  0  0  0  0  0  0  0
   -6.1846   -0.3389    0.2111 H   0  0  0  0  0  0  0  0  0  0  0  0
   -5.2717   -2.6982   -1.3909 H   0  0  0  0  0  0  0  0  0  0  0  0
   -5.2912    2.5144    0.1369 H   0  0  0  0  0  0  0  0  0  0  0  0
   -2.9001    2.6683    1.6682 H   0  0  0  0  0  0  0  0  0  0  0  0
   -1.3456    1.8311    1.4424 H   0  0  0  0  0  0  0  0  0  0  0  0
   -1.4339    2.5025   -1.0678 H   0  0  0  0  0  0  0  0  0  0  0  0
   -2.6770    5.1356    1.5011 H   0  0  0  0  0  0  0  0  0  0  0  0
   -4.0107    5.4646    0.3692 H   0  0  0  0  0  0  0  0  0  0  0  0
   -3.9331    3.9052    1.2239 H   0  0  0  0  0  0  0  0  0  0  0  0
   -1.6811    4.3506   -2.3134 H   0  0  0  0  0  0  0  0  0  0  0  0
   -3.2403    5.1767   -2.0797 H   0  0  0  0  0  0  0  0  0  0  0  0
   -1.7600    5.8479   -1.3542 H   0  0  0  0  0  0  0  0  0  0  0  0
   -0.5534   -4.4564   -0.9277 H   0  0  0  0  0  0  0  0  0  0  0  0
    4.2285   -2.9944    2.2841 H   0  0  0  0  0  0  0  0  0  0  0  0
    5.6939   -0.5854    0.8914 H   0  0  0  0  0  0  0  0  0  0  0  0
    7.0685    3.4206    1.0820 H   0  0  0  0  0  0  0  0  0  0  0  0
    5.4773    4.2127    0.9868 H   0  0  0  0  0  0  0  0  0  0  0  0
    5.7098    2.8082    2.0553 H   0  0  0  0  0  0  0  0  0  0  0  0
  1  2  1  0  0  0  0
  2  3  2  0  0  0  0
  3  4  1  0  0  0  0
  4  5  1  0  0  0  0
  5  6  2  0  0  0  0
  6  7  1  0  0  0  0
  7  8  2  0  0  0  0
  8  9  1  0  0  0  0
  9 10  2  0  0  0  0
  5 10  1  0  0  0  0
  9 11  1  0  0  0  0
 11 12  2  0  0  0  0
 12 13  1  0  0  0  0
 13 14  2  0  0  0  0
 13 15  1  0  0  0  0
 15 16  2  0  0  0  0
 16 17  1  0  0  0  0
 11 17  1  0  0  0  0
 16 18  1  0  0  0  0
 18 19  2  0  0  0  0
 19 20  1  0  0  0  0
 20 21  2  0  0  0  0
 15 21  1  0  0  0  0
 21 22  1  0  0  0  0
 19 23  1  0  0  0  0
 18 24  1  0  0  0  0
 24 25  1  0  0  0  0
 25 26  2  0  0  0  0
 26 27  1  0  0  0  0
 26 28  1  0  0  0  0
 12 29  1  0  0  0  0
  7 30  1  0  0  0  0
  6 31  1  0  0  0  0
  2 32  1  0  0  0  0
  1 33  1  0  0  0  0
  1 34  1  0  0  0  0
  1 35  1  0  0  0  0
  3 36  1  0  0  0  0
  4 37  1  0  0  0  0
  4 38  1  0  0  0  0
  8 39  1  0  0  0  0
 10 40  1  0  0  0  0
 20 41  1  0  0  0  0
 22 42  1  0  0  0  0
 23 43  1  0  0  0  0
 24 44  1  0  0  0  0
 24 45  1  0  0  0  0
 25 46  1  0  0  0  0
 27 47  1  0  0  0  0
 27 48  1  0  0  0  0
 27 49  1  0  0  0  0
 28 50  1  0  0  0  0
 28 51  1  0  0  0  0
 28 52  1  0  0  0  0
 29 53  1  0  0  0  0
 30 54  1  0  0  0  0
 31 55  1  0  0  0  0
 32 56  1  0  0  0  0
 32 57  1  0  0  0  0
 32 58  1  0  0  0  0
M  END
$$$$
