C29H36O4
APtclcactv06281817283D 0   0.00000     0.00000
 
 69 70  0  0  0  0  0  0  0  0999 V2000
   -4.6757   -4.1553   -0.1866 C   0  0  0  0  0  0  0  0  0  0  0  0
   -5.9198   -3.5780   -0.8111 C   0  0  0  0  0  0  0  0  0  0  0  0
   -6.3243   -2.3778   -0.4765 C   0  0  0  0  0  0  0  0  0  0  0  0
   -5.4845   -1.5286    0.4425 C   0  0  0  0  0  0  0  0  0  0  0  0
   -5.1914   -0.1859   -0.2299 C   0  0  0  0  0  0  0  0  0  0  0  0
   -4.3516    0.6634    0.6891 C   0  0  0  0  0  0  0  0  0  0  0  0
   -3.0476    0.6712    0.5643 C   0  0  0  0  0  0  0  0  0  0  0  0
   -2.2148    1.5953    1.4149 C   0  0  0  0  0  0  0  0  0  0  0  0
   -1.4443    2.5378    0.5265 C   0  0  0  0  0  0  0  0  0  0  0  0
   -1.9500    3.7957    0.2461 C   0  0  0  0  0  0  0  0  0  0  0  0
   -1.2414    4.6645   -0.5719 C   0  0  0  0  0  0  0  0  0  0  0  0
   -0.0236    4.2777   -1.1126 C   0  0  0  0  0  0  0  0  0  0  0  0
    0.4908    3.0216   -0.8381 C   0  0  0  0  0  0  0  0  0  0  0  0
   -0.2158    2.1457   -0.0108 C   0  0  0  0  0  0  0  0  0  0  0  0
    0.3274    0.8078    0.2849 C   0  0  0  0  0  0  0  0  0  0  0  0
    1.5508    0.4683   -0.1520 C   0  0  0  0  0  0  0  0  0  0  0  0
    2.0473   -0.9054    0.0416 C   0  0  0  0  0  0  0  0  0  0  0  0
    3.3590   -1.2328   -0.3130 C   0  0  0  0  0  0  0  0  0  0  0  0
    3.8195   -2.5230   -0.1287 C   0  0  0  0  0  0  0  0  0  0  0  0
    2.9771   -3.4934    0.4094 C   0  0  0  0  0  0  0  0  0  0  0  0
    1.6749   -3.1690    0.7616 C   0  0  0  0  0  0  0  0  0  0  0  0
    1.2096   -1.8830    0.5858 C   0  0  0  0  0  0  0  0  0  0  0  0
    3.4320   -4.7618    0.5894 O   0  0  0  0  0  0  0  0  0  0  0  0
    5.0951   -2.8452   -0.4730 O   0  0  0  0  0  0  0  0  0  0  0  0
    4.2687   -0.1820   -0.8953 C   0  0  0  0  0  0  0  0  0  0  0  0
    5.0112    0.5122    0.2173 C   0  0  0  0  0  0  0  0  0  0  0  0
    6.3204    0.5543    0.2045 C   0  0  0  0  0  0  0  0  0  0  0  0
    7.0889   -0.2148   -0.8389 C   0  0  0  0  0  0  0  0  0  0  0  0
    7.0580    1.3720    1.2333 C   0  0  0  0  0  0  0  0  0  0  0  0
    0.6655    5.1328   -1.9132 O   0  0  0  0  0  0  0  0  0  0  0  0
   -3.1426    4.1802    0.7724 O   0  0  0  0  0  0  0  0  0  0  0  0
   -5.0119    1.5036    1.7516 C   0  0  0  0  0  0  0  0  0  0  0  0
   -6.6986   -4.3815   -1.8207 C   0  0  0  0  0  0  0  0  0  0  0  0
   -4.7689   -4.1299    0.8991 H   0  0  0  0  0  0  0  0  0  0  0  0
   -4.5485   -5.1864   -0.5164 H   0  0  0  0  0  0  0  0  0  0  0  0
   -3.8100   -3.5671   -0.4908 H   0  0  0  0  0  0  0  0  0  0  0  0
   -7.2597   -1.9970   -0.8592 H   0  0  0  0  0  0  0  0  0  0  0  0
   -6.0242   -1.3583    1.3741 H   0  0  0  0  0  0  0  0  0  0  0  0
   -4.5463   -2.0412    0.6546 H   0  0  0  0  0  0  0  0  0  0  0  0
   -4.6517   -0.3562   -1.1615 H   0  0  0  0  0  0  0  0  0  0  0  0
   -6.1297    0.3268   -0.4420 H   0  0  0  0  0  0  0  0  0  0  0  0
   -2.5693    0.0154   -0.1482 H   0  0  0  0  0  0  0  0  0  0  0  0
   -2.8667    2.1686    2.0740 H   0  0  0  0  0  0  0  0  0  0  0  0
   -1.5178    1.0088    2.0135 H   0  0  0  0  0  0  0  0  0  0  0  0
   -1.6394    5.6449   -0.7886 H   0  0  0  0  0  0  0  0  0  0  0  0
    1.4386    2.7212   -1.2597 H   0  0  0  0  0  0  0  0  0  0  0  0
   -0.2586    0.1006    0.8531 H   0  0  0  0  0  0  0  0  0  0  0  0
    2.1709    1.2021   -0.6454 H   0  0  0  0  0  0  0  0  0  0  0  0
    1.0254   -3.9245    1.1784 H   0  0  0  0  0  0  0  0  0  0  0  0
    0.1956   -1.6331    0.8608 H   0  0  0  0  0  0  0  0  0  0  0  0
    3.8369   -4.9154    1.4540 H   0  0  0  0  0  0  0  0  0  0  0  0
    5.7373   -2.7247    0.2398 H   0  0  0  0  0  0  0  0  0  0  0  0
    4.9833   -0.6535   -1.5701 H   0  0  0  0  0  0  0  0  0  0  0  0
    3.6752    0.5474   -1.4466 H   0  0  0  0  0  0  0  0  0  0  0  0
    4.4638    0.9750    1.0251 H   0  0  0  0  0  0  0  0  0  0  0  0
    7.2865    0.4312   -1.6944 H   0  0  0  0  0  0  0  0  0  0  0  0
    8.0336   -0.5566   -0.4160 H   0  0  0  0  0  0  0  0  0  0  0  0
    6.5026   -1.0753   -1.1612 H   0  0  0  0  0  0  0  0  0  0  0  0
    7.2682    0.7538    2.1061 H   0  0  0  0  0  0  0  0  0  0  0  0
    7.9953    1.7310    0.8082 H   0  0  0  0  0  0  0  0  0  0  0  0
    6.4441    2.2225    1.5298 H   0  0  0  0  0  0  0  0  0  0  0  0
    1.2823    5.7060   -1.4378 H   0  0  0  0  0  0  0  0  0  0  0  0
   -3.0706    4.6168    1.6322 H   0  0  0  0  0  0  0  0  0  0  0  0
   -5.0189    0.9572    2.6947 H   0  0  0  0  0  0  0  0  0  0  0  0
   -4.4582    2.4344    1.8750 H   0  0  0  0  0  0  0  0  0  0  0  0
   -6.0363    1.7271    1.4536 H   0  0  0  0  0  0  0  0  0  0  0  0
   -6.2133   -5.3460   -1.9697 H   0  0  0  0  0  0  0  0  0  0  0  0
   -7.7136   -4.5380   -1.4555 H   0  0  0  0  0  0  0  0  0  0  0  0
   -6.7321   -3.8415   -2.7669 H   0  0  0  0  0  0  0  0  0  0  0  0
  1  2  1  0  0  0  0
  2  3  2  0  0  0  0
  3  4  1  0  0  0  0
  4  5  1  0  0  0  0
  5  6  1  0  0  0  0
  6  7  2  0  0  0  0
  7  8  1  0  0  0  0
  8  9  1  0  0  0  0
  9 10  2  0  0  0  0
 10 11  1  0  0  0  0
 11 12  2  0  0  0  0
 12 13  1  0  0  0  0
 13 14  2  0  0  0  0
  9 14  1  0  0  0  0
 14 15  1  0  0  0  0
 15 16  2  0  0  0  0
 16 17  1  0  0  0  0
 17 18  2  0  0  0  0
 18 19  1  0  0  0  0
 19 20  2  0  0  0  0
 20 21  1  0  0  0  0
 21 22  2  0  0  0  0
 17 22  1  0  0  0  0
 20 23  1  0  0  0  0
 19 24  1  0  0  0  0
 18 25  1  0  0  0  0
 25 26  1  0  0  0  0
 26 27  2  0  0  0  0
 27 28  1  0  0  0  0
 27 29  1  0  0  0  0
 12 30  1  0  0  0  0
 10 31  1  0  0  0  0
  6 32  1  0  0  0  0
  2 33  1  0  0  0  0
  1 34  1  0  0  0  0
  1 35  1  0  0  0  0
  1 36  1  0  0  0  0
  3 37  1  0  0  0  0
  4 38  1  0  0  0  0
  4 39  1  0  0  0  0
  5 40  1  0  0  0  0
  5 41  1  0  0  0  0
  7 42  1  0  0  0  0
  8 43  1  0  0  0  0
  8 44  1  0  0  0  0
 11 45  1  0  0  0  0
 13 46  1  0  0  0  0
 15 47  1  0  0  0  0
 16 48  1  0  0  0  0
 21 49  1  0  0  0  0
 22 50  1  0  0  0  0
 23 51  1  0  0  0  0
 24 52  1  0  0  0  0
 25 53  1  0  0  0  0
 25 54  1  0  0  0  0
 26 55  1  0  0  0  0
 28 56  1  0  0  0  0
 28 57  1  0  0  0  0
 28 58  1  0  0  0  0
 29 59  1  0  0  0  0
 29 60  1  0  0  0  0
 29 61  1  0  0  0  0
 30 62  1  0  0  0  0
 31 63  1  0  0  0  0
 32 64  1  0  0  0  0
 32 65  1  0  0  0  0
 32 66  1  0  0  0  0
 33 67  1  0  0  0  0
 33 68  1  0  0  0  0
 33 69  1  0  0  0  0
M  END
$$$$
