C26H16N2O4
APtclcactv06281817283D 0   0.00000     0.00000
 
 48 53  0  0  0  0  0  0  0  0999 V2000
   -0.5463   -2.3810   -1.4221 C   0  0  0  0  0  0  0  0  0  0  0  0
   -1.3583   -1.2984   -0.7591 C   0  0  0  0  0  0  0  0  0  0  0  0
   -0.7339   -0.3181   -0.0560 C   0  0  0  0  0  0  0  0  0  0  0  0
   -1.5242    0.7528    0.6002 C   0  0  0  0  0  0  0  0  0  0  0  0
   -0.9606    1.6269    1.2271 O   0  0  0  0  0  0  0  0  0  0  0  0
   -2.9971    0.7545    0.4895 C   0  0  0  0  0  0  0  0  0  0  0  0
   -3.6225   -0.2487   -0.2289 C   0  0  0  0  0  0  0  0  0  0  0  0
   -2.8254   -1.3028   -0.8802 C   0  0  0  0  0  0  0  0  0  0  0  0
   -3.3802   -2.1821   -1.5104 O   0  0  0  0  0  0  0  0  0  0  0  0
   -5.0621    0.0193   -0.1580 C   0  0  0  0  0  0  0  0  0  0  0  0
   -6.1927   -0.6196   -0.6702 C   0  0  0  0  0  0  0  0  0  0  0  0
   -7.4341   -0.1072   -0.4203 C   0  0  0  0  0  0  0  0  0  0  0  0
   -7.5809    1.0463    0.3400 C   0  0  0  0  0  0  0  0  0  0  0  0
   -6.4808    1.6937    0.8551 C   0  0  0  0  0  0  0  0  0  0  0  0
   -5.2038    1.1896    0.6146 C   0  0  0  0  0  0  0  0  0  0  0  0
   -3.9491    1.6043    0.9865 N   0  0  0  0  0  0  0  0  0  0  0  0
    0.7338   -0.3183    0.0558 C   0  0  0  0  0  0  0  0  0  0  0  0
    1.3578   -1.2981    0.7599 C   0  0  0  0  0  0  0  0  0  0  0  0
    2.8252   -1.3055    0.8771 C   0  0  0  0  0  0  0  0  0  0  0  0
    3.3796   -2.1844    1.5083 O   0  0  0  0  0  0  0  0  0  0  0  0
    3.6225   -0.2491    0.2299 C   0  0  0  0  0  0  0  0  0  0  0  0
    2.9973    0.7533   -0.4900 C   0  0  0  0  0  0  0  0  0  0  0  0
    1.5249    0.7484   -0.6062 C   0  0  0  0  0  0  0  0  0  0  0  0
    0.9617    1.6213   -1.2351 O   0  0  0  0  0  0  0  0  0  0  0  0
    3.9495    1.6030   -0.9869 N   0  0  0  0  0  0  0  0  0  0  0  0
    5.2040    1.1891   -0.6134 C   0  0  0  0  0  0  0  0  0  0  0  0
    6.4810    1.6935   -0.8530 C   0  0  0  0  0  0  0  0  0  0  0  0
    7.5808    1.0478   -0.3352 C   0  0  0  0  0  0  0  0  0  0  0  0
    7.4337   -0.1051    0.4259 C   0  0  0  0  0  0  0  0  0  0  0  0
    6.1924   -0.6186    0.6739 C   0  0  0  0  0  0  0  0  0  0  0  0
    5.0620    0.0193    0.1600 C   0  0  0  0  0  0  0  0  0  0  0  0
    0.5455   -2.3802    1.4233 C   0  0  0  0  0  0  0  0  0  0  0  0
   -0.4258   -3.2178   -0.7341 H   0  0  0  0  0  0  0  0  0  0  0  0
   -1.0599   -2.7211   -2.3214 H   0  0  0  0  0  0  0  0  0  0  0  0
    0.4340   -1.9872   -1.6905 H   0  0  0  0  0  0  0  0  0  0  0  0
   -6.0862   -1.5162   -1.2627 H   0  0  0  0  0  0  0  0  0  0  0  0
   -8.3080   -0.6023   -0.8171 H   0  0  0  0  0  0  0  0  0  0  0  0
   -8.5690    1.4394    0.5286 H   0  0  0  0  0  0  0  0  0  0  0  0
   -6.6069    2.5898    1.4445 H   0  0  0  0  0  0  0  0  0  0  0  0
   -3.7630    2.3889    1.5256 H   0  0  0  0  0  0  0  0  0  0  0  0
    3.7637    2.3870   -1.5271 H   0  0  0  0  0  0  0  0  0  0  0  0
    6.6074    2.5886   -1.4439 H   0  0  0  0  0  0  0  0  0  0  0  0
    8.5689    1.4414   -0.5228 H   0  0  0  0  0  0  0  0  0  0  0  0
    8.3074   -0.5993    0.8244 H   0  0  0  0  0  0  0  0  0  0  0  0
    6.0858   -1.5156    1.2658 H   0  0  0  0  0  0  0  0  0  0  0  0
    0.4007   -3.2052    0.7257 H   0  0  0  0  0  0  0  0  0  0  0  0
    1.0725   -2.7400    2.3070 H   0  0  0  0  0  0  0  0  0  0  0  0
   -0.4242   -1.9783    1.7170 H   0  0  0  0  0  0  0  0  0  0  0  0
  1  2  1  0  0  0  0
  2  3  2  0  0  0  0
  3  4  1  0  0  0  0
  4  5  2  0  0  0  0
  4  6  1  0  0  0  0
  6  7  2  0  0  0  0
  7  8  1  0  0  0  0
  2  8  1  0  0  0  0
  8  9  2  0  0  0  0
  7 10  1  0  0  0  0
 10 11  2  0  0  0  0
 11 12  1  0  0  0  0
 12 13  2  0  0  0  0
 13 14  1  0  0  0  0
 14 15  2  0  0  0  0
 10 15  1  0  0  0  0
 15 16  1  0  0  0  0
  6 16  1  0  0  0  0
  3 17  1  0  0  0  0
 17 18  2  0  0  0  0
 18 19  1  0  0  0  0
 19 20  2  0  0  0  0
 19 21  1  0  0  0  0
 21 22  2  0  0  0  0
 22 23  1  0  0  0  0
 17 23  1  0  0  0  0
 23 24  2  0  0  0  0
 22 25  1  0  0  0  0
 25 26  1  0  0  0  0
 26 27  2  0  0  0  0
 27 28  1  0  0  0  0
 28 29  2  0  0  0  0
 29 30  1  0  0  0  0
 30 31  2  0  0  0  0
 26 31  1  0  0  0  0
 21 31  1  0  0  0  0
 18 32  1  0  0  0  0
  1 33  1  0  0  0  0
  1 34  1  0  0  0  0
  1 35  1  0  0  0  0
 11 36  1  0  0  0  0
 12 37  1  0  0  0  0
 13 38  1  0  0  0  0
 14 39  1  0  0  0  0
 16 40  1  0  0  0  0
 25 41  1  0  0  0  0
 27 42  1  0  0  0  0
 28 43  1  0  0  0  0
 29 44  1  0  0  0  0
 30 45  1  0  0  0  0
 32 46  1  0  0  0  0
 32 47  1  0  0  0  0
 32 48  1  0  0  0  0
M  END
$$$$
