C18H14O6
APtclcactv06281817283D 0   0.00000     0.00000
 
 38 41  0  0  0  0  0  0  0  0999 V2000
    6.4192   -2.2087   -0.0031 C   0  0  0  0  0  0  0  0  0  0  0  0
    5.0180   -2.4750    0.0861 O   0  0  0  0  0  0  0  0  0  0  0  0
    4.1842   -1.4040    0.0585 C   0  0  0  0  0  0  0  0  0  0  0  0
    2.8155   -1.5973    0.1412 C   0  0  0  0  0  0  0  0  0  0  0  0
    1.9623   -0.5031    0.1135 C   0  0  0  0  0  0  0  0  0  0  0  0
    2.5043    0.7889    0.0016 C   0  0  0  0  0  0  0  0  0  0  0  0
    3.8861    0.9671   -0.0812 C   0  0  0  0  0  0  0  0  0  0  0  0
    4.7130   -0.1193   -0.0469 C   0  0  0  0  0  0  0  0  0  0  0  0
    1.5820    1.9382   -0.0262 C   0  0  0  0  0  0  0  0  0  0  0  0
    1.9968    3.0821   -0.1223 O   0  0  0  0  0  0  0  0  0  0  0  0
    0.1940    1.6628    0.0628 C   0  0  0  0  0  0  0  0  0  0  0  0
   -0.2281    0.3708    0.1686 C   0  0  0  0  0  0  0  0  0  0  0  0
    0.6256   -0.6668    0.1922 O   0  0  0  0  0  0  0  0  0  0  0  0
   -1.6748    0.1019    0.2606 C   0  0  0  0  0  0  0  0  0  0  0  0
   -2.2571   -0.8829   -0.5423 C   0  0  0  0  0  0  0  0  0  0  0  0
   -3.6132   -1.1315   -0.4529 C   0  0  0  0  0  0  0  0  0  0  0  0
   -4.3990   -0.3997    0.4379 C   0  0  0  0  0  0  0  0  0  0  0  0
   -3.8200    0.5783    1.2350 C   0  0  0  0  0  0  0  0  0  0  0  0
   -2.4670    0.8272    1.1551 C   0  0  0  0  0  0  0  0  0  0  0  0
   -5.6893   -0.8314    0.3354 O   0  0  0  0  0  0  0  0  0  0  0  0
   -5.6167   -2.1088   -0.3248 C   0  0  0  0  0  0  0  0  0  0  0  0
   -4.4138   -2.0204   -1.1110 O   0  0  0  0  0  0  0  0  0  0  0  0
   -0.7097    2.6801    0.0431 O   0  0  0  0  0  0  0  0  0  0  0  0
   -0.8128    3.4330   -1.1672 C   0  0  0  0  0  0  0  0  0  0  0  0
    6.7233   -1.5791    0.8332 H   0  0  0  0  0  0  0  0  0  0  0  0
    6.9705   -3.1484    0.0304 H   0  0  0  0  0  0  0  0  0  0  0  0
    6.6326   -1.6954   -0.9407 H   0  0  0  0  0  0  0  0  0  0  0  0
    2.4134   -2.5960    0.2265 H   0  0  0  0  0  0  0  0  0  0  0  0
    4.3002    1.9609   -0.1671 H   0  0  0  0  0  0  0  0  0  0  0  0
    5.7824    0.0176   -0.1105 H   0  0  0  0  0  0  0  0  0  0  0  0
   -1.6479   -1.4485   -1.2318 H   0  0  0  0  0  0  0  0  0  0  0  0
   -4.4313    1.1428    1.9235 H   0  0  0  0  0  0  0  0  0  0  0  0
   -2.0204    1.5890    1.7769 H   0  0  0  0  0  0  0  0  0  0  0  0
   -5.5382   -2.9136    0.4060 H   0  0  0  0  0  0  0  0  0  0  0  0
   -6.4843   -2.2573   -0.9678 H   0  0  0  0  0  0  0  0  0  0  0  0
   -1.6334    4.1455   -1.0831 H   0  0  0  0  0  0  0  0  0  0  0  0
    0.1192    3.9710   -1.3408 H   0  0  0  0  0  0  0  0  0  0  0  0
   -1.0027    2.7568   -2.0007 H   0  0  0  0  0  0  0  0  0  0  0  0
  1  2  1  0  0  0  0
  2  3  1  0  0  0  0
  3  4  2  0  0  0  0
  4  5  1  0  0  0  0
  5  6  2  0  0  0  0
  6  7  1  0  0  0  0
  7  8  2  0  0  0  0
  3  8  1  0  0  0  0
  6  9  1  0  0  0  0
  9 10  2  0  0  0  0
  9 11  1  0  0  0  0
 11 12  2  0  0  0  0
 12 13  1  0  0  0  0
  5 13  1  0  0  0  0
 12 14  1  0  0  0  0
 14 15  2  0  0  0  0
 15 16  1  0  0  0  0
 16 17  2  0  0  0  0
 17 18  1  0  0  0  0
 18 19  2  0  0  0  0
 14 19  1  0  0  0  0
 17 20  1  0  0  0  0
 20 21  1  0  0  0  0
 21 22  1  0  0  0  0
 16 22  1  0  0  0  0
 11 23  1  0  0  0  0
 23 24  1  0  0  0  0
  1 25  1  0  0  0  0
  1 26  1  0  0  0  0
  1 27  1  0  0  0  0
  4 28  1  0  0  0  0
  7 29  1  0  0  0  0
  8 30  1  0  0  0  0
 15 31  1  0  0  0  0
 18 32  1  0  0  0  0
 19 33  1  0  0  0  0
 21 34  1  0  0  0  0
 21 35  1  0  0  0  0
 24 36  1  0  0  0  0
 24 37  1  0  0  0  0
 24 38  1  0  0  0  0
M  END
$$$$
