C13H18O2
APtclcactv06281817283D 0   0.00000     0.00000
 
 33 33  0  0  0  0  0  0  0  0999 V2000
   -4.4906    1.5850    0.6383 C   0  0  0  0  0  0  0  0  0  0  0  0
   -4.7171    0.2770   -0.0750 C   0  0  0  0  0  0  0  0  0  0  0  0
   -3.7088   -0.3511   -0.6272 C   0  0  0  0  0  0  0  0  0  0  0  0
   -2.3061    0.1689   -0.4451 C   0  0  0  0  0  0  0  0  0  0  0  0
   -1.4304   -0.9189   -0.1419 O   0  0  0  0  0  0  0  0  0  0  0  0
   -0.1193   -0.6194    0.0534 C   0  0  0  0  0  0  0  0  0  0  0  0
    0.7866   -1.6270    0.3513 C   0  0  0  0  0  0  0  0  0  0  0  0
    2.1189   -1.3201    0.5495 C   0  0  0  0  0  0  0  0  0  0  0  0
    2.5497   -0.0099    0.4511 C   0  0  0  0  0  0  0  0  0  0  0  0
    1.6487    0.9961    0.1548 C   0  0  0  0  0  0  0  0  0  0  0  0
    0.3165    0.6936   -0.0503 C   0  0  0  0  0  0  0  0  0  0  0  0
    4.0036    0.3221    0.6677 C   0  0  0  0  0  0  0  0  0  0  0  0
    4.7485    0.2457   -0.6665 C   0  0  0  0  0  0  0  0  0  0  0  0
    6.1272    0.5605   -0.4611 O   0  0  0  0  0  0  0  0  0  0  0  0
   -6.1035   -0.3085   -0.1530 C   0  0  0  0  0  0  0  0  0  0  0  0
   -3.9937    2.2843   -0.0342 H   0  0  0  0  0  0  0  0  0  0  0  0
   -5.4492    1.9997    0.9500 H   0  0  0  0  0  0  0  0  0  0  0  0
   -3.8650    1.4173    1.5150 H   0  0  0  0  0  0  0  0  0  0  0  0
   -3.8827   -1.2416   -1.2130 H   0  0  0  0  0  0  0  0  0  0  0  0
   -1.9768    0.6554   -1.3633 H   0  0  0  0  0  0  0  0  0  0  0  0
   -2.2888    0.8884    0.3736 H   0  0  0  0  0  0  0  0  0  0  0  0
    0.4505   -2.6505    0.4286 H   0  0  0  0  0  0  0  0  0  0  0  0
    2.8244   -2.1041    0.7817 H   0  0  0  0  0  0  0  0  0  0  0  0
    1.9876    2.0188    0.0792 H   0  0  0  0  0  0  0  0  0  0  0  0
   -0.3869    1.4797   -0.2818 H   0  0  0  0  0  0  0  0  0  0  0  0
    4.0895    1.3297    1.0746 H   0  0  0  0  0  0  0  0  0  0  0  0
    4.4387   -0.3909    1.3681 H   0  0  0  0  0  0  0  0  0  0  0  0
    4.6626   -0.7619   -1.0734 H   0  0  0  0  0  0  0  0  0  0  0  0
    4.3134    0.9586   -1.3669 H   0  0  0  0  0  0  0  0  0  0  0  0
    6.6615    0.5315   -1.2666 H   0  0  0  0  0  0  0  0  0  0  0  0
   -6.6026    0.0578   -1.0501 H   0  0  0  0  0  0  0  0  0  0  0  0
   -6.0370   -1.3958   -0.1925 H   0  0  0  0  0  0  0  0  0  0  0  0
   -6.6736   -0.0111    0.7271 H   0  0  0  0  0  0  0  0  0  0  0  0
  1  2  1  0  0  0  0
  2  3  2  0  0  0  0
  3  4  1  0  0  0  0
  4  5  1  0  0  0  0
  5  6  1  0  0  0  0
  6  7  2  0  0  0  0
  7  8  1  0  0  0  0
  8  9  2  0  0  0  0
  9 10  1  0  0  0  0
 10 11  2  0  0  0  0
  6 11  1  0  0  0  0
  9 12  1  0  0  0  0
 12 13  1  0  0  0  0
 13 14  1  0  0  0  0
  2 15  1  0  0  0  0
  1 16  1  0  0  0  0
  1 17  1  0  0  0  0
  1 18  1  0  0  0  0
  3 19  1  0  0  0  0
  4 20  1  0  0  0  0
  4 21  1  0  0  0  0
  7 22  1  0  0  0  0
  8 23  1  0  0  0  0
 10 24  1  0  0  0  0
 11 25  1  0  0  0  0
 12 26  1  0  0  0  0
 12 27  1  0  0  0  0
 13 28  1  0  0  0  0
 13 29  1  0  0  0  0
 14 30  1  0  0  0  0
 15 31  1  0  0  0  0
 15 32  1  0  0  0  0
 15 33  1  0  0  0  0
M  END
$$$$
