C15H24
APtclcactv06211804463D 0   0.00000     0.00000
 
 39 38  0  0  0  0  0  0  0  0999 V2000
   -3.8065    1.8941   -0.8124 C   0  0  0  0  0  0  0  0  0  0  0  0
   -4.5465    0.7474   -0.1733 C   0  0  0  0  0  0  0  0  0  0  0  0
   -3.9560   -0.4128   -0.0268 C   0  0  0  0  0  0  0  0  0  0  0  0
   -2.5016   -0.5691   -0.3892 C   0  0  0  0  0  0  0  0  0  0  0  0
   -1.7359   -1.1364    0.8077 C   0  0  0  0  0  0  0  0  0  0  0  0
   -0.2815   -1.2928    0.4453 C   0  0  0  0  0  0  0  0  0  0  0  0
    0.5736   -0.3466    0.7450 C   0  0  0  0  0  0  0  0  0  0  0  0
    2.0419   -0.5425    0.4678 C   0  0  0  0  0  0  0  0  0  0  0  0
    2.5616    0.6237   -0.3753 C   0  0  0  0  0  0  0  0  0  0  0  0
    4.0299    0.4279   -0.6526 C   0  0  0  0  0  0  0  0  0  0  0  0
    4.4212   -0.1495   -1.7835 C   0  0  0  0  0  0  0  0  0  0  0  0
    5.0300    0.8760    0.3290 C   0  0  0  0  0  0  0  0  0  0  0  0
    4.6387    1.4534    1.4599 C   0  0  0  0  0  0  0  0  0  0  0  0
    0.1893   -2.5375   -0.2618 C   0  0  0  0  0  0  0  0  0  0  0  0
   -5.9658    0.9352    0.2972 C   0  0  0  0  0  0  0  0  0  0  0  0
   -3.4359    1.5874   -1.7905 H   0  0  0  0  0  0  0  0  0  0  0  0
   -4.4814    2.7421   -0.9291 H   0  0  0  0  0  0  0  0  0  0  0  0
   -2.9670    2.1824   -0.1798 H   0  0  0  0  0  0  0  0  0  0  0  0
   -4.5115   -1.2572    0.3537 H   0  0  0  0  0  0  0  0  0  0  0  0
   -2.4092   -1.2499   -1.2355 H   0  0  0  0  0  0  0  0  0  0  0  0
   -2.0876    0.4028   -0.6579 H   0  0  0  0  0  0  0  0  0  0  0  0
   -1.8283   -0.4557    1.6540 H   0  0  0  0  0  0  0  0  0  0  0  0
   -2.1499   -2.1083    1.0763 H   0  0  0  0  0  0  0  0  0  0  0  0
    0.2263    0.5737    1.1908 H   0  0  0  0  0  0  0  0  0  0  0  0
    2.5877   -0.5809    1.4105 H   0  0  0  0  0  0  0  0  0  0  0  0
    2.1877   -1.4765   -0.0749 H   0  0  0  0  0  0  0  0  0  0  0  0
    2.0158    0.6622   -1.3180 H   0  0  0  0  0  0  0  0  0  0  0  0
    2.4158    1.5577    0.1674 H   0  0  0  0  0  0  0  0  0  0  0  0
    5.4735   -0.2898   -1.9822 H   0  0  0  0  0  0  0  0  0  0  0  0
    3.6870   -0.4784   -2.5040 H   0  0  0  0  0  0  0  0  0  0  0  0
    6.0823    0.7357    0.1302 H   0  0  0  0  0  0  0  0  0  0  0  0
    3.5865    1.5937    1.6586 H   0  0  0  0  0  0  0  0  0  0  0  0
    5.3729    1.7823    2.1804 H   0  0  0  0  0  0  0  0  0  0  0  0
    0.2151   -2.3571   -1.3365 H   0  0  0  0  0  0  0  0  0  0  0  0
    1.1886   -2.7977    0.0870 H   0  0  0  0  0  0  0  0  0  0  0  0
   -0.4954   -3.3581   -0.0476 H   0  0  0  0  0  0  0  0  0  0  0  0
   -6.6526    0.6885   -0.5124 H   0  0  0  0  0  0  0  0  0  0  0  0
   -6.1563    0.2805    1.1475 H   0  0  0  0  0  0  0  0  0  0  0  0
   -6.1149    1.9726    0.5968 H   0  0  0  0  0  0  0  0  0  0  0  0
  1  2  1  0  0  0  0
  2  3  2  0  0  0  0
  3  4  1  0  0  0  0
  4  5  1  0  0  0  0
  5  6  1  0  0  0  0
  6  7  2  0  0  0  0
  7  8  1  0  0  0  0
  8  9  1  0  0  0  0
  9 10  1  0  0  0  0
 10 11  2  0  0  0  0
 10 12  1  0  0  0  0
 12 13  2  0  0  0  0
  6 14  1  0  0  0  0
  2 15  1  0  0  0  0
  1 16  1  0  0  0  0
  1 17  1  0  0  0  0
  1 18  1  0  0  0  0
  3 19  1  0  0  0  0
  4 20  1  0  0  0  0
  4 21  1  0  0  0  0
  5 22  1  0  0  0  0
  5 23  1  0  0  0  0
  7 24  1  0  0  0  0
  8 25  1  0  0  0  0
  8 26  1  0  0  0  0
  9 27  1  0  0  0  0
  9 28  1  0  0  0  0
 11 29  1  0  0  0  0
 11 30  1  0  0  0  0
 12 31  1  0  0  0  0
 13 32  1  0  0  0  0
 13 33  1  0  0  0  0
 14 34  1  0  0  0  0
 14 35  1  0  0  0  0
 14 36  1  0  0  0  0
 15 37  1  0  0  0  0
 15 38  1  0  0  0  0
 15 39  1  0  0  0  0
M  END
$$$$
