C10H18O2
APtclcactv06211804463D 0   0.00000     0.00000
 
 30 29  0  0  0  0  0  0  0  0999 V2000
    1.3168    1.7332    0.1471 C   0  0  0  0  0  0  0  0  0  0  0  0
    1.0052    0.2388    0.0439 C   0  0  0  0  0  0  0  0  0  0  0  0
   -0.3309    0.0450   -0.6760 C   0  0  0  0  0  0  0  0  0  0  0  0
   -1.4582    0.6358    0.1732 C   0  0  0  0  0  0  0  0  0  0  0  0
   -2.7741    0.4449   -0.5359 C   0  0  0  0  0  0  0  0  0  0  0  0
   -3.7406   -0.2216    0.0452 C   0  0  0  0  0  0  0  0  0  0  0  0
   -3.4949   -0.9098    1.3632 C   0  0  0  0  0  0  0  0  0  0  0  0
   -5.0982   -0.3003   -0.6043 C   0  0  0  0  0  0  0  0  0  0  0  0
    2.1150   -0.4603   -0.7438 C   0  0  0  0  0  0  0  0  0  0  0  0
    3.4077   -0.3749    0.0261 C   0  0  0  0  0  0  0  0  0  0  0  0
    3.4382    0.1875    1.0951 O   0  0  0  0  0  0  0  0  0  0  0  0
    4.5252   -0.9236   -0.4757 O   0  0  0  0  0  0  0  0  0  0  0  0
    1.3776    2.1616   -0.8533 H   0  0  0  0  0  0  0  0  0  0  0  0
    0.5261    2.2313    0.7083 H   0  0  0  0  0  0  0  0  0  0  0  0
    2.2686    1.8713    0.6600 H   0  0  0  0  0  0  0  0  0  0  0  0
    0.9444   -0.1896    1.0443 H   0  0  0  0  0  0  0  0  0  0  0  0
   -0.3001    0.5503   -1.6413 H   0  0  0  0  0  0  0  0  0  0  0  0
   -0.5104   -1.0192   -0.8285 H   0  0  0  0  0  0  0  0  0  0  0  0
   -1.4889    0.1305    1.1385 H   0  0  0  0  0  0  0  0  0  0  0  0
   -1.2786    1.7001    0.3257 H   0  0  0  0  0  0  0  0  0  0  0  0
   -2.9205    0.8576   -1.5232 H   0  0  0  0  0  0  0  0  0  0  0  0
   -3.6339   -0.1975    2.1765 H   0  0  0  0  0  0  0  0  0  0  0  0
   -4.1977   -1.7349    1.4789 H   0  0  0  0  0  0  0  0  0  0  0  0
   -2.4754   -1.2947    1.3876 H   0  0  0  0  0  0  0  0  0  0  0  0
   -5.0845    0.2536   -1.5430 H   0  0  0  0  0  0  0  0  0  0  0  0
   -5.3469   -1.3431   -0.8013 H   0  0  0  0  0  0  0  0  0  0  0  0
   -5.8452    0.1318    0.0617 H   0  0  0  0  0  0  0  0  0  0  0  0
    1.8500   -1.5069   -0.8939 H   0  0  0  0  0  0  0  0  0  0  0  0
    2.2357    0.0264   -1.7116 H   0  0  0  0  0  0  0  0  0  0  0  0
    5.3300   -0.8433    0.0544 H   0  0  0  0  0  0  0  0  0  0  0  0
  1  2  1  0  0  0  0
  2  3  1  0  0  0  0
  3  4  1  0  0  0  0
  4  5  1  0  0  0  0
  5  6  2  0  0  0  0
  6  7  1  0  0  0  0
  6  8  1  0  0  0  0
  2  9  1  0  0  0  0
  9 10  1  0  0  0  0
 10 11  2  0  0  0  0
 10 12  1  0  0  0  0
  1 13  1  0  0  0  0
  1 14  1  0  0  0  0
  1 15  1  0  0  0  0
  2 16  1  0  0  0  0
  3 17  1  0  0  0  0
  3 18  1  0  0  0  0
  4 19  1  0  0  0  0
  4 20  1  0  0  0  0
  5 21  1  0  0  0  0
  7 22  1  0  0  0  0
  7 23  1  0  0  0  0
  7 24  1  0  0  0  0
  8 25  1  0  0  0  0
  8 26  1  0  0  0  0
  8 27  1  0  0  0  0
  9 28  1  0  0  0  0
  9 29  1  0  0  0  0
 12 30  1  0  0  0  0
M  END
$$$$
