C30H18O10
APtclcactv06281817283D 0   0.00000     0.00000
 
 58 63  0  0  0  0  0  0  0  0999 V2000
   -3.7319   -3.3468    0.1984 C   0  0  0  0  0  0  0  0  0  0  0  0
   -3.8399   -4.5819   -0.4015 C   0  0  0  0  0  0  0  0  0  0  0  0
   -3.0812   -4.8785   -1.5274 C   0  0  0  0  0  0  0  0  0  0  0  0
   -2.2111   -3.9310   -2.0533 C   0  0  0  0  0  0  0  0  0  0  0  0
   -2.0972   -2.6933   -1.4600 C   0  0  0  0  0  0  0  0  0  0  0  0
   -2.8581   -2.3909   -0.3272 C   0  0  0  0  0  0  0  0  0  0  0  0
   -2.7398   -1.0664    0.3113 C   0  0  0  0  0  0  0  0  0  0  0  0
   -3.8656   -0.4617    0.7779 C   0  0  0  0  0  0  0  0  0  0  0  0
   -3.7705    0.8086    1.3935 C   0  0  0  0  0  0  0  0  0  0  0  0
   -4.7592    1.3802    1.8238 O   0  0  0  0  0  0  0  0  0  0  0  0
   -2.4315    1.4143    1.4953 C   0  0  0  0  0  0  0  0  0  0  0  0
   -1.3354    0.7045    0.9811 C   0  0  0  0  0  0  0  0  0  0  0  0
   -1.5246   -0.5055    0.4151 O   0  0  0  0  0  0  0  0  0  0  0  0
   -0.0560    1.2621    1.0679 C   0  0  0  0  0  0  0  0  0  0  0  0
    0.1160    2.5153    1.6636 C   0  0  0  0  0  0  0  0  0  0  0  0
   -0.9741    3.2102    2.1695 C   0  0  0  0  0  0  0  0  0  0  0  0
   -2.2450    2.6697    2.0895 C   0  0  0  0  0  0  0  0  0  0  0  0
   -3.3078    3.3527    2.5857 O   0  0  0  0  0  0  0  0  0  0  0  0
    1.3581    3.0563    1.7481 O   0  0  0  0  0  0  0  0  0  0  0  0
    1.1124    0.5279    0.5314 C   0  0  0  0  0  0  0  0  0  0  0  0
    1.6040    0.7966   -0.7348 C   0  0  0  0  0  0  0  0  0  0  0  0
    2.6516    0.1369   -1.2496 O   0  0  0  0  0  0  0  0  0  0  0  0
    3.4782   -0.5940   -0.4752 C   0  0  0  0  0  0  0  0  0  0  0  0
    4.7180   -0.9922   -0.9547 C   0  0  0  0  0  0  0  0  0  0  0  0
    5.5609   -1.7519   -0.1590 C   0  0  0  0  0  0  0  0  0  0  0  0
    5.1795   -2.1267    1.1245 C   0  0  0  0  0  0  0  0  0  0  0  0
    3.9495   -1.7379    1.6230 C   0  0  0  0  0  0  0  0  0  0  0  0
    3.0969   -0.9634    0.8270 C   0  0  0  0  0  0  0  0  0  0  0  0
    1.7909   -0.5059    1.3301 C   0  0  0  0  0  0  0  0  0  0  0  0
    1.2966   -0.9603    2.3487 O   0  0  0  0  0  0  0  0  0  0  0  0
    3.5717   -2.1046    2.8738 O   0  0  0  0  0  0  0  0  0  0  0  0
    6.7720   -2.1346   -0.6381 O   0  0  0  0  0  0  0  0  0  0  0  0
    0.9540    1.8417   -1.5435 C   0  0  0  0  0  0  0  0  0  0  0  0
    1.7235    2.8415   -2.1476 C   0  0  0  0  0  0  0  0  0  0  0  0
    1.1110    3.8167   -2.9028 C   0  0  0  0  0  0  0  0  0  0  0  0
   -0.2692    3.8085   -3.0652 C   0  0  0  0  0  0  0  0  0  0  0  0
   -1.0381    2.8174   -2.4667 C   0  0  0  0  0  0  0  0  0  0  0  0
   -0.4343    1.8344   -1.7147 C   0  0  0  0  0  0  0  0  0  0  0  0
   -0.8685    4.7721   -3.8108 O   0  0  0  0  0  0  0  0  0  0  0  0
   -3.1901   -6.0975   -2.1151 O   0  0  0  0  0  0  0  0  0  0  0  0
   -4.3249   -3.1157    1.0709 H   0  0  0  0  0  0  0  0  0  0  0  0
   -4.5149   -5.3211    0.0040 H   0  0  0  0  0  0  0  0  0  0  0  0
   -1.6231   -4.1658   -2.9282 H   0  0  0  0  0  0  0  0  0  0  0  0
   -1.4208   -1.9576   -1.8694 H   0  0  0  0  0  0  0  0  0  0  0  0
   -4.8250   -0.9476    0.6787 H   0  0  0  0  0  0  0  0  0  0  0  0
   -0.8292    4.1773    2.6279 H   0  0  0  0  0  0  0  0  0  0  0  0
   -3.7319    3.9399    1.9450 H   0  0  0  0  0  0  0  0  0  0  0  0
    1.6020    3.6019    0.9879 H   0  0  0  0  0  0  0  0  0  0  0  0
    5.0266   -0.7097   -1.9504 H   0  0  0  0  0  0  0  0  0  0  0  0
    5.8443   -2.7223    1.7326 H   0  0  0  0  0  0  0  0  0  0  0  0
    3.8268   -1.4752    3.5621 H   0  0  0  0  0  0  0  0  0  0  0  0
    7.4840   -1.5067   -0.4542 H   0  0  0  0  0  0  0  0  0  0  0  0
    2.7961    2.8489   -2.0216 H   0  0  0  0  0  0  0  0  0  0  0  0
    1.7042    4.5892   -3.3693 H   0  0  0  0  0  0  0  0  0  0  0  0
   -2.1104    2.8155   -2.5955 H   0  0  0  0  0  0  0  0  0  0  0  0
   -1.0326    1.0647   -1.2499 H   0  0  0  0  0  0  0  0  0  0  0  0
   -0.9543    4.5481   -4.7476 H   0  0  0  0  0  0  0  0  0  0  0  0
   -3.8688   -6.1436   -2.8023 H   0  0  0  0  0  0  0  0  0  0  0  0
  1  2  2  0  0  0  0
  2  3  1  0  0  0  0
  3  4  2  0  0  0  0
  4  5  1  0  0  0  0
  5  6  2  0  0  0  0
  1  6  1  0  0  0  0
  6  7  1  0  0  0  0
  7  8  2  0  0  0  0
  8  9  1  0  0  0  0
  9 10  2  0  0  0  0
  9 11  1  0  0  0  0
 11 12  2  0  0  0  0
 12 13  1  0  0  0  0
  7 13  1  0  0  0  0
 12 14  1  0  0  0  0
 14 15  2  0  0  0  0
 15 16  1  0  0  0  0
 16 17  2  0  0  0  0
 11 17  1  0  0  0  0
 17 18  1  0  0  0  0
 15 19  1  0  0  0  0
 14 20  1  0  0  0  0
 20 21  2  0  0  0  0
 21 22  1  0  0  0  0
 22 23  1  0  0  0  0
 23 24  2  0  0  0  0
 24 25  1  0  0  0  0
 25 26  2  0  0  0  0
 26 27  1  0  0  0  0
 27 28  2  0  0  0  0
 23 28  1  0  0  0  0
 28 29  1  0  0  0  0
 20 29  1  0  0  0  0
 29 30  2  0  0  0  0
 27 31  1  0  0  0  0
 25 32  1  0  0  0  0
 21 33  1  0  0  0  0
 33 34  2  0  0  0  0
 34 35  1  0  0  0  0
 35 36  2  0  0  0  0
 36 37  1  0  0  0  0
 37 38  2  0  0  0  0
 33 38  1  0  0  0  0
 36 39  1  0  0  0  0
  3 40  1  0  0  0  0
  1 41  1  0  0  0  0
  2 42  1  0  0  0  0
  4 43  1  0  0  0  0
  5 44  1  0  0  0  0
  8 45  1  0  0  0  0
 16 46  1  0  0  0  0
 18 47  1  0  0  0  0
 19 48  1  0  0  0  0
 24 49  1  0  0  0  0
 26 50  1  0  0  0  0
 31 51  1  0  0  0  0
 32 52  1  0  0  0  0
 34 53  1  0  0  0  0
 35 54  1  0  0  0  0
 37 55  1  0  0  0  0
 38 56  1  0  0  0  0
 39 57  1  0  0  0  0
 40 58  1  0  0  0  0
M  END
$$$$
