C18H18O4
APtclcactv06281817283D 0   0.00000     0.00000
 
 40 41  0  0  0  0  0  0  0  0999 V2000
    3.5476    2.9248    0.1674 C   0  0  0  0  0  0  0  0  0  0  0  0
    2.9644    1.5410    0.0402 C   0  0  0  0  0  0  0  0  0  0  0  0
    3.6657    0.5538   -0.6398 C   0  0  0  0  0  0  0  0  0  0  0  0
    3.1369   -0.7250   -0.7633 C   0  0  0  0  0  0  0  0  0  0  0  0
    1.9064   -1.0248   -0.2090 C   0  0  0  0  0  0  0  0  0  0  0  0
    1.1907   -0.0323    0.4808 C   0  0  0  0  0  0  0  0  0  0  0  0
    1.7351    1.2562    0.6058 C   0  0  0  0  0  0  0  0  0  0  0  0
    1.0520    2.2217    1.2706 O   0  0  0  0  0  0  0  0  0  0  0  0
   -0.1197   -0.3423    1.0735 C   0  0  0  0  0  0  0  0  0  0  0  0
   -0.1849   -0.8138    2.1948 O   0  0  0  0  0  0  0  0  0  0  0  0
   -1.3457   -0.0842    0.3153 C   0  0  0  0  0  0  0  0  0  0  0  0
   -2.5493   -0.2650    0.8971 C   0  0  0  0  0  0  0  0  0  0  0  0
   -3.7814   -0.0056    0.1352 C   0  0  0  0  0  0  0  0  0  0  0  0
   -5.0311   -0.1920    0.7349 C   0  0  0  0  0  0  0  0  0  0  0  0
   -6.1808    0.0532    0.0144 C   0  0  0  0  0  0  0  0  0  0  0  0
   -6.1005    0.4826   -1.2990 C   0  0  0  0  0  0  0  0  0  0  0  0
   -4.8675    0.6694   -1.8995 C   0  0  0  0  0  0  0  0  0  0  0  0
   -3.7086    0.4340   -1.1905 C   0  0  0  0  0  0  0  0  0  0  0  0
    1.3913   -2.2739   -0.3314 O   0  0  0  0  0  0  0  0  0  0  0  0
    1.7170   -3.2134    0.6949 C   0  0  0  0  0  0  0  0  0  0  0  0
    3.9066   -1.7881   -1.5038 C   0  0  0  0  0  0  0  0  0  0  0  0
    4.8741    0.8400   -1.1872 O   0  0  0  0  0  0  0  0  0  0  0  0
    3.2263    3.5336   -0.6777 H   0  0  0  0  0  0  0  0  0  0  0  0
    3.2026    3.3806    1.0955 H   0  0  0  0  0  0  0  0  0  0  0  0
    4.6357    2.8611    0.1765 H   0  0  0  0  0  0  0  0  0  0  0  0
    1.2483    2.2620    2.2166 H   0  0  0  0  0  0  0  0  0  0  0  0
   -1.2863    0.2510   -0.7097 H   0  0  0  0  0  0  0  0  0  0  0  0
   -2.6087   -0.6002    1.9221 H   0  0  0  0  0  0  0  0  0  0  0  0
   -5.0954   -0.5273    1.7595 H   0  0  0  0  0  0  0  0  0  0  0  0
   -7.1466   -0.0906    0.4759 H   0  0  0  0  0  0  0  0  0  0  0  0
   -7.0046    0.6726   -1.8582 H   0  0  0  0  0  0  0  0  0  0  0  0
   -4.8130    1.0046   -2.9247 H   0  0  0  0  0  0  0  0  0  0  0  0
   -2.7472    0.5806   -1.6603 H   0  0  0  0  0  0  0  0  0  0  0  0
    2.7982   -3.3453    0.7370 H   0  0  0  0  0  0  0  0  0  0  0  0
    1.3587   -2.8416    1.6548 H   0  0  0  0  0  0  0  0  0  0  0  0
    1.2426   -4.1700    0.4757 H   0  0  0  0  0  0  0  0  0  0  0  0
    4.5541   -2.3200   -0.8067 H   0  0  0  0  0  0  0  0  0  0  0  0
    3.2089   -2.4906   -1.9598 H   0  0  0  0  0  0  0  0  0  0  0  0
    4.5134   -1.3228   -2.2805 H   0  0  0  0  0  0  0  0  0  0  0  0
    5.6214    0.6864   -0.5930 H   0  0  0  0  0  0  0  0  0  0  0  0
  1  2  1  0  0  0  0
  2  3  2  0  0  0  0
  3  4  1  0  0  0  0
  4  5  2  0  0  0  0
  5  6  1  0  0  0  0
  6  7  2  0  0  0  0
  2  7  1  0  0  0  0
  7  8  1  0  0  0  0
  6  9  1  0  0  0  0
  9 10  2  0  0  0  0
  9 11  1  0  0  0  0
 11 12  2  0  0  0  0
 12 13  1  0  0  0  0
 13 14  2  0  0  0  0
 14 15  1  0  0  0  0
 15 16  2  0  0  0  0
 16 17  1  0  0  0  0
 17 18  2  0  0  0  0
 13 18  1  0  0  0  0
  5 19  1  0  0  0  0
 19 20  1  0  0  0  0
  4 21  1  0  0  0  0
  3 22  1  0  0  0  0
  1 23  1  0  0  0  0
  1 24  1  0  0  0  0
  1 25  1  0  0  0  0
  8 26  1  0  0  0  0
 11 27  1  0  0  0  0
 12 28  1  0  0  0  0
 14 29  1  0  0  0  0
 15 30  1  0  0  0  0
 16 31  1  0  0  0  0
 17 32  1  0  0  0  0
 18 33  1  0  0  0  0
 20 34  1  0  0  0  0
 20 35  1  0  0  0  0
 20 36  1  0  0  0  0
 21 37  1  0  0  0  0
 21 38  1  0  0  0  0
 21 39  1  0  0  0  0
 22 40  1  0  0  0  0
M  END
$$$$
