C19H18O8
APtclcactv06281817283D 0   0.00000     0.00000
 
 45 47  0  0  0  0  0  0  0  0999 V2000
   -5.4811    0.9129   -1.0094 C   0  0  0  0  0  0  0  0  0  0  0  0
   -4.8261    0.6181    0.2260 O   0  0  0  0  0  0  0  0  0  0  0  0
   -3.5051    0.2946    0.1634 C   0  0  0  0  0  0  0  0  0  0  0  0
   -2.5490    1.2963    0.1313 C   0  0  0  0  0  0  0  0  0  0  0  0
   -1.1924    0.9547    0.0674 C   0  0  0  0  0  0  0  0  0  0  0  0
   -0.8027   -0.3958    0.0359 C   0  0  0  0  0  0  0  0  0  0  0  0
   -1.7748   -1.3887    0.0692 C   0  0  0  0  0  0  0  0  0  0  0  0
   -3.1175   -1.0437    0.1374 C   0  0  0  0  0  0  0  0  0  0  0  0
   -4.0632   -2.0199    0.1701 O   0  0  0  0  0  0  0  0  0  0  0  0
   -4.4788   -2.5628   -1.0847 C   0  0  0  0  0  0  0  0  0  0  0  0
   -1.4096   -2.7001    0.0392 O   0  0  0  0  0  0  0  0  0  0  0  0
   -1.2710   -3.3639    1.2971 C   0  0  0  0  0  0  0  0  0  0  0  0
    0.5083   -0.7156   -0.0266 O   0  0  0  0  0  0  0  0  0  0  0  0
    1.4744    0.2178   -0.0609 C   0  0  0  0  0  0  0  0  0  0  0  0
    1.2020    1.5529   -0.0344 C   0  0  0  0  0  0  0  0  0  0  0  0
   -0.1461    1.9893    0.0311 C   0  0  0  0  0  0  0  0  0  0  0  0
   -0.4276    3.1769    0.0569 O   0  0  0  0  0  0  0  0  0  0  0  0
    2.2156    2.4604   -0.0706 O   0  0  0  0  0  0  0  0  0  0  0  0
    2.4033    3.2700    1.0919 C   0  0  0  0  0  0  0  0  0  0  0  0
    2.8812   -0.2186   -0.1291 C   0  0  0  0  0  0  0  0  0  0  0  0
    3.3491   -1.2138    0.7339 C   0  0  0  0  0  0  0  0  0  0  0  0
    4.6640   -1.6187    0.6663 C   0  0  0  0  0  0  0  0  0  0  0  0
    5.5250   -1.0391   -0.2576 C   0  0  0  0  0  0  0  0  0  0  0  0
    5.0643   -0.0495   -1.1174 C   0  0  0  0  0  0  0  0  0  0  0  0
    3.7495    0.3576   -1.0608 C   0  0  0  0  0  0  0  0  0  0  0  0
    6.8207   -1.4407   -0.3202 O   0  0  0  0  0  0  0  0  0  0  0  0
   -2.9250    2.6021    0.1613 O   0  0  0  0  0  0  0  0  0  0  0  0
   -5.0579    1.8218   -1.4372 H   0  0  0  0  0  0  0  0  0  0  0  0
   -5.3384    0.0843   -1.7030 H   0  0  0  0  0  0  0  0  0  0  0  0
   -6.5465    1.0575   -0.8303 H   0  0  0  0  0  0  0  0  0  0  0  0
   -4.8071   -1.7553   -1.7391 H   0  0  0  0  0  0  0  0  0  0  0  0
   -3.6437   -3.0887   -1.5475 H   0  0  0  0  0  0  0  0  0  0  0  0
   -5.3025   -3.2584   -0.9246 H   0  0  0  0  0  0  0  0  0  0  0  0
   -0.5729   -2.8103    1.9250 H   0  0  0  0  0  0  0  0  0  0  0  0
   -2.2418   -3.4143    1.7902 H   0  0  0  0  0  0  0  0  0  0  0  0
   -0.8927   -4.3732    1.1355 H   0  0  0  0  0  0  0  0  0  0  0  0
    3.1872    4.0030    0.9015 H   0  0  0  0  0  0  0  0  0  0  0  0
    1.4731    3.7863    1.3292 H   0  0  0  0  0  0  0  0  0  0  0  0
    2.6927    2.6383    1.9317 H   0  0  0  0  0  0  0  0  0  0  0  0
    2.6808   -1.6644    1.4527 H   0  0  0  0  0  0  0  0  0  0  0  0
    5.0264   -2.3875    1.3326 H   0  0  0  0  0  0  0  0  0  0  0  0
    5.7371    0.3985   -1.8337 H   0  0  0  0  0  0  0  0  0  0  0  0
    3.3922    1.1265   -1.7297 H   0  0  0  0  0  0  0  0  0  0  0  0
    6.9760   -2.1744   -0.9306 H   0  0  0  0  0  0  0  0  0  0  0  0
   -2.9947    2.9710    1.0525 H   0  0  0  0  0  0  0  0  0  0  0  0
  1  2  1  0  0  0  0
  2  3  1  0  0  0  0
  3  4  2  0  0  0  0
  4  5  1  0  0  0  0
  5  6  2  0  0  0  0
  6  7  1  0  0  0  0
  7  8  2  0  0  0  0
  3  8  1  0  0  0  0
  8  9  1  0  0  0  0
  9 10  1  0  0  0  0
  7 11  1  0  0  0  0
 11 12  1  0  0  0  0
  6 13  1  0  0  0  0
 13 14  1  0  0  0  0
 14 15  2  0  0  0  0
 15 16  1  0  0  0  0
  5 16  1  0  0  0  0
 16 17  2  0  0  0  0
 15 18  1  0  0  0  0
 18 19  1  0  0  0  0
 14 20  1  0  0  0  0
 20 21  2  0  0  0  0
 21 22  1  0  0  0  0
 22 23  2  0  0  0  0
 23 24  1  0  0  0  0
 24 25  2  0  0  0  0
 20 25  1  0  0  0  0
 23 26  1  0  0  0  0
  4 27  1  0  0  0  0
  1 28  1  0  0  0  0
  1 29  1  0  0  0  0
  1 30  1  0  0  0  0
 10 31  1  0  0  0  0
 10 32  1  0  0  0  0
 10 33  1  0  0  0  0
 12 34  1  0  0  0  0
 12 35  1  0  0  0  0
 12 36  1  0  0  0  0
 19 37  1  0  0  0  0
 19 38  1  0  0  0  0
 19 39  1  0  0  0  0
 21 40  1  0  0  0  0
 22 41  1  0  0  0  0
 24 42  1  0  0  0  0
 25 43  1  0  0  0  0
 26 44  1  0  0  0  0
 27 45  1  0  0  0  0
M  END
$$$$
