C7H8O2
APtclcactv06211804463D 0   0.00000     0.00000
 
 17 17  0  0  0  0  0  0  0  0999 V2000
    2.9111   -0.0123   -0.0136 C   0  0  0  0  0  0  0  0  0  0  0  0
    1.4042   -0.0059    0.0010 C   0  0  0  0  0  0  0  0  0  0  0  0
    0.7196    1.1943    0.0071 C   0  0  0  0  0  0  0  0  0  0  0  0
   -0.6681    1.2028    0.0210 C   0  0  0  0  0  0  0  0  0  0  0  0
   -1.3674    0.0058    0.0283 C   0  0  0  0  0  0  0  0  0  0  0  0
   -0.6782   -1.1971    0.0217 C   0  0  0  0  0  0  0  0  0  0  0  0
    0.7094   -1.2003    0.0026 C   0  0  0  0  0  0  0  0  0  0  0  0
   -1.3609   -2.3721    0.0293 O   0  0  0  0  0  0  0  0  0  0  0  0
   -1.3409    2.3835    0.0278 O   0  0  0  0  0  0  0  0  0  0  0  0
    3.2844   -0.0133    1.0105 H   0  0  0  0  0  0  0  0  0  0  0  0
    3.2657   -0.9040   -0.5305 H   0  0  0  0  0  0  0  0  0  0  0  0
    3.2732    0.8759   -0.5314 H   0  0  0  0  0  0  0  0  0  0  0  0
    1.2648    2.1265    0.0013 H   0  0  0  0  0  0  0  0  0  0  0  0
   -2.4473    0.0103    0.0395 H   0  0  0  0  0  0  0  0  0  0  0  0
    1.2468   -2.1371   -0.0025 H   0  0  0  0  0  0  0  0  0  0  0  0
   -1.5676   -2.7126   -0.8518 H   0  0  0  0  0  0  0  0  0  0  0  0
   -1.5444    2.7253   -0.8535 H   0  0  0  0  0  0  0  0  0  0  0  0
  1  2  1  0  0  0  0
  2  3  2  0  0  0  0
  3  4  1  0  0  0  0
  4  5  2  0  0  0  0
  5  6  1  0  0  0  0
  6  7  2  0  0  0  0
  2  7  1  0  0  0  0
  6  8  1  0  0  0  0
  4  9  1  0  0  0  0
  1 10  1  0  0  0  0
  1 11  1  0  0  0  0
  1 12  1  0  0  0  0
  3 13  1  0  0  0  0
  5 14  1  0  0  0  0
  7 15  1  0  0  0  0
  8 16  1  0  0  0  0
  9 17  1  0  0  0  0
M  END
$$$$
