C5H4N4
APtclcactv06211804333D 0   0.00000     0.00000
 
 13 14  0  0  0  0  0  0  0  0999 V2000
    0.9512   -1.3724   -0.0002 C   0  0  0  0  0  0  0  0  0  0  0  0
   -0.2553   -0.6906    0.0001 C   0  0  0  0  0  0  0  0  0  0  0  0
   -0.2354    0.7192    0.0000 C   0  0  0  0  0  0  0  0  0  0  0  0
    0.9441    1.3410    0.0001 N   0  0  0  0  0  0  0  0  0  0  0  0
    2.0616    0.6474    0.0002 C   0  0  0  0  0  0  0  0  0  0  0  0
    2.0759   -0.6731   -0.0005 N   0  0  0  0  0  0  0  0  0  0  0  0
   -1.5187    1.1262   -0.0001 N   0  0  0  0  0  0  0  0  0  0  0  0
   -2.3105    0.0903   -0.0001 C   0  0  0  0  0  0  0  0  0  0  0  0
   -1.5857   -1.0519   -0.0000 N   0  0  0  0  0  0  0  0  0  0  0  0
    0.9738   -2.4521    0.0043 H   0  0  0  0  0  0  0  0  0  0  0  0
    3.0026    1.1775    0.0003 H   0  0  0  0  0  0  0  0  0  0  0  0
   -3.3894    0.1374    0.0003 H   0  0  0  0  0  0  0  0  0  0  0  0
   -1.9365   -1.9563    0.0000 H   0  0  0  0  0  0  0  0  0  0  0  0
  1  2  2  0  0  0  0
  2  3  1  0  0  0  0
  3  4  2  0  0  0  0
  4  5  1  0  0  0  0
  5  6  2  0  0  0  0
  1  6  1  0  0  0  0
  3  7  1  0  0  0  0
  7  8  2  0  0  0  0
  8  9  1  0  0  0  0
  2  9  1  0  0  0  0
  1 10  1  0  0  0  0
  5 11  1  0  0  0  0
  8 12  1  0  0  0  0
  9 13  1  0  0  0  0
M  END
$$$$
