C4H10OS
APtclcactv06211804463D 0   0.00000     0.00000
 
 16 15  0  0  0  0  0  0  0  0999 V2000
    3.0810   -0.6202   -0.0000 C   0  0  0  0  0  0  0  0  0  0  0  0
    1.7044    0.5612    0.0000 S   0  0  0  0  0  0  0  0  0  0  0  0
    0.2436   -0.5143   -0.0000 C   0  0  0  0  0  0  0  0  0  0  0  0
   -1.0223    0.3450    0.0000 C   0  0  0  0  0  0  0  0  0  0  0  0
   -2.2544   -0.5622    0.0000 C   0  0  0  0  0  0  0  0  0  0  0  0
   -3.4367    0.2403   -0.0000 O   0  0  0  0  0  0  0  0  0  0  0  0
    3.0221   -1.2467    0.8900 H   0  0  0  0  0  0  0  0  0  0  0  0
    3.0221   -1.2467   -0.8900 H   0  0  0  0  0  0  0  0  0  0  0  0
    4.0260   -0.0769   -0.0000 H   0  0  0  0  0  0  0  0  0  0  0  0
    0.2557   -1.1435   -0.8900 H   0  0  0  0  0  0  0  0  0  0  0  0
    0.2557   -1.1435    0.8900 H   0  0  0  0  0  0  0  0  0  0  0  0
   -1.0344    0.9742    0.8900 H   0  0  0  0  0  0  0  0  0  0  0  0
   -1.0344    0.9742   -0.8900 H   0  0  0  0  0  0  0  0  0  0  0  0
   -2.2423   -1.1914   -0.8900 H   0  0  0  0  0  0  0  0  0  0  0  0
   -2.2423   -1.1914    0.8900 H   0  0  0  0  0  0  0  0  0  0  0  0
   -4.2583   -0.2697    0.0000 H   0  0  0  0  0  0  0  0  0  0  0  0
  1  2  1  0  0  0  0
  2  3  1  0  0  0  0
  3  4  1  0  0  0  0
  4  5  1  0  0  0  0
  5  6  1  0  0  0  0
  1  7  1  0  0  0  0
  1  8  1  0  0  0  0
  1  9  1  0  0  0  0
  3 10  1  0  0  0  0
  3 11  1  0  0  0  0
  4 12  1  0  0  0  0
  4 13  1  0  0  0  0
  5 14  1  0  0  0  0
  5 15  1  0  0  0  0
  6 16  1  0  0  0  0
M  END
$$$$
