C16H30O4
APtclcactv06211804463D 0   0.00000     0.00000
 
 50 49  0  0  0  0  0  0  0  0999 V2000
    0.6086   -0.4635   -0.0000 C   0  0  0  0  0  0  0  0  0  0  0  0
   -0.6086    0.4635   -0.0000 C   0  0  0  0  0  0  0  0  0  0  0  0
   -1.8883   -0.3750   -0.0000 C   0  0  0  0  0  0  0  0  0  0  0  0
   -3.1055    0.5521   -0.0000 C   0  0  0  0  0  0  0  0  0  0  0  0
   -4.3852   -0.2865    0.0000 C   0  0  0  0  0  0  0  0  0  0  0  0
   -5.6024    0.6406   -0.0000 C   0  0  0  0  0  0  0  0  0  0  0  0
   -6.8822   -0.1979    0.0000 C   0  0  0  0  0  0  0  0  0  0  0  0
   -8.0993    0.7291   -0.0000 C   0  0  0  0  0  0  0  0  0  0  0  0
   -9.3598   -0.0968    0.0000 C   0  0  0  0  0  0  0  0  0  0  0  0
   -9.2917   -1.3031    0.0000 O   0  0  0  0  0  0  0  0  0  0  0  0
  -10.5583    0.5077   -0.0000 O   0  0  0  0  0  0  0  0  0  0  0  0
    1.8883    0.3750   -0.0000 C   0  0  0  0  0  0  0  0  0  0  0  0
    3.1055   -0.5521   -0.0000 C   0  0  0  0  0  0  0  0  0  0  0  0
    4.3852    0.2865    0.0000 C   0  0  0  0  0  0  0  0  0  0  0  0
    5.6024   -0.6406   -0.0000 C   0  0  0  0  0  0  0  0  0  0  0  0
    6.8822    0.1979    0.0000 C   0  0  0  0  0  0  0  0  0  0  0  0
    8.0993   -0.7291   -0.0000 C   0  0  0  0  0  0  0  0  0  0  0  0
    9.3598    0.0968    0.0000 C   0  0  0  0  0  0  0  0  0  0  0  0
    9.2917    1.3031    0.0000 O   0  0  0  0  0  0  0  0  0  0  0  0
   10.5583   -0.5077   -0.0000 O   0  0  0  0  0  0  0  0  0  0  0  0
    0.5863   -1.0924    0.8900 H   0  0  0  0  0  0  0  0  0  0  0  0
    0.5863   -1.0924   -0.8900 H   0  0  0  0  0  0  0  0  0  0  0  0
   -0.5863    1.0924    0.8900 H   0  0  0  0  0  0  0  0  0  0  0  0
   -0.5863    1.0924   -0.8900 H   0  0  0  0  0  0  0  0  0  0  0  0
   -1.9106   -1.0039   -0.8900 H   0  0  0  0  0  0  0  0  0  0  0  0
   -1.9106   -1.0039    0.8900 H   0  0  0  0  0  0  0  0  0  0  0  0
   -3.0832    1.1810    0.8900 H   0  0  0  0  0  0  0  0  0  0  0  0
   -3.0832    1.1810   -0.8900 H   0  0  0  0  0  0  0  0  0  0  0  0
   -4.4075   -0.9154   -0.8900 H   0  0  0  0  0  0  0  0  0  0  0  0
   -4.4075   -0.9154    0.8900 H   0  0  0  0  0  0  0  0  0  0  0  0
   -5.5801    1.2695    0.8900 H   0  0  0  0  0  0  0  0  0  0  0  0
   -5.5801    1.2695   -0.8900 H   0  0  0  0  0  0  0  0  0  0  0  0
   -6.9045   -0.8268   -0.8900 H   0  0  0  0  0  0  0  0  0  0  0  0
   -6.9045   -0.8268    0.8900 H   0  0  0  0  0  0  0  0  0  0  0  0
   -8.0770    1.3580    0.8900 H   0  0  0  0  0  0  0  0  0  0  0  0
   -8.0770    1.3580   -0.8900 H   0  0  0  0  0  0  0  0  0  0  0  0
  -11.3383   -0.0639    0.0000 H   0  0  0  0  0  0  0  0  0  0  0  0
    1.9106    1.0039   -0.8900 H   0  0  0  0  0  0  0  0  0  0  0  0
    1.9106    1.0039    0.8900 H   0  0  0  0  0  0  0  0  0  0  0  0
    3.0832   -1.1810    0.8900 H   0  0  0  0  0  0  0  0  0  0  0  0
    3.0832   -1.1810   -0.8900 H   0  0  0  0  0  0  0  0  0  0  0  0
    4.4075    0.9154   -0.8900 H   0  0  0  0  0  0  0  0  0  0  0  0
    4.4075    0.9154    0.8900 H   0  0  0  0  0  0  0  0  0  0  0  0
    5.5801   -1.2695    0.8900 H   0  0  0  0  0  0  0  0  0  0  0  0
    5.5801   -1.2695   -0.8900 H   0  0  0  0  0  0  0  0  0  0  0  0
    6.9045    0.8268   -0.8900 H   0  0  0  0  0  0  0  0  0  0  0  0
    6.9045    0.8268    0.8900 H   0  0  0  0  0  0  0  0  0  0  0  0
    8.0770   -1.3580    0.8900 H   0  0  0  0  0  0  0  0  0  0  0  0
    8.0770   -1.3580   -0.8900 H   0  0  0  0  0  0  0  0  0  0  0  0
   11.3383    0.0639    0.0000 H   0  0  0  0  0  0  0  0  0  0  0  0
  1  2  1  0  0  0  0
  2  3  1  0  0  0  0
  3  4  1  0  0  0  0
  4  5  1  0  0  0  0
  5  6  1  0  0  0  0
  6  7  1  0  0  0  0
  7  8  1  0  0  0  0
  8  9  1  0  0  0  0
  9 10  2  0  0  0  0
  9 11  1  0  0  0  0
  1 12  1  0  0  0  0
 12 13  1  0  0  0  0
 13 14  1  0  0  0  0
 14 15  1  0  0  0  0
 15 16  1  0  0  0  0
 16 17  1  0  0  0  0
 17 18  1  0  0  0  0
 18 19  2  0  0  0  0
 18 20  1  0  0  0  0
  1 21  1  0  0  0  0
  1 22  1  0  0  0  0
  2 23  1  0  0  0  0
  2 24  1  0  0  0  0
  3 25  1  0  0  0  0
  3 26  1  0  0  0  0
  4 27  1  0  0  0  0
  4 28  1  0  0  0  0
  5 29  1  0  0  0  0
  5 30  1  0  0  0  0
  6 31  1  0  0  0  0
  6 32  1  0  0  0  0
  7 33  1  0  0  0  0
  7 34  1  0  0  0  0
  8 35  1  0  0  0  0
  8 36  1  0  0  0  0
 11 37  1  0  0  0  0
 12 38  1  0  0  0  0
 12 39  1  0  0  0  0
 13 40  1  0  0  0  0
 13 41  1  0  0  0  0
 14 42  1  0  0  0  0
 14 43  1  0  0  0  0
 15 44  1  0  0  0  0
 15 45  1  0  0  0  0
 16 46  1  0  0  0  0
 16 47  1  0  0  0  0
 17 48  1  0  0  0  0
 17 49  1  0  0  0  0
 20 50  1  0  0  0  0
M  END
$$$$
