C21H24O5
APtclcactv06281817283D 0   0.00000     0.00000
 
 50 51  0  0  0  0  0  0  0  0999 V2000
    5.8844   -2.2996   -0.4854 C   0  0  0  0  0  0  0  0  0  0  0  0
    5.7625   -1.4112    0.7258 C   0  0  0  0  0  0  0  0  0  0  0  0
    5.2204   -0.2237    0.6152 C   0  0  0  0  0  0  0  0  0  0  0  0
    4.6133    0.2084   -0.6947 C   0  0  0  0  0  0  0  0  0  0  0  0
    3.1955    0.6645   -0.4650 C   0  0  0  0  0  0  0  0  0  0  0  0
    2.9359    1.9971   -0.1706 C   0  0  0  0  0  0  0  0  0  0  0  0
    1.6329    2.4298    0.0437 C   0  0  0  0  0  0  0  0  0  0  0  0
    0.5817    1.5363   -0.0343 C   0  0  0  0  0  0  0  0  0  0  0  0
    0.8343    0.1839   -0.3326 C   0  0  0  0  0  0  0  0  0  0  0  0
    2.1570   -0.2434   -0.5535 C   0  0  0  0  0  0  0  0  0  0  0  0
    2.4128   -1.5436   -0.8415 O   0  0  0  0  0  0  0  0  0  0  0  0
   -0.2702   -0.7692   -0.4170 C   0  0  0  0  0  0  0  0  0  0  0  0
   -0.0480   -1.9344   -0.6743 O   0  0  0  0  0  0  0  0  0  0  0  0
   -1.6851   -0.3055   -0.1844 C   0  0  0  0  0  0  0  0  0  0  0  0
   -2.6409   -1.4912   -0.3304 C   0  0  0  0  0  0  0  0  0  0  0  0
   -4.0558   -1.0275   -0.0979 C   0  0  0  0  0  0  0  0  0  0  0  0
   -4.8184   -0.5788   -1.1603 C   0  0  0  0  0  0  0  0  0  0  0  0
   -6.1157   -0.1531   -0.9498 C   0  0  0  0  0  0  0  0  0  0  0  0
   -6.6532   -0.1762    0.3290 C   0  0  0  0  0  0  0  0  0  0  0  0
   -5.8859   -0.6269    1.3934 C   0  0  0  0  0  0  0  0  0  0  0  0
   -4.5910   -1.0568    1.1767 C   0  0  0  0  0  0  0  0  0  0  0  0
   -7.9289    0.2424    0.5388 O   0  0  0  0  0  0  0  0  0  0  0  0
   -0.6890    1.9608    0.1761 O   0  0  0  0  0  0  0  0  0  0  0  0
   -0.8690    3.3467    0.4744 C   0  0  0  0  0  0  0  0  0  0  0  0
    3.9614    2.8818   -0.0913 O   0  0  0  0  0  0  0  0  0  0  0  0
    6.2641   -1.8888    2.0642 C   0  0  0  0  0  0  0  0  0  0  0  0
    6.4156   -1.7673   -1.2744 H   0  0  0  0  0  0  0  0  0  0  0  0
    6.4363   -3.2014   -0.2204 H   0  0  0  0  0  0  0  0  0  0  0  0
    4.8896   -2.5726   -0.8373 H   0  0  0  0  0  0  0  0  0  0  0  0
    5.2086    0.4456    1.4627 H   0  0  0  0  0  0  0  0  0  0  0  0
    5.1961    1.0297   -1.1118 H   0  0  0  0  0  0  0  0  0  0  0  0
    4.6170   -0.6302   -1.3910 H   0  0  0  0  0  0  0  0  0  0  0  0
    1.4412    3.4677    0.2724 H   0  0  0  0  0  0  0  0  0  0  0  0
    2.3991   -1.7471   -1.7868 H   0  0  0  0  0  0  0  0  0  0  0  0
   -1.7711    0.1090    0.8200 H   0  0  0  0  0  0  0  0  0  0  0  0
   -1.9415    0.4602   -0.9166 H   0  0  0  0  0  0  0  0  0  0  0  0
   -2.5549   -1.9057   -1.3348 H   0  0  0  0  0  0  0  0  0  0  0  0
   -2.3846   -2.2569    0.4018 H   0  0  0  0  0  0  0  0  0  0  0  0
   -4.3995   -0.5607   -2.1556 H   0  0  0  0  0  0  0  0  0  0  0  0
   -6.7109    0.1976   -1.7799 H   0  0  0  0  0  0  0  0  0  0  0  0
   -6.3020   -0.6458    2.3898 H   0  0  0  0  0  0  0  0  0  0  0  0
   -3.9933   -1.4077    2.0049 H   0  0  0  0  0  0  0  0  0  0  0  0
   -8.5906   -0.4586    0.4618 H   0  0  0  0  0  0  0  0  0  0  0  0
   -0.4924    3.9483   -0.3528 H   0  0  0  0  0  0  0  0  0  0  0  0
   -1.9295    3.5522    0.6199 H   0  0  0  0  0  0  0  0  0  0  0  0
   -0.3224    3.5966    1.3838 H   0  0  0  0  0  0  0  0  0  0  0  0
    4.1751    3.3124   -0.9303 H   0  0  0  0  0  0  0  0  0  0  0  0
    7.3086   -1.6012    2.1844 H   0  0  0  0  0  0  0  0  0  0  0  0
    5.6691   -1.4366    2.8577 H   0  0  0  0  0  0  0  0  0  0  0  0
    6.1775   -2.9740    2.1185 H   0  0  0  0  0  0  0  0  0  0  0  0
  1  2  1  0  0  0  0
  2  3  2  0  0  0  0
  3  4  1  0  0  0  0
  4  5  1  0  0  0  0
  5  6  2  0  0  0  0
  6  7  1  0  0  0  0
  7  8  2  0  0  0  0
  8  9  1  0  0  0  0
  9 10  2  0  0  0  0
  5 10  1  0  0  0  0
 10 11  1  0  0  0  0
  9 12  1  0  0  0  0
 12 13  2  0  0  0  0
 12 14  1  0  0  0  0
 14 15  1  0  0  0  0
 15 16  1  0  0  0  0
 16 17  2  0  0  0  0
 17 18  1  0  0  0  0
 18 19  2  0  0  0  0
 19 20  1  0  0  0  0
 20 21  2  0  0  0  0
 16 21  1  0  0  0  0
 19 22  1  0  0  0  0
  8 23  1  0  0  0  0
 23 24  1  0  0  0  0
  6 25  1  0  0  0  0
  2 26  1  0  0  0  0
  1 27  1  0  0  0  0
  1 28  1  0  0  0  0
  1 29  1  0  0  0  0
  3 30  1  0  0  0  0
  4 31  1  0  0  0  0
  4 32  1  0  0  0  0
  7 33  1  0  0  0  0
 11 34  1  0  0  0  0
 14 35  1  0  0  0  0
 14 36  1  0  0  0  0
 15 37  1  0  0  0  0
 15 38  1  0  0  0  0
 17 39  1  0  0  0  0
 18 40  1  0  0  0  0
 20 41  1  0  0  0  0
 21 42  1  0  0  0  0
 22 43  1  0  0  0  0
 24 44  1  0  0  0  0
 24 45  1  0  0  0  0
 24 46  1  0  0  0  0
 25 47  1  0  0  0  0
 26 48  1  0  0  0  0
 26 49  1  0  0  0  0
 26 50  1  0  0  0  0
M  END
$$$$
