C8H14O4
APtclcactv06211804463D 0   0.00000     0.00000
 
 26 25  0  0  0  0  0  0  0  0999 V2000
    0.5814   -0.4972   -0.0000 C   0  0  0  0  0  0  0  0  0  0  0  0
   -0.5814    0.4972   -0.0000 C   0  0  0  0  0  0  0  0  0  0  0  0
   -1.9065   -0.2677   -0.0000 C   0  0  0  0  0  0  0  0  0  0  0  0
   -3.0693    0.7267   -0.0000 C   0  0  0  0  0  0  0  0  0  0  0  0
   -4.3745   -0.0267    0.0000 C   0  0  0  0  0  0  0  0  0  0  0  0
   -4.3746   -1.2350    0.0000 O   0  0  0  0  0  0  0  0  0  0  0  0
   -5.5369    0.6445   -0.0000 O   0  0  0  0  0  0  0  0  0  0  0  0
    1.9065    0.2677   -0.0000 C   0  0  0  0  0  0  0  0  0  0  0  0
    3.0693   -0.7267   -0.0000 C   0  0  0  0  0  0  0  0  0  0  0  0
    4.3745    0.0267    0.0000 C   0  0  0  0  0  0  0  0  0  0  0  0
    4.3746    1.2350    0.0000 O   0  0  0  0  0  0  0  0  0  0  0  0
    5.5369   -0.6445   -0.0000 O   0  0  0  0  0  0  0  0  0  0  0  0
    0.5236   -1.1238    0.8900 H   0  0  0  0  0  0  0  0  0  0  0  0
    0.5236   -1.1238   -0.8900 H   0  0  0  0  0  0  0  0  0  0  0  0
   -0.5236    1.1238    0.8900 H   0  0  0  0  0  0  0  0  0  0  0  0
   -0.5236    1.1238   -0.8900 H   0  0  0  0  0  0  0  0  0  0  0  0
   -1.9643   -0.8943   -0.8900 H   0  0  0  0  0  0  0  0  0  0  0  0
   -1.9643   -0.8943    0.8900 H   0  0  0  0  0  0  0  0  0  0  0  0
   -3.0115    1.3533    0.8900 H   0  0  0  0  0  0  0  0  0  0  0  0
   -3.0115    1.3533   -0.8900 H   0  0  0  0  0  0  0  0  0  0  0  0
   -6.3479    0.1180    0.0000 H   0  0  0  0  0  0  0  0  0  0  0  0
    1.9643    0.8943   -0.8900 H   0  0  0  0  0  0  0  0  0  0  0  0
    1.9643    0.8943    0.8900 H   0  0  0  0  0  0  0  0  0  0  0  0
    3.0115   -1.3533    0.8900 H   0  0  0  0  0  0  0  0  0  0  0  0
    3.0115   -1.3533   -0.8900 H   0  0  0  0  0  0  0  0  0  0  0  0
    6.3479   -0.1180    0.0000 H   0  0  0  0  0  0  0  0  0  0  0  0
  1  2  1  0  0  0  0
  2  3  1  0  0  0  0
  3  4  1  0  0  0  0
  4  5  1  0  0  0  0
  5  6  2  0  0  0  0
  5  7  1  0  0  0  0
  1  8  1  0  0  0  0
  8  9  1  0  0  0  0
  9 10  1  0  0  0  0
 10 11  2  0  0  0  0
 10 12  1  0  0  0  0
  1 13  1  0  0  0  0
  1 14  1  0  0  0  0
  2 15  1  0  0  0  0
  2 16  1  0  0  0  0
  3 17  1  0  0  0  0
  3 18  1  0  0  0  0
  4 19  1  0  0  0  0
  4 20  1  0  0  0  0
  7 21  1  0  0  0  0
  8 22  1  0  0  0  0
  8 23  1  0  0  0  0
  9 24  1  0  0  0  0
  9 25  1  0  0  0  0
 12 26  1  0  0  0  0
M  END
$$$$
