C15H16O3
APtclcactv06281817293D 0   0.00000     0.00000
 
 34 35  0  0  0  0  0  0  0  0999 V2000
    5.3058    2.0720   -0.2924 C   0  0  0  0  0  0  0  0  0  0  0  0
    3.9010    2.1284   -0.0368 O   0  0  0  0  0  0  0  0  0  0  0  0
    3.2454    0.9428    0.0707 C   0  0  0  0  0  0  0  0  0  0  0  0
    1.8803    0.9242    0.3183 C   0  0  0  0  0  0  0  0  0  0  0  0
    1.2131   -0.2811    0.4273 C   0  0  0  0  0  0  0  0  0  0  0  0
    1.9030   -1.4701    0.2901 C   0  0  0  0  0  0  0  0  0  0  0  0
    3.2686   -1.4568    0.0423 C   0  0  0  0  0  0  0  0  0  0  0  0
    3.9392   -0.2491   -0.0727 C   0  0  0  0  0  0  0  0  0  0  0  0
    3.9468   -2.6267   -0.0921 O   0  0  0  0  0  0  0  0  0  0  0  0
   -0.2696   -0.2984    0.6968 C   0  0  0  0  0  0  0  0  0  0  0  0
   -1.0294   -0.2897   -0.6312 C   0  0  0  0  0  0  0  0  0  0  0  0
   -2.5120   -0.3071   -0.3617 C   0  0  0  0  0  0  0  0  0  0  0  0
   -3.2023    0.8814   -0.2239 C   0  0  0  0  0  0  0  0  0  0  0  0
   -4.5674    0.8647    0.0237 C   0  0  0  0  0  0  0  0  0  0  0  0
   -5.2355   -0.3461    0.1323 C   0  0  0  0  0  0  0  0  0  0  0  0
   -4.5405   -1.5321   -0.0063 C   0  0  0  0  0  0  0  0  0  0  0  0
   -3.1813   -1.5128   -0.2582 C   0  0  0  0  0  0  0  0  0  0  0  0
   -5.2487    2.0327    0.1601 O   0  0  0  0  0  0  0  0  0  0  0  0
    5.8012    1.5358    0.5171 H   0  0  0  0  0  0  0  0  0  0  0  0
    5.4833    1.5528   -1.2342 H   0  0  0  0  0  0  0  0  0  0  0  0
    5.7046    3.0845   -0.3550 H   0  0  0  0  0  0  0  0  0  0  0  0
    1.3389    1.8524    0.4264 H   0  0  0  0  0  0  0  0  0  0  0  0
    1.3794   -2.4108    0.3760 H   0  0  0  0  0  0  0  0  0  0  0  0
    5.0018   -0.2367   -0.2654 H   0  0  0  0  0  0  0  0  0  0  0  0
    3.9853   -2.9569   -1.0002 H   0  0  0  0  0  0  0  0  0  0  0  0
   -0.5266   -1.1977    1.2566 H   0  0  0  0  0  0  0  0  0  0  0  0
   -0.5435    0.5821    1.2780 H   0  0  0  0  0  0  0  0  0  0  0  0
   -0.7724    0.6095   -1.1910 H   0  0  0  0  0  0  0  0  0  0  0  0
   -0.7554   -1.1702   -1.2123 H   0  0  0  0  0  0  0  0  0  0  0  0
   -2.6798    1.8228   -0.3085 H   0  0  0  0  0  0  0  0  0  0  0  0
   -6.2980   -0.3616    0.3254 H   0  0  0  0  0  0  0  0  0  0  0  0
   -5.0602   -2.4751    0.0782 H   0  0  0  0  0  0  0  0  0  0  0  0
   -2.6398   -2.4409   -0.3662 H   0  0  0  0  0  0  0  0  0  0  0  0
   -5.6037    2.3801   -0.6696 H   0  0  0  0  0  0  0  0  0  0  0  0
  1  2  1  0  0  0  0
  2  3  1  0  0  0  0
  3  4  2  0  0  0  0
  4  5  1  0  0  0  0
  5  6  2  0  0  0  0
  6  7  1  0  0  0  0
  7  8  2  0  0  0  0
  3  8  1  0  0  0  0
  7  9  1  0  0  0  0
  5 10  1  0  0  0  0
 10 11  1  0  0  0  0
 11 12  1  0  0  0  0
 12 13  2  0  0  0  0
 13 14  1  0  0  0  0
 14 15  2  0  0  0  0
 15 16  1  0  0  0  0
 16 17  2  0  0  0  0
 12 17  1  0  0  0  0
 14 18  1  0  0  0  0
  1 19  1  0  0  0  0
  1 20  1  0  0  0  0
  1 21  1  0  0  0  0
  4 22  1  0  0  0  0
  6 23  1  0  0  0  0
  8 24  1  0  0  0  0
  9 25  1  0  0  0  0
 10 26  1  0  0  0  0
 10 27  1  0  0  0  0
 11 28  1  0  0  0  0
 11 29  1  0  0  0  0
 13 30  1  0  0  0  0
 15 31  1  0  0  0  0
 16 32  1  0  0  0  0
 17 33  1  0  0  0  0
 18 34  1  0  0  0  0
M  END
$$$$
