C16H32O3
APtclcactv06211804463D 0   0.00000     0.00000
 
 51 50  0  0  0  0  0  0  0  0999 V2000
    1.0933   -0.3562   -0.0000 C   0  0  0  0  0  0  0  0  0  0  0  0
   -0.1414    0.5474    0.0000 C   0  0  0  0  0  0  0  0  0  0  0  0
   -1.4048   -0.3155   -0.0000 C   0  0  0  0  0  0  0  0  0  0  0  0
   -2.6395    0.5881   -0.0000 C   0  0  0  0  0  0  0  0  0  0  0  0
   -3.9030   -0.2748   -0.0000 C   0  0  0  0  0  0  0  0  0  0  0  0
   -5.1377    0.6288   -0.0000 C   0  0  0  0  0  0  0  0  0  0  0  0
   -6.4011   -0.2341    0.0000 C   0  0  0  0  0  0  0  0  0  0  0  0
   -7.6358    0.6695   -0.0000 C   0  0  0  0  0  0  0  0  0  0  0  0
   -8.8803   -0.1804    0.0000 C   0  0  0  0  0  0  0  0  0  0  0  0
   -8.7890   -1.3852    0.0000 O   0  0  0  0  0  0  0  0  0  0  0  0
  -10.0901    0.4010   -0.0000 O   0  0  0  0  0  0  0  0  0  0  0  0
    2.3568    0.5067    0.0000 C   0  0  0  0  0  0  0  0  0  0  0  0
    3.5915   -0.3969   -0.0000 C   0  0  0  0  0  0  0  0  0  0  0  0
    4.8549    0.4660    0.0000 C   0  0  0  0  0  0  0  0  0  0  0  0
    6.0896   -0.4376   -0.0000 C   0  0  0  0  0  0  0  0  0  0  0  0
    7.3531    0.4253    0.0000 C   0  0  0  0  0  0  0  0  0  0  0  0
    8.5878   -0.4783   -0.0000 C   0  0  0  0  0  0  0  0  0  0  0  0
    9.8512    0.3846    0.0000 C   0  0  0  0  0  0  0  0  0  0  0  0
   11.0044   -0.4594   -0.0000 O   0  0  0  0  0  0  0  0  0  0  0  0
    1.0831   -0.9854    0.8900 H   0  0  0  0  0  0  0  0  0  0  0  0
    1.0831   -0.9854   -0.8900 H   0  0  0  0  0  0  0  0  0  0  0  0
   -0.1311    1.1766    0.8900 H   0  0  0  0  0  0  0  0  0  0  0  0
   -0.1311    1.1766   -0.8900 H   0  0  0  0  0  0  0  0  0  0  0  0
   -1.4151   -0.9447   -0.8900 H   0  0  0  0  0  0  0  0  0  0  0  0
   -1.4151   -0.9447    0.8900 H   0  0  0  0  0  0  0  0  0  0  0  0
   -2.6293    1.2173    0.8900 H   0  0  0  0  0  0  0  0  0  0  0  0
   -2.6293    1.2173   -0.8900 H   0  0  0  0  0  0  0  0  0  0  0  0
   -3.9132   -0.9040   -0.8900 H   0  0  0  0  0  0  0  0  0  0  0  0
   -3.9132   -0.9040    0.8900 H   0  0  0  0  0  0  0  0  0  0  0  0
   -5.1274    1.2580    0.8900 H   0  0  0  0  0  0  0  0  0  0  0  0
   -5.1274    1.2580   -0.8900 H   0  0  0  0  0  0  0  0  0  0  0  0
   -6.4114   -0.8633   -0.8900 H   0  0  0  0  0  0  0  0  0  0  0  0
   -6.4114   -0.8633    0.8900 H   0  0  0  0  0  0  0  0  0  0  0  0
   -7.6256    1.2987    0.8900 H   0  0  0  0  0  0  0  0  0  0  0  0
   -7.6256    1.2987   -0.8900 H   0  0  0  0  0  0  0  0  0  0  0  0
  -10.8590   -0.1854    0.0000 H   0  0  0  0  0  0  0  0  0  0  0  0
    2.3670    1.1359   -0.8900 H   0  0  0  0  0  0  0  0  0  0  0  0
    2.3670    1.1359    0.8900 H   0  0  0  0  0  0  0  0  0  0  0  0
    3.5812   -1.0261    0.8900 H   0  0  0  0  0  0  0  0  0  0  0  0
    3.5812   -1.0261   -0.8900 H   0  0  0  0  0  0  0  0  0  0  0  0
    4.8652    1.0952   -0.8900 H   0  0  0  0  0  0  0  0  0  0  0  0
    4.8652    1.0952    0.8900 H   0  0  0  0  0  0  0  0  0  0  0  0
    6.0793   -1.0668    0.8900 H   0  0  0  0  0  0  0  0  0  0  0  0
    6.0793   -1.0668   -0.8900 H   0  0  0  0  0  0  0  0  0  0  0  0
    7.3633    1.0545   -0.8900 H   0  0  0  0  0  0  0  0  0  0  0  0
    7.3633    1.0545    0.8900 H   0  0  0  0  0  0  0  0  0  0  0  0
    8.5775   -1.1076    0.8900 H   0  0  0  0  0  0  0  0  0  0  0  0
    8.5775   -1.1076   -0.8900 H   0  0  0  0  0  0  0  0  0  0  0  0
    9.8615    1.0138   -0.8900 H   0  0  0  0  0  0  0  0  0  0  0  0
    9.8615    1.0138    0.8900 H   0  0  0  0  0  0  0  0  0  0  0  0
   11.8435    0.0212    0.0000 H   0  0  0  0  0  0  0  0  0  0  0  0
  1  2  1  0  0  0  0
  2  3  1  0  0  0  0
  3  4  1  0  0  0  0
  4  5  1  0  0  0  0
  5  6  1  0  0  0  0
  6  7  1  0  0  0  0
  7  8  1  0  0  0  0
  8  9  1  0  0  0  0
  9 10  2  0  0  0  0
  9 11  1  0  0  0  0
  1 12  1  0  0  0  0
 12 13  1  0  0  0  0
 13 14  1  0  0  0  0
 14 15  1  0  0  0  0
 15 16  1  0  0  0  0
 16 17  1  0  0  0  0
 17 18  1  0  0  0  0
 18 19  1  0  0  0  0
  1 20  1  0  0  0  0
  1 21  1  0  0  0  0
  2 22  1  0  0  0  0
  2 23  1  0  0  0  0
  3 24  1  0  0  0  0
  3 25  1  0  0  0  0
  4 26  1  0  0  0  0
  4 27  1  0  0  0  0
  5 28  1  0  0  0  0
  5 29  1  0  0  0  0
  6 30  1  0  0  0  0
  6 31  1  0  0  0  0
  7 32  1  0  0  0  0
  7 33  1  0  0  0  0
  8 34  1  0  0  0  0
  8 35  1  0  0  0  0
 11 36  1  0  0  0  0
 12 37  1  0  0  0  0
 12 38  1  0  0  0  0
 13 39  1  0  0  0  0
 13 40  1  0  0  0  0
 14 41  1  0  0  0  0
 14 42  1  0  0  0  0
 15 43  1  0  0  0  0
 15 44  1  0  0  0  0
 16 45  1  0  0  0  0
 16 46  1  0  0  0  0
 17 47  1  0  0  0  0
 17 48  1  0  0  0  0
 18 49  1  0  0  0  0
 18 50  1  0  0  0  0
 19 51  1  0  0  0  0
M  END
$$$$
