C17H34O2
APtclcactv06211804463D 0   0.00000     0.00000
 
 53 52  0  0  0  0  0  0  0  0999 V2000
   11.1621   -0.5028   -0.0000 C   0  0  0  0  0  0  0  0  0  0  0  0
    9.9264    0.3994    0.0000 C   0  0  0  0  0  0  0  0  0  0  0  0
    8.6639   -0.4648   -0.0000 C   0  0  0  0  0  0  0  0  0  0  0  0
    7.4282    0.4374    0.0000 C   0  0  0  0  0  0  0  0  0  0  0  0
    6.1657   -0.4268   -0.0000 C   0  0  0  0  0  0  0  0  0  0  0  0
    4.9300    0.4754    0.0000 C   0  0  0  0  0  0  0  0  0  0  0  0
    3.6675   -0.3888   -0.0000 C   0  0  0  0  0  0  0  0  0  0  0  0
    2.4319    0.5134    0.0000 C   0  0  0  0  0  0  0  0  0  0  0  0
    1.1693   -0.3508   -0.0000 C   0  0  0  0  0  0  0  0  0  0  0  0
   -0.0663    0.5514    0.0000 C   0  0  0  0  0  0  0  0  0  0  0  0
   -1.3289   -0.3128   -0.0000 C   0  0  0  0  0  0  0  0  0  0  0  0
   -2.5645    0.5895   -0.0000 C   0  0  0  0  0  0  0  0  0  0  0  0
   -3.8271   -0.2748   -0.0000 C   0  0  0  0  0  0  0  0  0  0  0  0
   -5.0627    0.6275   -0.0000 C   0  0  0  0  0  0  0  0  0  0  0  0
   -6.3252   -0.2368    0.0000 C   0  0  0  0  0  0  0  0  0  0  0  0
   -7.5609    0.6655   -0.0000 C   0  0  0  0  0  0  0  0  0  0  0  0
   -8.8045   -0.1858    0.0000 C   0  0  0  0  0  0  0  0  0  0  0  0
   -8.7119   -1.3905    0.0000 O   0  0  0  0  0  0  0  0  0  0  0  0
  -10.0149    0.3943   -0.0000 O   0  0  0  0  0  0  0  0  0  0  0  0
   11.1525   -1.1320    0.8900 H   0  0  0  0  0  0  0  0  0  0  0  0
   11.1525   -1.1320   -0.8900 H   0  0  0  0  0  0  0  0  0  0  0  0
   12.0615    0.1129    0.0000 H   0  0  0  0  0  0  0  0  0  0  0  0
    9.9360    1.0287    0.8900 H   0  0  0  0  0  0  0  0  0  0  0  0
    9.9360    1.0287   -0.8900 H   0  0  0  0  0  0  0  0  0  0  0  0
    8.6543   -1.0940   -0.8900 H   0  0  0  0  0  0  0  0  0  0  0  0
    8.6543   -1.0940    0.8900 H   0  0  0  0  0  0  0  0  0  0  0  0
    7.4378    1.0667    0.8900 H   0  0  0  0  0  0  0  0  0  0  0  0
    7.4378    1.0667   -0.8900 H   0  0  0  0  0  0  0  0  0  0  0  0
    6.1561   -1.0560   -0.8900 H   0  0  0  0  0  0  0  0  0  0  0  0
    6.1561   -1.0560    0.8900 H   0  0  0  0  0  0  0  0  0  0  0  0
    4.9396    1.1047    0.8900 H   0  0  0  0  0  0  0  0  0  0  0  0
    4.9396    1.1047   -0.8900 H   0  0  0  0  0  0  0  0  0  0  0  0
    3.6579   -1.0180   -0.8900 H   0  0  0  0  0  0  0  0  0  0  0  0
    3.6579   -1.0180    0.8900 H   0  0  0  0  0  0  0  0  0  0  0  0
    2.4414    1.1427    0.8900 H   0  0  0  0  0  0  0  0  0  0  0  0
    2.4414    1.1427   -0.8900 H   0  0  0  0  0  0  0  0  0  0  0  0
    1.1598   -0.9800   -0.8900 H   0  0  0  0  0  0  0  0  0  0  0  0
    1.1598   -0.9800    0.8900 H   0  0  0  0  0  0  0  0  0  0  0  0
   -0.0568    1.1807    0.8900 H   0  0  0  0  0  0  0  0  0  0  0  0
   -0.0568    1.1807   -0.8900 H   0  0  0  0  0  0  0  0  0  0  0  0
   -1.3384   -0.9420   -0.8900 H   0  0  0  0  0  0  0  0  0  0  0  0
   -1.3384   -0.9420    0.8900 H   0  0  0  0  0  0  0  0  0  0  0  0
   -2.5549    1.2187    0.8900 H   0  0  0  0  0  0  0  0  0  0  0  0
   -2.5549    1.2187   -0.8900 H   0  0  0  0  0  0  0  0  0  0  0  0
   -3.8366   -0.9040   -0.8900 H   0  0  0  0  0  0  0  0  0  0  0  0
   -3.8366   -0.9040    0.8900 H   0  0  0  0  0  0  0  0  0  0  0  0
   -5.0531    1.2567    0.8900 H   0  0  0  0  0  0  0  0  0  0  0  0
   -5.0531    1.2567   -0.8900 H   0  0  0  0  0  0  0  0  0  0  0  0
   -6.3348   -0.8660   -0.8900 H   0  0  0  0  0  0  0  0  0  0  0  0
   -6.3348   -0.8660    0.8900 H   0  0  0  0  0  0  0  0  0  0  0  0
   -7.5513    1.2947    0.8900 H   0  0  0  0  0  0  0  0  0  0  0  0
   -7.5513    1.2947   -0.8900 H   0  0  0  0  0  0  0  0  0  0  0  0
  -10.7832   -0.1929    0.0000 H   0  0  0  0  0  0  0  0  0  0  0  0
  1  2  1  0  0  0  0
  2  3  1  0  0  0  0
  3  4  1  0  0  0  0
  4  5  1  0  0  0  0
  5  6  1  0  0  0  0
  6  7  1  0  0  0  0
  7  8  1  0  0  0  0
  8  9  1  0  0  0  0
  9 10  1  0  0  0  0
 10 11  1  0  0  0  0
 11 12  1  0  0  0  0
 12 13  1  0  0  0  0
 13 14  1  0  0  0  0
 14 15  1  0  0  0  0
 15 16  1  0  0  0  0
 16 17  1  0  0  0  0
 17 18  2  0  0  0  0
 17 19  1  0  0  0  0
  1 20  1  0  0  0  0
  1 21  1  0  0  0  0
  1 22  1  0  0  0  0
  2 23  1  0  0  0  0
  2 24  1  0  0  0  0
  3 25  1  0  0  0  0
  3 26  1  0  0  0  0
  4 27  1  0  0  0  0
  4 28  1  0  0  0  0
  5 29  1  0  0  0  0
  5 30  1  0  0  0  0
  6 31  1  0  0  0  0
  6 32  1  0  0  0  0
  7 33  1  0  0  0  0
  7 34  1  0  0  0  0
  8 35  1  0  0  0  0
  8 36  1  0  0  0  0
  9 37  1  0  0  0  0
  9 38  1  0  0  0  0
 10 39  1  0  0  0  0
 10 40  1  0  0  0  0
 11 41  1  0  0  0  0
 11 42  1  0  0  0  0
 12 43  1  0  0  0  0
 12 44  1  0  0  0  0
 13 45  1  0  0  0  0
 13 46  1  0  0  0  0
 14 47  1  0  0  0  0
 14 48  1  0  0  0  0
 15 49  1  0  0  0  0
 15 50  1  0  0  0  0
 16 51  1  0  0  0  0
 16 52  1  0  0  0  0
 19 53  1  0  0  0  0
M  END
$$$$
