C24H50O
APtclcactv06211804463D 0   0.00000     0.00000
 
 75 74  0  0  0  0  0  0  0  0999 V2000
   15.0705    0.4151    0.0000 C   0  0  0  0  0  0  0  0  0  0  0  0
   13.8206   -0.4674   -0.0000 C   0  0  0  0  0  0  0  0  0  0  0  0
   12.5720    0.4168    0.0000 C   0  0  0  0  0  0  0  0  0  0  0  0
   11.3222   -0.4657   -0.0000 C   0  0  0  0  0  0  0  0  0  0  0  0
   10.0735    0.4185    0.0000 C   0  0  0  0  0  0  0  0  0  0  0  0
    8.8237   -0.4641   -0.0000 C   0  0  0  0  0  0  0  0  0  0  0  0
    7.5750    0.4201    0.0000 C   0  0  0  0  0  0  0  0  0  0  0  0
    6.3252   -0.4624   -0.0000 C   0  0  0  0  0  0  0  0  0  0  0  0
    5.0766    0.4218    0.0000 C   0  0  0  0  0  0  0  0  0  0  0  0
    3.8267   -0.4607   -0.0000 C   0  0  0  0  0  0  0  0  0  0  0  0
    2.5781    0.4235    0.0000 C   0  0  0  0  0  0  0  0  0  0  0  0
    1.3283   -0.4590   -0.0000 C   0  0  0  0  0  0  0  0  0  0  0  0
    0.0796    0.4252    0.0000 C   0  0  0  0  0  0  0  0  0  0  0  0
   -1.1702   -0.4573    0.0000 C   0  0  0  0  0  0  0  0  0  0  0  0
   -2.4189    0.4269   -0.0000 C   0  0  0  0  0  0  0  0  0  0  0  0
   -3.6687   -0.4557    0.0000 C   0  0  0  0  0  0  0  0  0  0  0  0
   -4.9174    0.4285   -0.0000 C   0  0  0  0  0  0  0  0  0  0  0  0
   -6.1672   -0.4540    0.0000 C   0  0  0  0  0  0  0  0  0  0  0  0
   -7.4158    0.4302   -0.0000 C   0  0  0  0  0  0  0  0  0  0  0  0
   -8.6657   -0.4523    0.0000 C   0  0  0  0  0  0  0  0  0  0  0  0
   -9.9143    0.4319   -0.0000 C   0  0  0  0  0  0  0  0  0  0  0  0
  -11.1641   -0.4506    0.0000 C   0  0  0  0  0  0  0  0  0  0  0  0
  -12.4128    0.4336   -0.0000 C   0  0  0  0  0  0  0  0  0  0  0  0
  -13.6626   -0.4489    0.0000 C   0  0  0  0  0  0  0  0  0  0  0  0
  -14.8288    0.3769   -0.0000 O   0  0  0  0  0  0  0  0  0  0  0  0
   15.0709    1.0444    0.8900 H   0  0  0  0  0  0  0  0  0  0  0  0
   15.9600   -0.2148   -0.0000 H   0  0  0  0  0  0  0  0  0  0  0  0
   15.0709    1.0444   -0.8900 H   0  0  0  0  0  0  0  0  0  0  0  0
   13.8202   -1.0967   -0.8900 H   0  0  0  0  0  0  0  0  0  0  0  0
   13.8202   -1.0967    0.8900 H   0  0  0  0  0  0  0  0  0  0  0  0
   12.5724    1.0461    0.8900 H   0  0  0  0  0  0  0  0  0  0  0  0
   12.5724    1.0461   -0.8900 H   0  0  0  0  0  0  0  0  0  0  0  0
   11.3217   -1.0950   -0.8900 H   0  0  0  0  0  0  0  0  0  0  0  0
   11.3217   -1.0950    0.8900 H   0  0  0  0  0  0  0  0  0  0  0  0
   10.0739    1.0478    0.8900 H   0  0  0  0  0  0  0  0  0  0  0  0
   10.0739    1.0478   -0.8900 H   0  0  0  0  0  0  0  0  0  0  0  0
    8.8233   -1.0934   -0.8900 H   0  0  0  0  0  0  0  0  0  0  0  0
    8.8233   -1.0934    0.8900 H   0  0  0  0  0  0  0  0  0  0  0  0
    7.5755    1.0494    0.8900 H   0  0  0  0  0  0  0  0  0  0  0  0
    7.5755    1.0494   -0.8900 H   0  0  0  0  0  0  0  0  0  0  0  0
    6.3248   -1.0917   -0.8900 H   0  0  0  0  0  0  0  0  0  0  0  0
    6.3248   -1.0917    0.8900 H   0  0  0  0  0  0  0  0  0  0  0  0
    5.0770    1.0511    0.8900 H   0  0  0  0  0  0  0  0  0  0  0  0
    5.0770    1.0511   -0.8900 H   0  0  0  0  0  0  0  0  0  0  0  0
    3.8263   -1.0900   -0.8900 H   0  0  0  0  0  0  0  0  0  0  0  0
    3.8263   -1.0900    0.8900 H   0  0  0  0  0  0  0  0  0  0  0  0
    2.5785    1.0528    0.8900 H   0  0  0  0  0  0  0  0  0  0  0  0
    2.5785    1.0528   -0.8900 H   0  0  0  0  0  0  0  0  0  0  0  0
    1.3278   -1.0883   -0.8900 H   0  0  0  0  0  0  0  0  0  0  0  0
    1.3278   -1.0883    0.8900 H   0  0  0  0  0  0  0  0  0  0  0  0
    0.0800    1.0545    0.8900 H   0  0  0  0  0  0  0  0  0  0  0  0
    0.0800    1.0545   -0.8900 H   0  0  0  0  0  0  0  0  0  0  0  0
   -1.1707   -1.0866   -0.8900 H   0  0  0  0  0  0  0  0  0  0  0  0
   -1.1707   -1.0866    0.8900 H   0  0  0  0  0  0  0  0  0  0  0  0
   -2.4184    1.0562    0.8900 H   0  0  0  0  0  0  0  0  0  0  0  0
   -2.4184    1.0562   -0.8900 H   0  0  0  0  0  0  0  0  0  0  0  0
   -3.6691   -1.0850   -0.8900 H   0  0  0  0  0  0  0  0  0  0  0  0
   -3.6691   -1.0850    0.8900 H   0  0  0  0  0  0  0  0  0  0  0  0
   -4.9169    1.0578    0.8900 H   0  0  0  0  0  0  0  0  0  0  0  0
   -4.9169    1.0578   -0.8900 H   0  0  0  0  0  0  0  0  0  0  0  0
   -6.1676   -1.0833   -0.8900 H   0  0  0  0  0  0  0  0  0  0  0  0
   -6.1676   -1.0833    0.8900 H   0  0  0  0  0  0  0  0  0  0  0  0
   -7.4154    1.0595    0.8900 H   0  0  0  0  0  0  0  0  0  0  0  0
   -7.4154    1.0595   -0.8900 H   0  0  0  0  0  0  0  0  0  0  0  0
   -8.6661   -1.0816   -0.8900 H   0  0  0  0  0  0  0  0  0  0  0  0
   -8.6661   -1.0816    0.8900 H   0  0  0  0  0  0  0  0  0  0  0  0
   -9.9139    1.0612    0.8900 H   0  0  0  0  0  0  0  0  0  0  0  0
   -9.9139    1.0612   -0.8900 H   0  0  0  0  0  0  0  0  0  0  0  0
  -11.1646   -1.0799   -0.8900 H   0  0  0  0  0  0  0  0  0  0  0  0
  -11.1646   -1.0799    0.8900 H   0  0  0  0  0  0  0  0  0  0  0  0
  -12.4124    1.0629    0.8900 H   0  0  0  0  0  0  0  0  0  0  0  0
  -12.4124    1.0629   -0.8900 H   0  0  0  0  0  0  0  0  0  0  0  0
  -13.6630   -1.0782   -0.8900 H   0  0  0  0  0  0  0  0  0  0  0  0
  -13.6630   -1.0782    0.8900 H   0  0  0  0  0  0  0  0  0  0  0  0
  -15.6603   -0.1168    0.0000 H   0  0  0  0  0  0  0  0  0  0  0  0
  1  2  1  0  0  0  0
  2  3  1  0  0  0  0
  3  4  1  0  0  0  0
  4  5  1  0  0  0  0
  5  6  1  0  0  0  0
  6  7  1  0  0  0  0
  7  8  1  0  0  0  0
  8  9  1  0  0  0  0
  9 10  1  0  0  0  0
 10 11  1  0  0  0  0
 11 12  1  0  0  0  0
 12 13  1  0  0  0  0
 13 14  1  0  0  0  0
 14 15  1  0  0  0  0
 15 16  1  0  0  0  0
 16 17  1  0  0  0  0
 17 18  1  0  0  0  0
 18 19  1  0  0  0  0
 19 20  1  0  0  0  0
 20 21  1  0  0  0  0
 21 22  1  0  0  0  0
 22 23  1  0  0  0  0
 23 24  1  0  0  0  0
 24 25  1  0  0  0  0
  1 26  1  0  0  0  0
  1 27  1  0  0  0  0
  1 28  1  0  0  0  0
  2 29  1  0  0  0  0
  2 30  1  0  0  0  0
  3 31  1  0  0  0  0
  3 32  1  0  0  0  0
  4 33  1  0  0  0  0
  4 34  1  0  0  0  0
  5 35  1  0  0  0  0
  5 36  1  0  0  0  0
  6 37  1  0  0  0  0
  6 38  1  0  0  0  0
  7 39  1  0  0  0  0
  7 40  1  0  0  0  0
  8 41  1  0  0  0  0
  8 42  1  0  0  0  0
  9 43  1  0  0  0  0
  9 44  1  0  0  0  0
 10 45  1  0  0  0  0
 10 46  1  0  0  0  0
 11 47  1  0  0  0  0
 11 48  1  0  0  0  0
 12 49  1  0  0  0  0
 12 50  1  0  0  0  0
 13 51  1  0  0  0  0
 13 52  1  0  0  0  0
 14 53  1  0  0  0  0
 14 54  1  0  0  0  0
 15 55  1  0  0  0  0
 15 56  1  0  0  0  0
 16 57  1  0  0  0  0
 16 58  1  0  0  0  0
 17 59  1  0  0  0  0
 17 60  1  0  0  0  0
 18 61  1  0  0  0  0
 18 62  1  0  0  0  0
 19 63  1  0  0  0  0
 19 64  1  0  0  0  0
 20 65  1  0  0  0  0
 20 66  1  0  0  0  0
 21 67  1  0  0  0  0
 21 68  1  0  0  0  0
 22 69  1  0  0  0  0
 22 70  1  0  0  0  0
 23 71  1  0  0  0  0
 23 72  1  0  0  0  0
 24 73  1  0  0  0  0
 24 74  1  0  0  0  0
 25 75  1  0  0  0  0
M  END
$$$$
