AsH6
APtclcactv06211806353D 0   0.00000     0.00000
 
  7  6  0  0  0  0  0  0  0  0999 V2000
   -0.0000    0.0000    0.0000 As  0  1  0  0  0  0  0  0  0  0  0  0
   -1.1243    0.0000    1.1243 H   0  0  0  0  0  0  0  0  0  0  0  0
    1.1243   -0.0000   -1.1243 H   0  0  0  0  0  0  0  0  0  0  0  0
    1.1243    0.0000    1.1243 H   0  0  0  0  0  0  0  0  0  0  0  0
   -1.1243   -0.0000   -1.1243 H   0  0  0  0  0  0  0  0  0  0  0  0
   -0.0000   -1.5900   -0.0000 H   0  0  0  0  0  0  0  0  0  0  0  0
    0.0000    1.5900   -0.0000 H   0  0  0  0  0  0  0  0  0  0  0  0
  1  2  1  0  0  0  0
  1  3  1  0  0  0  0
  1  4  1  0  0  0  0
  1  5  1  0  0  0  0
  1  6  1  0  0  0  0
  1  7  1  0  0  0  0
M  CHG  1   1   3
M  END
$$$$
