C30H60O2
APtclcactv06211804463D 0   0.00000     0.00000
 
 92 91  0  0  0  0  0  0  0  0999 V2000
   19.3567    0.3271    0.0000 C   0  0  0  0  0  0  0  0  0  0  0  0
   18.1000   -0.5456   -0.0000 C   0  0  0  0  0  0  0  0  0  0  0  0
   16.8583    0.3483    0.0000 C   0  0  0  0  0  0  0  0  0  0  0  0
   15.6016   -0.5245   -0.0000 C   0  0  0  0  0  0  0  0  0  0  0  0
   14.3599    0.3694    0.0000 C   0  0  0  0  0  0  0  0  0  0  0  0
   13.1032   -0.5033   -0.0000 C   0  0  0  0  0  0  0  0  0  0  0  0
   11.8615    0.3906    0.0000 C   0  0  0  0  0  0  0  0  0  0  0  0
   10.6049   -0.4822   -0.0000 C   0  0  0  0  0  0  0  0  0  0  0  0
    9.3631    0.4117    0.0000 C   0  0  0  0  0  0  0  0  0  0  0  0
    8.1065   -0.4610   -0.0000 C   0  0  0  0  0  0  0  0  0  0  0  0
    6.8648    0.4329    0.0000 C   0  0  0  0  0  0  0  0  0  0  0  0
    5.6081   -0.4399   -0.0000 C   0  0  0  0  0  0  0  0  0  0  0  0
    4.3664    0.4540    0.0000 C   0  0  0  0  0  0  0  0  0  0  0  0
    3.1097   -0.4187   -0.0000 C   0  0  0  0  0  0  0  0  0  0  0  0
    1.8680    0.4752    0.0000 C   0  0  0  0  0  0  0  0  0  0  0  0
    0.6113   -0.3976   -0.0000 C   0  0  0  0  0  0  0  0  0  0  0  0
   -0.6304    0.4963    0.0000 C   0  0  0  0  0  0  0  0  0  0  0  0
   -1.8871   -0.3764   -0.0000 C   0  0  0  0  0  0  0  0  0  0  0  0
   -3.1288    0.5175   -0.0000 C   0  0  0  0  0  0  0  0  0  0  0  0
   -4.3855   -0.3553   -0.0000 C   0  0  0  0  0  0  0  0  0  0  0  0
   -5.6272    0.5386   -0.0000 C   0  0  0  0  0  0  0  0  0  0  0  0
   -6.8839   -0.3341   -0.0000 C   0  0  0  0  0  0  0  0  0  0  0  0
   -8.1256    0.5597   -0.0000 C   0  0  0  0  0  0  0  0  0  0  0  0
   -9.3823   -0.3130    0.0000 C   0  0  0  0  0  0  0  0  0  0  0  0
  -10.6240    0.5809   -0.0000 C   0  0  0  0  0  0  0  0  0  0  0  0
  -11.8807   -0.2918    0.0000 C   0  0  0  0  0  0  0  0  0  0  0  0
  -13.1224    0.6020   -0.0000 C   0  0  0  0  0  0  0  0  0  0  0  0
  -14.3790   -0.2707    0.0000 C   0  0  0  0  0  0  0  0  0  0  0  0
  -15.6208    0.6232   -0.0000 C   0  0  0  0  0  0  0  0  0  0  0  0
  -16.8585   -0.2364    0.0000 C   0  0  0  0  0  0  0  0  0  0  0  0
  -16.7579   -1.4405    0.0000 O   0  0  0  0  0  0  0  0  0  0  0  0
  -18.0729    0.3355   -0.0000 O   0  0  0  0  0  0  0  0  0  0  0  0
   19.3620    0.9564    0.8900 H   0  0  0  0  0  0  0  0  0  0  0  0
   20.2413   -0.3097   -0.0000 H   0  0  0  0  0  0  0  0  0  0  0  0
   19.3620    0.9564   -0.8900 H   0  0  0  0  0  0  0  0  0  0  0  0
   18.0947   -1.1749   -0.8900 H   0  0  0  0  0  0  0  0  0  0  0  0
   18.0947   -1.1749    0.8900 H   0  0  0  0  0  0  0  0  0  0  0  0
   16.8636    0.9776    0.8900 H   0  0  0  0  0  0  0  0  0  0  0  0
   16.8636    0.9776   -0.8900 H   0  0  0  0  0  0  0  0  0  0  0  0
   15.5963   -1.1538   -0.8900 H   0  0  0  0  0  0  0  0  0  0  0  0
   15.5963   -1.1538    0.8900 H   0  0  0  0  0  0  0  0  0  0  0  0
   14.3652    0.9987    0.8900 H   0  0  0  0  0  0  0  0  0  0  0  0
   14.3652    0.9987   -0.8900 H   0  0  0  0  0  0  0  0  0  0  0  0
   13.0979   -1.1326   -0.8900 H   0  0  0  0  0  0  0  0  0  0  0  0
   13.0979   -1.1326    0.8900 H   0  0  0  0  0  0  0  0  0  0  0  0
   11.8669    1.0199    0.8900 H   0  0  0  0  0  0  0  0  0  0  0  0
   11.8669    1.0199   -0.8900 H   0  0  0  0  0  0  0  0  0  0  0  0
   10.5995   -1.1115   -0.8900 H   0  0  0  0  0  0  0  0  0  0  0  0
   10.5995   -1.1115    0.8900 H   0  0  0  0  0  0  0  0  0  0  0  0
    9.3685    1.0410    0.8900 H   0  0  0  0  0  0  0  0  0  0  0  0
    9.3685    1.0410   -0.8900 H   0  0  0  0  0  0  0  0  0  0  0  0
    8.1011   -1.0903   -0.8900 H   0  0  0  0  0  0  0  0  0  0  0  0
    8.1011   -1.0903    0.8900 H   0  0  0  0  0  0  0  0  0  0  0  0
    6.8701    1.0622    0.8900 H   0  0  0  0  0  0  0  0  0  0  0  0
    6.8701    1.0622   -0.8900 H   0  0  0  0  0  0  0  0  0  0  0  0
    5.6028   -1.0692   -0.8900 H   0  0  0  0  0  0  0  0  0  0  0  0
    5.6028   -1.0692    0.8900 H   0  0  0  0  0  0  0  0  0  0  0  0
    4.3717    1.0833    0.8900 H   0  0  0  0  0  0  0  0  0  0  0  0
    4.3717    1.0833   -0.8900 H   0  0  0  0  0  0  0  0  0  0  0  0
    3.1044   -1.0480   -0.8900 H   0  0  0  0  0  0  0  0  0  0  0  0
    3.1044   -1.0480    0.8900 H   0  0  0  0  0  0  0  0  0  0  0  0
    1.8733    1.1044    0.8900 H   0  0  0  0  0  0  0  0  0  0  0  0
    1.8733    1.1044   -0.8900 H   0  0  0  0  0  0  0  0  0  0  0  0
    0.6060   -1.0269   -0.8900 H   0  0  0  0  0  0  0  0  0  0  0  0
    0.6060   -1.0269    0.8900 H   0  0  0  0  0  0  0  0  0  0  0  0
   -0.6251    1.1256    0.8900 H   0  0  0  0  0  0  0  0  0  0  0  0
   -0.6251    1.1256   -0.8900 H   0  0  0  0  0  0  0  0  0  0  0  0
   -1.8924   -1.0057   -0.8900 H   0  0  0  0  0  0  0  0  0  0  0  0
   -1.8924   -1.0057    0.8900 H   0  0  0  0  0  0  0  0  0  0  0  0
   -3.1235    1.1467    0.8900 H   0  0  0  0  0  0  0  0  0  0  0  0
   -3.1235    1.1467   -0.8900 H   0  0  0  0  0  0  0  0  0  0  0  0
   -4.3908   -0.9846   -0.8900 H   0  0  0  0  0  0  0  0  0  0  0  0
   -4.3908   -0.9846    0.8900 H   0  0  0  0  0  0  0  0  0  0  0  0
   -5.6219    1.1679    0.8900 H   0  0  0  0  0  0  0  0  0  0  0  0
   -5.6219    1.1679   -0.8900 H   0  0  0  0  0  0  0  0  0  0  0  0
   -6.8892   -0.9634   -0.8900 H   0  0  0  0  0  0  0  0  0  0  0  0
   -6.8892   -0.9634    0.8900 H   0  0  0  0  0  0  0  0  0  0  0  0
   -8.1203    1.1890    0.8900 H   0  0  0  0  0  0  0  0  0  0  0  0
   -8.1203    1.1890   -0.8900 H   0  0  0  0  0  0  0  0  0  0  0  0
   -9.3876   -0.9423   -0.8900 H   0  0  0  0  0  0  0  0  0  0  0  0
   -9.3876   -0.9423    0.8900 H   0  0  0  0  0  0  0  0  0  0  0  0
  -10.6187    1.2102    0.8900 H   0  0  0  0  0  0  0  0  0  0  0  0
  -10.6187    1.2102   -0.8900 H   0  0  0  0  0  0  0  0  0  0  0  0
  -11.8860   -0.9211   -0.8900 H   0  0  0  0  0  0  0  0  0  0  0  0
  -11.8860   -0.9211    0.8900 H   0  0  0  0  0  0  0  0  0  0  0  0
  -13.1170    1.2313    0.8900 H   0  0  0  0  0  0  0  0  0  0  0  0
  -13.1170    1.2313   -0.8900 H   0  0  0  0  0  0  0  0  0  0  0  0
  -14.3844   -0.9000   -0.8900 H   0  0  0  0  0  0  0  0  0  0  0  0
  -14.3844   -0.9000    0.8900 H   0  0  0  0  0  0  0  0  0  0  0  0
  -15.6154    1.2525    0.8900 H   0  0  0  0  0  0  0  0  0  0  0  0
  -15.6154    1.2525   -0.8900 H   0  0  0  0  0  0  0  0  0  0  0  0
  -18.8372   -0.2569    0.0000 H   0  0  0  0  0  0  0  0  0  0  0  0
  1  2  1  0  0  0  0
  2  3  1  0  0  0  0
  3  4  1  0  0  0  0
  4  5  1  0  0  0  0
  5  6  1  0  0  0  0
  6  7  1  0  0  0  0
  7  8  1  0  0  0  0
  8  9  1  0  0  0  0
  9 10  1  0  0  0  0
 10 11  1  0  0  0  0
 11 12  1  0  0  0  0
 12 13  1  0  0  0  0
 13 14  1  0  0  0  0
 14 15  1  0  0  0  0
 15 16  1  0  0  0  0
 16 17  1  0  0  0  0
 17 18  1  0  0  0  0
 18 19  1  0  0  0  0
 19 20  1  0  0  0  0
 20 21  1  0  0  0  0
 21 22  1  0  0  0  0
 22 23  1  0  0  0  0
 23 24  1  0  0  0  0
 24 25  1  0  0  0  0
 25 26  1  0  0  0  0
 26 27  1  0  0  0  0
 27 28  1  0  0  0  0
 28 29  1  0  0  0  0
 29 30  1  0  0  0  0
 30 31  2  0  0  0  0
 30 32  1  0  0  0  0
  1 33  1  0  0  0  0
  1 34  1  0  0  0  0
  1 35  1  0  0  0  0
  2 36  1  0  0  0  0
  2 37  1  0  0  0  0
  3 38  1  0  0  0  0
  3 39  1  0  0  0  0
  4 40  1  0  0  0  0
  4 41  1  0  0  0  0
  5 42  1  0  0  0  0
  5 43  1  0  0  0  0
  6 44  1  0  0  0  0
  6 45  1  0  0  0  0
  7 46  1  0  0  0  0
  7 47  1  0  0  0  0
  8 48  1  0  0  0  0
  8 49  1  0  0  0  0
  9 50  1  0  0  0  0
  9 51  1  0  0  0  0
 10 52  1  0  0  0  0
 10 53  1  0  0  0  0
 11 54  1  0  0  0  0
 11 55  1  0  0  0  0
 12 56  1  0  0  0  0
 12 57  1  0  0  0  0
 13 58  1  0  0  0  0
 13 59  1  0  0  0  0
 14 60  1  0  0  0  0
 14 61  1  0  0  0  0
 15 62  1  0  0  0  0
 15 63  1  0  0  0  0
 16 64  1  0  0  0  0
 16 65  1  0  0  0  0
 17 66  1  0  0  0  0
 17 67  1  0  0  0  0
 18 68  1  0  0  0  0
 18 69  1  0  0  0  0
 19 70  1  0  0  0  0
 19 71  1  0  0  0  0
 20 72  1  0  0  0  0
 20 73  1  0  0  0  0
 21 74  1  0  0  0  0
 21 75  1  0  0  0  0
 22 76  1  0  0  0  0
 22 77  1  0  0  0  0
 23 78  1  0  0  0  0
 23 79  1  0  0  0  0
 24 80  1  0  0  0  0
 24 81  1  0  0  0  0
 25 82  1  0  0  0  0
 25 83  1  0  0  0  0
 26 84  1  0  0  0  0
 26 85  1  0  0  0  0
 27 86  1  0  0  0  0
 27 87  1  0  0  0  0
 28 88  1  0  0  0  0
 28 89  1  0  0  0  0
 29 90  1  0  0  0  0
 29 91  1  0  0  0  0
 32 92  1  0  0  0  0
M  END
$$$$
