C10H9NO4
APtclcactv06281817293D 0   0.00000     0.00000
 
 24 25  0  0  0  0  0  0  0  0999 V2000
   -3.2691    1.4711    0.0426 C   0  0  0  0  0  0  0  0  0  0  0  0
   -3.8333    0.2865   -0.3932 C   0  0  0  0  0  0  0  0  0  0  0  0
   -3.0553   -0.8433   -0.5428 C   0  0  0  0  0  0  0  0  0  0  0  0
   -1.6931   -0.7976   -0.2544 C   0  0  0  0  0  0  0  0  0  0  0  0
   -1.1380    0.3988    0.1828 C   0  0  0  0  0  0  0  0  0  0  0  0
   -1.9160    1.5244    0.3307 C   0  0  0  0  0  0  0  0  0  0  0  0
    0.3320    0.1284    0.4072 C   0  0  0  0  0  0  0  0  0  0  0  0
    0.4972   -1.3320    0.0443 C   0  0  0  0  0  0  0  0  0  0  0  0
    1.5275   -1.9711    0.0799 O   0  0  0  0  0  0  0  0  0  0  0  0
   -0.7120   -1.7873   -0.3243 N   0  0  0  0  0  0  0  0  0  0  0  0
    1.1848    1.0083   -0.5090 C   0  0  0  0  0  0  0  0  0  0  0  0
    2.6366    0.6345   -0.3554 C   0  0  0  0  0  0  0  0  0  0  0  0
    2.9564   -0.2454    0.4084 O   0  0  0  0  0  0  0  0  0  0  0  0
    3.5745    1.2790   -1.0673 O   0  0  0  0  0  0  0  0  0  0  0  0
    0.6778    0.3463    1.7765 O   0  0  0  0  0  0  0  0  0  0  0  0
   -3.8814    2.3538    0.1537 H   0  0  0  0  0  0  0  0  0  0  0  0
   -4.8889    0.2451   -0.6176 H   0  0  0  0  0  0  0  0  0  0  0  0
   -3.5034   -1.7649   -0.8837 H   0  0  0  0  0  0  0  0  0  0  0  0
   -1.4716    2.4480    0.6710 H   0  0  0  0  0  0  0  0  0  0  0  0
   -0.8834   -2.6994   -0.6066 H   0  0  0  0  0  0  0  0  0  0  0  0
    0.8787    0.8588   -1.5443 H   0  0  0  0  0  0  0  0  0  0  0  0
    1.0485    2.0551   -0.2373 H   0  0  0  0  0  0  0  0  0  0  0  0
    4.4922    1.0041   -0.9349 H   0  0  0  0  0  0  0  0  0  0  0  0
    1.6103    0.1872    1.9768 H   0  0  0  0  0  0  0  0  0  0  0  0
  1  2  2  0  0  0  0
  2  3  1  0  0  0  0
  3  4  2  0  0  0  0
  4  5  1  0  0  0  0
  5  6  2  0  0  0  0
  1  6  1  0  0  0  0
  5  7  1  0  0  0  0
  7  8  1  0  0  0  0
  8  9  2  0  0  0  0
  8 10  1  0  0  0  0
  4 10  1  0  0  0  0
  7 11  1  0  0  0  0
 11 12  1  0  0  0  0
 12 13  2  0  0  0  0
 12 14  1  0  0  0  0
  7 15  1  0  0  0  0
  1 16  1  0  0  0  0
  2 17  1  0  0  0  0
  3 18  1  0  0  0  0
  6 19  1  0  0  0  0
 10 20  1  0  0  0  0
 11 21  1  0  0  0  0
 11 22  1  0  0  0  0
 14 23  1  0  0  0  0
 15 24  1  0  0  0  0
M  END
$$$$
