C16H12O7
APtclcactv06281817293D 0   0.00000     0.00000
 
 35 37  0  0  0  0  0  0  0  0999 V2000
    5.2890   -1.9675    0.7948 C   0  0  0  0  0  0  0  0  0  0  0  0
    4.8707   -1.2428   -0.3636 O   0  0  0  0  0  0  0  0  0  0  0  0
    3.8289   -0.3798   -0.2100 C   0  0  0  0  0  0  0  0  0  0  0  0
    4.0689    0.9470    0.1429 C   0  0  0  0  0  0  0  0  0  0  0  0
    3.0205    1.8388    0.2990 C   0  0  0  0  0  0  0  0  0  0  0  0
    1.7118    1.4183    0.1062 C   0  0  0  0  0  0  0  0  0  0  0  0
    1.4679    0.0765   -0.2401 C   0  0  0  0  0  0  0  0  0  0  0  0
    2.5297   -0.8188   -0.4101 C   0  0  0  0  0  0  0  0  0  0  0  0
    2.2886   -2.1095   -0.7576 O   0  0  0  0  0  0  0  0  0  0  0  0
    0.0690   -0.3504   -0.4152 C   0  0  0  0  0  0  0  0  0  0  0  0
   -0.2233   -1.4192   -0.9241 O   0  0  0  0  0  0  0  0  0  0  0  0
   -0.9570    0.5965    0.0643 C   0  0  0  0  0  0  0  0  0  0  0  0
   -0.5669    1.8607    0.3705 C   0  0  0  0  0  0  0  0  0  0  0  0
    0.6900    2.2859    0.2418 O   0  0  0  0  0  0  0  0  0  0  0  0
   -2.3732    0.1792    0.2071 C   0  0  0  0  0  0  0  0  0  0  0  0
   -3.3560    0.7603   -0.5920 C   0  0  0  0  0  0  0  0  0  0  0  0
   -4.6758    0.3680   -0.4561 C   0  0  0  0  0  0  0  0  0  0  0  0
   -5.0194   -0.6056    0.4779 C   0  0  0  0  0  0  0  0  0  0  0  0
   -4.0410   -1.1832    1.2724 C   0  0  0  0  0  0  0  0  0  0  0  0
   -2.7223   -0.7988    1.1367 C   0  0  0  0  0  0  0  0  0  0  0  0
   -6.3170   -0.9905    0.6113 O   0  0  0  0  0  0  0  0  0  0  0  0
   -5.6371    0.9336   -1.2342 O   0  0  0  0  0  0  0  0  0  0  0  0
    5.3450    1.3702    0.3363 O   0  0  0  0  0  0  0  0  0  0  0  0
    5.6012   -1.2664    1.5689 H   0  0  0  0  0  0  0  0  0  0  0  0
    4.4604   -2.5715    1.1644 H   0  0  0  0  0  0  0  0  0  0  0  0
    6.1246   -2.6173    0.5347 H   0  0  0  0  0  0  0  0  0  0  0  0
    3.2220    2.8642    0.5719 H   0  0  0  0  0  0  0  0  0  0  0  0
    2.2682   -2.2625   -1.7122 H   0  0  0  0  0  0  0  0  0  0  0  0
   -1.3100    2.5544    0.7351 H   0  0  0  0  0  0  0  0  0  0  0  0
   -3.0879    1.5158   -1.3159 H   0  0  0  0  0  0  0  0  0  0  0  0
   -4.3106   -1.9382    1.9961 H   0  0  0  0  0  0  0  0  0  0  0  0
   -1.9619   -1.2504    1.7566 H   0  0  0  0  0  0  0  0  0  0  0  0
   -6.5687   -1.7296    0.0409 H   0  0  0  0  0  0  0  0  0  0  0  0
   -5.7913    0.4695   -2.0684 H   0  0  0  0  0  0  0  0  0  0  0  0
    5.7721    1.7095   -0.4621 H   0  0  0  0  0  0  0  0  0  0  0  0
  1  2  1  0  0  0  0
  2  3  1  0  0  0  0
  3  4  2  0  0  0  0
  4  5  1  0  0  0  0
  5  6  2  0  0  0  0
  6  7  1  0  0  0  0
  7  8  2  0  0  0  0
  3  8  1  0  0  0  0
  8  9  1  0  0  0  0
  7 10  1  0  0  0  0
 10 11  2  0  0  0  0
 10 12  1  0  0  0  0
 12 13  2  0  0  0  0
 13 14  1  0  0  0  0
  6 14  1  0  0  0  0
 12 15  1  0  0  0  0
 15 16  2  0  0  0  0
 16 17  1  0  0  0  0
 17 18  2  0  0  0  0
 18 19  1  0  0  0  0
 19 20  2  0  0  0  0
 15 20  1  0  0  0  0
 18 21  1  0  0  0  0
 17 22  1  0  0  0  0
  4 23  1  0  0  0  0
  1 24  1  0  0  0  0
  1 25  1  0  0  0  0
  1 26  1  0  0  0  0
  5 27  1  0  0  0  0
  9 28  1  0  0  0  0
 13 29  1  0  0  0  0
 16 30  1  0  0  0  0
 19 31  1  0  0  0  0
 20 32  1  0  0  0  0
 21 33  1  0  0  0  0
 22 34  1  0  0  0  0
 23 35  1  0  0  0  0
M  END
$$$$
