C12H12N2OS2
APtclcactv06281817293D 0   0.00000     0.00000
 
 29 31  0  0  0  0  0  0  0  0999 V2000
    1.4978    3.1661   -0.9835 C   0  0  0  0  0  0  0  0  0  0  0  0
    1.5657    2.5187    0.2886 O   0  0  0  0  0  0  0  0  0  0  0  0
    1.3767    1.1165    0.2321 N   0  0  0  0  0  0  0  0  0  0  0  0
    2.3835    0.1854    0.0674 C   0  0  0  0  0  0  0  0  0  0  0  0
    3.7609    0.2880   -0.0811 C   0  0  0  0  0  0  0  0  0  0  0  0
    4.5216   -0.8525   -0.2311 C   0  0  0  0  0  0  0  0  0  0  0  0
    3.9248   -2.1050   -0.2359 C   0  0  0  0  0  0  0  0  0  0  0  0
    2.5714   -2.2296   -0.0913 C   0  0  0  0  0  0  0  0  0  0  0  0
    1.7816   -1.0880    0.0637 C   0  0  0  0  0  0  0  0  0  0  0  0
    0.3493   -0.8601    0.2406 C   0  0  0  0  0  0  0  0  0  0  0  0
    0.1703    0.4806    0.3384 C   0  0  0  0  0  0  0  0  0  0  0  0
   -1.4089    1.2367    0.5547 S   0  0  0  0  0  0  0  0  0  0  0  0
   -2.4420   -0.1193    0.1255 C   0  0  0  0  0  0  0  0  0  0  0  0
   -2.0509   -1.3344    0.0586 N   0  0  0  0  0  0  0  0  0  0  0  0
   -0.7389   -1.8895    0.3136 C   0  0  0  0  0  0  0  0  0  0  0  0
   -4.1327    0.2197   -0.2367 S   0  0  0  0  0  0  0  0  0  0  0  0
   -4.7180   -1.4540   -0.6002 C   0  0  0  0  0  0  0  0  0  0  0  0
    2.2710    2.7634   -1.6378 H   0  0  0  0  0  0  0  0  0  0  0  0
    0.5182    2.9913   -1.4283 H   0  0  0  0  0  0  0  0  0  0  0  0
    1.6525    4.2374   -0.8548 H   0  0  0  0  0  0  0  0  0  0  0  0
    4.2348    1.2585   -0.0794 H   0  0  0  0  0  0  0  0  0  0  0  0
    5.5923   -0.7699   -0.3462 H   0  0  0  0  0  0  0  0  0  0  0  0
    4.5345   -2.9884   -0.3553 H   0  0  0  0  0  0  0  0  0  0  0  0
    2.1139   -3.2079   -0.0969 H   0  0  0  0  0  0  0  0  0  0  0  0
   -0.5352   -2.6645   -0.4254 H   0  0  0  0  0  0  0  0  0  0  0  0
   -0.7352   -2.3423    1.3051 H   0  0  0  0  0  0  0  0  0  0  0  0
   -5.7782   -1.4216   -0.8514 H   0  0  0  0  0  0  0  0  0  0  0  0
   -4.1574   -1.8601   -1.4422 H   0  0  0  0  0  0  0  0  0  0  0  0
   -4.5709   -2.0882    0.2739 H   0  0  0  0  0  0  0  0  0  0  0  0
  1  2  1  0  0  0  0
  2  3  1  0  0  0  0
  3  4  1  0  0  0  0
  4  5  2  0  0  0  0
  5  6  1  0  0  0  0
  6  7  2  0  0  0  0
  7  8  1  0  0  0  0
  8  9  2  0  0  0  0
  4  9  1  0  0  0  0
  9 10  1  0  0  0  0
 10 11  2  0  0  0  0
  3 11  1  0  0  0  0
 11 12  1  0  0  0  0
 12 13  1  0  0  0  0
 13 14  2  0  0  0  0
 14 15  1  0  0  0  0
 10 15  1  0  0  0  0
 13 16  1  0  0  0  0
 16 17  1  0  0  0  0
  1 18  1  0  0  0  0
  1 19  1  0  0  0  0
  1 20  1  0  0  0  0
  5 21  1  0  0  0  0
  6 22  1  0  0  0  0
  7 23  1  0  0  0  0
  8 24  1  0  0  0  0
 15 25  1  0  0  0  0
 15 26  1  0  0  0  0
 17 27  1  0  0  0  0
 17 28  1  0  0  0  0
 17 29  1  0  0  0  0
M  END
$$$$
