C11H10O4
APtclcactv06281816283D 0   0.00000     0.00000
 
 25 26  0  0  0  0  0  0  0  0999 V2000
    4.1921   -0.6715    0.0988 C   0  0  0  0  0  0  0  0  0  0  0  0
    3.0995    0.2431    0.2070 O   0  0  0  0  0  0  0  0  0  0  0  0
    1.8491   -0.2759    0.1067 C   0  0  0  0  0  0  0  0  0  0  0  0
    0.7488    0.5600    0.2034 C   0  0  0  0  0  0  0  0  0  0  0  0
   -0.5291    0.0311    0.1012 C   0  0  0  0  0  0  0  0  0  0  0  0
   -0.6903   -1.3523   -0.1000 C   0  0  0  0  0  0  0  0  0  0  0  0
    0.4328   -2.1822   -0.1949 C   0  0  0  0  0  0  0  0  0  0  0  0
    1.6833   -1.6444   -0.0982 C   0  0  0  0  0  0  0  0  0  0  0  0
   -2.0439   -1.9008   -0.2065 C   0  0  0  0  0  0  0  0  0  0  0  0
   -3.0933   -1.0441   -0.1057 C   0  0  0  0  0  0  0  0  0  0  0  0
   -2.8586    0.3316    0.0959 C   0  0  0  0  0  0  0  0  0  0  0  0
   -3.8084    1.0888    0.1845 O   0  0  0  0  0  0  0  0  0  0  0  0
   -1.6153    0.8279    0.1931 O   0  0  0  0  0  0  0  0  0  0  0  0
    0.9397    2.0391    0.4195 C   0  0  0  0  0  0  0  0  0  0  0  0
    1.0281    2.6978   -0.8456 O   0  0  0  0  0  0  0  0  0  0  0  0
    4.1206   -1.4181    0.8898 H   0  0  0  0  0  0  0  0  0  0  0  0
    4.1572   -1.1661   -0.8719 H   0  0  0  0  0  0  0  0  0  0  0  0
    5.1319   -0.1280    0.1961 H   0  0  0  0  0  0  0  0  0  0  0  0
    0.3103   -3.2441   -0.3490 H   0  0  0  0  0  0  0  0  0  0  0  0
    2.5499   -2.2848   -0.1715 H   0  0  0  0  0  0  0  0  0  0  0  0
   -2.2036   -2.9577   -0.3613 H   0  0  0  0  0  0  0  0  0  0  0  0
   -4.1047   -1.4156   -0.1802 H   0  0  0  0  0  0  0  0  0  0  0  0
    0.0924    2.4371    0.9779 H   0  0  0  0  0  0  0  0  0  0  0  0
    1.8577    2.2086    0.9822 H   0  0  0  0  0  0  0  0  0  0  0  0
    1.1518    3.6548   -0.7830 H   0  0  0  0  0  0  0  0  0  0  0  0
  1  2  1  0  0  0  0
  2  3  1  0  0  0  0
  3  4  2  0  0  0  0
  4  5  1  0  0  0  0
  5  6  2  0  0  0  0
  6  7  1  0  0  0  0
  7  8  2  0  0  0  0
  3  8  1  0  0  0  0
  6  9  1  0  0  0  0
  9 10  2  0  0  0  0
 10 11  1  0  0  0  0
 11 12  2  0  0  0  0
 11 13  1  0  0  0  0
  5 13  1  0  0  0  0
  4 14  1  0  0  0  0
 14 15  1  0  0  0  0
  1 16  1  0  0  0  0
  1 17  1  0  0  0  0
  1 18  1  0  0  0  0
  7 19  1  0  0  0  0
  8 20  1  0  0  0  0
  9 21  1  0  0  0  0
 10 22  1  0  0  0  0
 14 23  1  0  0  0  0
 14 24  1  0  0  0  0
 15 25  1  0  0  0  0
M  END
$$$$
