C8H11NO3
APtclcactv06201814493D 0   0.00000     0.00000
 
 23 23  0  0  0  0  0  0  0  0999 V2000
    3.1645    1.2303   -0.1457 C   0  0  0  0  0  0  0  0  0  0  0  0
    1.6895    0.9342   -0.0583 C   0  0  0  0  0  0  0  0  0  0  0  0
    0.8184    1.9141   -0.1936 N   0  0  0  0  0  0  0  0  0  0  0  0
   -0.4815    1.7024   -0.1250 C   0  0  0  0  0  0  0  0  0  0  0  0
   -0.9830    0.4332    0.0938 C   0  0  0  0  0  0  0  0  0  0  0  0
   -0.1020   -0.6262    0.2416 C   0  0  0  0  0  0  0  0  0  0  0  0
    1.2623   -0.3680    0.1580 C   0  0  0  0  0  0  0  0  0  0  0  0
    2.1642   -1.3754    0.2961 O   0  0  0  0  0  0  0  0  0  0  0  0
   -0.6097   -2.0247    0.4815 C   0  0  0  0  0  0  0  0  0  0  0  0
   -0.8058   -2.6819   -0.7722 O   0  0  0  0  0  0  0  0  0  0  0  0
   -2.4705    0.2042    0.1712 C   0  0  0  0  0  0  0  0  0  0  0  0
   -3.1537    1.4459   -0.0110 O   0  0  0  0  0  0  0  0  0  0  0  0
    3.5473    1.4658    0.8473 H   0  0  0  0  0  0  0  0  0  0  0  0
    3.6874    0.3587   -0.5394 H   0  0  0  0  0  0  0  0  0  0  0  0
    3.3258    2.0806   -0.8083 H   0  0  0  0  0  0  0  0  0  0  0  0
   -1.1632    2.5319   -0.2409 H   0  0  0  0  0  0  0  0  0  0  0  0
    2.3988   -1.8100   -0.5352 H   0  0  0  0  0  0  0  0  0  0  0  0
    0.1191   -2.5795    1.0724 H   0  0  0  0  0  0  0  0  0  0  0  0
   -1.5561   -1.9802    1.0203 H   0  0  0  0  0  0  0  0  0  0  0  0
   -1.1325   -3.5886   -0.6941 H   0  0  0  0  0  0  0  0  0  0  0  0
   -2.7717   -0.4942   -0.6096 H   0  0  0  0  0  0  0  0  0  0  0  0
   -2.7240   -0.2103    1.1469 H   0  0  0  0  0  0  0  0  0  0  0  0
   -4.1173    1.3739    0.0268 H   0  0  0  0  0  0  0  0  0  0  0  0
  1  2  1  0  0  0  0
  2  3  2  0  0  0  0
  3  4  1  0  0  0  0
  4  5  2  0  0  0  0
  5  6  1  0  0  0  0
  6  7  2  0  0  0  0
  2  7  1  0  0  0  0
  7  8  1  0  0  0  0
  6  9  1  0  0  0  0
  9 10  1  0  0  0  0
  5 11  1  0  0  0  0
 11 12  1  0  0  0  0
  1 13  1  0  0  0  0
  1 14  1  0  0  0  0
  1 15  1  0  0  0  0
  4 16  1  0  0  0  0
  8 17  1  0  0  0  0
  9 18  1  0  0  0  0
  9 19  1  0  0  0  0
 10 20  1  0  0  0  0
 11 21  1  0  0  0  0
 11 22  1  0  0  0  0
 12 23  1  0  0  0  0
M  END
$$$$
