C19H28O10
APtclcactv06281817293D 0   0.00000     0.00000
 
 57 59  0  0  0  0  0  0  0  0999 V2000
    5.2605   -1.4174   -1.2677 C   0  0  0  0  0  0  0  0  0  0  0  0
    4.9176   -0.9957    0.1625 C   0  0  0  0  0  0  0  0  0  0  0  0
    5.4507    0.4161    0.4202 C   0  0  0  0  0  0  0  0  0  0  0  0
    4.7588    1.3964   -0.5320 C   0  0  0  0  0  0  0  0  0  0  0  0
    3.2431    1.3018   -0.3319 C   0  0  0  0  0  0  0  0  0  0  0  0
    2.7953   -0.1442   -0.5605 C   0  0  0  0  0  0  0  0  0  0  0  0
    3.4991   -1.0067    0.3355 O   0  0  0  0  0  0  0  0  0  0  0  0
    1.3907   -0.2516   -0.3207 O   0  0  0  0  0  0  0  0  0  0  0  0
    0.8475   -1.5400   -0.6157 C   0  0  0  0  0  0  0  0  0  0  0  0
   -0.6543   -1.5395   -0.3234 C   0  0  0  0  0  0  0  0  0  0  0  0
   -1.2590   -2.8777   -0.7560 C   0  0  0  0  0  0  0  0  0  0  0  0
   -2.7501   -2.8925   -0.4053 C   0  0  0  0  0  0  0  0  0  0  0  0
   -2.9125   -2.6395    1.0967 C   0  0  0  0  0  0  0  0  0  0  0  0
   -2.2439   -1.3105    1.4577 C   0  0  0  0  0  0  0  0  0  0  0  0
   -0.8671   -1.3527    1.0773 O   0  0  0  0  0  0  0  0  0  0  0  0
   -2.8972   -0.2448    0.7653 O   0  0  0  0  0  0  0  0  0  0  0  0
   -2.4222    1.0557    1.1191 C   0  0  0  0  0  0  0  0  0  0  0  0
   -3.1765    2.0970    0.3332 C   0  0  0  0  0  0  0  0  0  0  0  0
   -4.3423    2.6374    0.8429 C   0  0  0  0  0  0  0  0  0  0  0  0
   -5.0343    3.5926    0.1221 C   0  0  0  0  0  0  0  0  0  0  0  0
   -4.5603    4.0077   -1.1083 C   0  0  0  0  0  0  0  0  0  0  0  0
   -3.3940    3.4680   -1.6176 C   0  0  0  0  0  0  0  0  0  0  0  0
   -2.6997    2.5160   -0.8948 C   0  0  0  0  0  0  0  0  0  0  0  0
   -4.3024   -2.5790    1.4232 O   0  0  0  0  0  0  0  0  0  0  0  0
   -3.4237   -1.8674   -1.1383 O   0  0  0  0  0  0  0  0  0  0  0  0
   -1.0986   -3.0406   -2.1666 O   0  0  0  0  0  0  0  0  0  0  0  0
    2.9116    1.6995    1.0000 O   0  0  0  0  0  0  0  0  0  0  0  0
    5.1963    2.7270   -0.2490 O   0  0  0  0  0  0  0  0  0  0  0  0
    5.1776    0.7903    1.7720 O   0  0  0  0  0  0  0  0  0  0  0  0
    6.3424   -1.4080   -1.3998 H   0  0  0  0  0  0  0  0  0  0  0  0
    4.8809   -2.4226   -1.4510 H   0  0  0  0  0  0  0  0  0  0  0  0
    4.8025   -0.7222   -1.9712 H   0  0  0  0  0  0  0  0  0  0  0  0
    5.3752   -1.6911    0.8661 H   0  0  0  0  0  0  0  0  0  0  0  0
    6.5264    0.4367    0.2457 H   0  0  0  0  0  0  0  0  0  0  0  0
    5.0072    1.1409   -1.5621 H   0  0  0  0  0  0  0  0  0  0  0  0
    2.7402    1.9559   -1.0442 H   0  0  0  0  0  0  0  0  0  0  0  0
    3.0118   -0.4335   -1.5889 H   0  0  0  0  0  0  0  0  0  0  0  0
    1.0128   -1.7717   -1.6679 H   0  0  0  0  0  0  0  0  0  0  0  0
    1.3379   -2.2915    0.0031 H   0  0  0  0  0  0  0  0  0  0  0  0
   -1.1317   -0.7296   -0.8750 H   0  0  0  0  0  0  0  0  0  0  0  0
   -0.7542   -3.6911   -0.2348 H   0  0  0  0  0  0  0  0  0  0  0  0
   -3.1748   -3.8636   -0.6595 H   0  0  0  0  0  0  0  0  0  0  0  0
   -2.4411   -3.4481    1.6554 H   0  0  0  0  0  0  0  0  0  0  0  0
   -2.3191   -1.1459    2.5326 H   0  0  0  0  0  0  0  0  0  0  0  0
   -2.5776    1.2217    2.1851 H   0  0  0  0  0  0  0  0  0  0  0  0
   -1.3587    1.1284    0.8913 H   0  0  0  0  0  0  0  0  0  0  0  0
   -4.7127    2.3131    1.8042 H   0  0  0  0  0  0  0  0  0  0  0  0
   -5.9455    4.0143    0.5200 H   0  0  0  0  0  0  0  0  0  0  0  0
   -5.1013    4.7535   -1.6718 H   0  0  0  0  0  0  0  0  0  0  0  0
   -3.0239    3.7921   -2.5791 H   0  0  0  0  0  0  0  0  0  0  0  0
   -1.7885    2.0943   -1.2927 H   0  0  0  0  0  0  0  0  0  0  0  0
   -4.4798   -2.4209    2.3605 H   0  0  0  0  0  0  0  0  0  0  0  0
   -4.3738   -1.8193   -0.9646 H   0  0  0  0  0  0  0  0  0  0  0  0
   -1.4599   -3.8690   -2.5105 H   0  0  0  0  0  0  0  0  0  0  0  0
    1.9656    1.6639    1.1972 H   0  0  0  0  0  0  0  0  0  0  0  0
    4.7973    3.4012   -0.8159 H   0  0  0  0  0  0  0  0  0  0  0  0
    5.5817    0.2087    2.4304 H   0  0  0  0  0  0  0  0  0  0  0  0
  1  2  1  0  0  0  0
  2  3  1  0  0  0  0
  3  4  1  0  0  0  0
  4  5  1  0  0  0  0
  5  6  1  0  0  0  0
  6  7  1  0  0  0  0
  2  7  1  0  0  0  0
  6  8  1  0  0  0  0
  8  9  1  0  0  0  0
  9 10  1  0  0  0  0
 10 11  1  0  0  0  0
 11 12  1  0  0  0  0
 12 13  1  0  0  0  0
 13 14  1  0  0  0  0
 14 15  1  0  0  0  0
 10 15  1  0  0  0  0
 14 16  1  0  0  0  0
 16 17  1  0  0  0  0
 17 18  1  0  0  0  0
 18 19  2  0  0  0  0
 19 20  1  0  0  0  0
 20 21  2  0  0  0  0
 21 22  1  0  0  0  0
 22 23  2  0  0  0  0
 18 23  1  0  0  0  0
 13 24  1  0  0  0  0
 12 25  1  0  0  0  0
 11 26  1  0  0  0  0
  5 27  1  0  0  0  0
  4 28  1  0  0  0  0
  3 29  1  0  0  0  0
  1 30  1  0  0  0  0
  1 31  1  0  0  0  0
  1 32  1  0  0  0  0
  2 33  1  0  0  0  0
  3 34  1  0  0  0  0
  4 35  1  0  0  0  0
  5 36  1  0  0  0  0
  6 37  1  0  0  0  0
  9 38  1  0  0  0  0
  9 39  1  0  0  0  0
 10 40  1  0  0  0  0
 11 41  1  0  0  0  0
 12 42  1  0  0  0  0
 13 43  1  0  0  0  0
 14 44  1  0  0  0  0
 17 45  1  0  0  0  0
 17 46  1  0  0  0  0
 19 47  1  0  0  0  0
 20 48  1  0  0  0  0
 21 49  1  0  0  0  0
 22 50  1  0  0  0  0
 23 51  1  0  0  0  0
 24 52  1  0  0  0  0
 25 53  1  0  0  0  0
 26 54  1  0  0  0  0
 27 55  1  0  0  0  0
 28 56  1  0  0  0  0
 29 57  1  0  0  0  0
M  END
$$$$
