C10H18O
APtclcactv06211804463D 0   0.00000     0.00000
 
 29 30  0  0  0  0  0  0  0  0999 V2000
    2.8569    1.1397   -0.0051 C   0  0  0  0  0  0  0  0  0  0  0  0
    1.4885    0.7832    0.5791 C   0  0  0  0  0  0  0  0  0  0  0  0
    0.3704    1.0906   -0.4382 C   0  0  0  0  0  0  0  0  0  0  0  0
    0.1456    0.1037   -1.5856 C   0  0  0  0  0  0  0  0  0  0  0  0
   -0.6714   -0.0334   -0.2993 C   0  0  0  0  0  0  0  0  0  0  0  0
   -0.1499   -0.9845    0.7976 C   0  0  0  0  0  0  0  0  0  0  0  0
    1.3801   -0.7441    0.8128 C   0  0  0  0  0  0  0  0  0  0  0  0
    2.0165   -1.4646   -0.2445 O   0  0  0  0  0  0  0  0  0  0  0  0
   -2.1718    0.2644   -0.3301 C   0  0  0  0  0  0  0  0  0  0  0  0
   -2.9541   -1.0399   -0.1630 C   0  0  0  0  0  0  0  0  0  0  0  0
   -2.5255    1.2208    0.8106 C   0  0  0  0  0  0  0  0  0  0  0  0
    2.8822    2.2018   -0.2491 H   0  0  0  0  0  0  0  0  0  0  0  0
    3.6336    0.9164    0.7262 H   0  0  0  0  0  0  0  0  0  0  0  0
    3.0297    0.5551   -0.9087 H   0  0  0  0  0  0  0  0  0  0  0  0
    1.3184    1.3264    1.5087 H   0  0  0  0  0  0  0  0  0  0  0  0
    0.0829    2.1339   -0.5680 H   0  0  0  0  0  0  0  0  0  0  0  0
   -0.3705    0.4726   -2.4720 H   0  0  0  0  0  0  0  0  0  0  0  0
    0.9222   -0.6387   -1.7694 H   0  0  0  0  0  0  0  0  0  0  0  0
   -0.5859   -0.7286    1.7632 H   0  0  0  0  0  0  0  0  0  0  0  0
   -0.3708   -2.0205    0.5407 H   0  0  0  0  0  0  0  0  0  0  0  0
    1.8046   -1.0183    1.7786 H   0  0  0  0  0  0  0  0  0  0  0  0
    1.9081   -2.4239   -0.1877 H   0  0  0  0  0  0  0  0  0  0  0  0
   -2.4315    0.7242   -1.2836 H   0  0  0  0  0  0  0  0  0  0  0  0
   -2.6944   -1.4998    0.7905 H   0  0  0  0  0  0  0  0  0  0  0  0
   -4.0230   -0.8278   -0.1849 H   0  0  0  0  0  0  0  0  0  0  0  0
   -2.7022   -1.7213   -0.9756 H   0  0  0  0  0  0  0  0  0  0  0  0
   -2.2657    0.7609    1.7641 H   0  0  0  0  0  0  0  0  0  0  0  0
   -1.9681    2.1500    0.6916 H   0  0  0  0  0  0  0  0  0  0  0  0
   -3.5944    1.4329    0.7887 H   0  0  0  0  0  0  0  0  0  0  0  0
  1  2  1  0  0  0  0
  2  3  1  0  0  0  0
  3  4  1  0  0  0  0
  4  5  1  0  0  0  0
  3  5  1  0  0  0  0
  5  6  1  0  0  0  0
  6  7  1  0  0  0  0
  2  7  1  0  0  0  0
  7  8  1  0  0  0  0
  5  9  1  0  0  0  0
  9 10  1  0  0  0  0
  9 11  1  0  0  0  0
  1 12  1  0  0  0  0
  1 13  1  0  0  0  0
  1 14  1  0  0  0  0
  2 15  1  0  0  0  0
  3 16  1  0  0  0  0
  4 17  1  0  0  0  0
  4 18  1  0  0  0  0
  6 19  1  0  0  0  0
  6 20  1  0  0  0  0
  7 21  1  0  0  0  0
  8 22  1  0  0  0  0
  9 23  1  0  0  0  0
 10 24  1  0  0  0  0
 10 25  1  0  0  0  0
 10 26  1  0  0  0  0
 11 27  1  0  0  0  0
 11 28  1  0  0  0  0
 11 29  1  0  0  0  0
M  END
$$$$
