C6H10OS2
APtclcactv06281817293D 0   0.00000     0.00000
 
 19 18  0  0  0  0  0  0  0  0999 V2000
    4.6434    0.5913    0.1312 C   0  0  0  0  0  0  0  0  0  0  0  0
    3.4530   -0.2846   -0.1634 C   0  0  0  0  0  0  0  0  0  0  0  0
    2.2344    0.1395    0.1204 C   0  0  0  0  0  0  0  0  0  0  0  0
    0.8426   -0.8847   -0.2240 S   0  0  0  0  0  0  0  0  0  0  0  0
   -0.7381    0.2580    0.4068 S   0  0  0  0  0  0  0  0  0  0  0  0
   -0.7212    1.3541   -0.4974 O   0  0  0  0  0  0  0  0  0  0  0  0
   -2.1710   -0.7964    0.0522 C   0  0  0  0  0  0  0  0  0  0  0  0
   -3.4331   -0.0849    0.4669 C   0  0  0  0  0  0  0  0  0  0  0  0
   -4.3152    0.2643   -0.4365 C   0  0  0  0  0  0  0  0  0  0  0  0
    4.6813    0.8056    1.1993 H   0  0  0  0  0  0  0  0  0  0  0  0
    5.5563    0.0767   -0.1687 H   0  0  0  0  0  0  0  0  0  0  0  0
    4.5536    1.5251   -0.4238 H   0  0  0  0  0  0  0  0  0  0  0  0
    3.5961   -1.2590   -0.6066 H   0  0  0  0  0  0  0  0  0  0  0  0
    2.0914    1.1139    0.5636 H   0  0  0  0  0  0  0  0  0  0  0  0
   -2.2089   -1.0107   -1.0159 H   0  0  0  0  0  0  0  0  0  0  0  0
   -2.0812   -1.7302    0.6072 H   0  0  0  0  0  0  0  0  0  0  0  0
   -3.6104    0.1370    1.5088 H   0  0  0  0  0  0  0  0  0  0  0  0
   -5.2197    0.7742   -0.1394 H   0  0  0  0  0  0  0  0  0  0  0  0
   -4.1379    0.0423   -1.4785 H   0  0  0  0  0  0  0  0  0  0  0  0
  1  2  1  0  0  0  0
  2  3  2  0  0  0  0
  3  4  1  0  0  0  0
  4  5  1  0  0  0  0
  5  6  2  0  0  0  0
  5  7  1  0  0  0  0
  7  8  1  0  0  0  0
  8  9  2  0  0  0  0
  1 10  1  0  0  0  0
  1 11  1  0  0  0  0
  1 12  1  0  0  0  0
  2 13  1  0  0  0  0
  3 14  1  0  0  0  0
  7 15  1  0  0  0  0
  7 16  1  0  0  0  0
  8 17  1  0  0  0  0
  9 18  1  0  0  0  0
  9 19  1  0  0  0  0
M  END
$$$$
