C10H16
APtclcactv06211804463D 0   0.00000     0.00000
 
 26 26  0  0  0  0  0  0  0  0999 V2000
    0.0245   -1.5142   -1.3801 C   0  0  0  0  0  0  0  0  0  0  0  0
    0.1259   -0.9182    0.0253 C   0  0  0  0  0  0  0  0  0  0  0  0
    1.3883   -0.1032    0.1329 C   0  0  0  0  0  0  0  0  0  0  0  0
    1.4006    1.1642   -0.2611 C   0  0  0  0  0  0  0  0  0  0  0  0
    0.1716    1.7838   -0.7794 C   0  0  0  0  0  0  0  0  0  0  0  0
   -1.0063    1.2221   -0.5374 C   0  0  0  0  0  0  0  0  0  0  0  0
   -1.0916   -0.0338    0.2901 C   0  0  0  0  0  0  0  0  0  0  0  0
   -2.3645   -0.7989   -0.0779 C   0  0  0  0  0  0  0  0  0  0  0  0
   -1.1363    0.3377    1.7736 C   0  0  0  0  0  0  0  0  0  0  0  0
    2.6410   -0.7288    0.6900 C   0  0  0  0  0  0  0  0  0  0  0  0
    0.8876   -2.1533   -1.5669 H   0  0  0  0  0  0  0  0  0  0  0  0
   -0.8885   -2.1043   -1.4596 H   0  0  0  0  0  0  0  0  0  0  0  0
    0.0023   -0.7097   -2.1152 H   0  0  0  0  0  0  0  0  0  0  0  0
    0.1520   -1.7240    0.7589 H   0  0  0  0  0  0  0  0  0  0  0  0
    2.3123    1.7401   -0.2007 H   0  0  0  0  0  0  0  0  0  0  0  0
    0.2275    2.6952   -1.3561 H   0  0  0  0  0  0  0  0  0  0  0  0
   -1.9066    1.6668   -0.9351 H   0  0  0  0  0  0  0  0  0  0  0  0
   -2.3380   -1.0608   -1.1357 H   0  0  0  0  0  0  0  0  0  0  0  0
   -2.4277   -1.7080    0.5200 H   0  0  0  0  0  0  0  0  0  0  0  0
   -3.2346   -0.1728    0.1196 H   0  0  0  0  0  0  0  0  0  0  0  0
   -2.0099    0.9606    1.9660 H   0  0  0  0  0  0  0  0  0  0  0  0
   -1.1981   -0.5701    2.3738 H   0  0  0  0  0  0  0  0  0  0  0  0
   -0.2329    0.8873    2.0379 H   0  0  0  0  0  0  0  0  0  0  0  0
    3.2152   -1.1765   -0.1212 H   0  0  0  0  0  0  0  0  0  0  0  0
    3.2419    0.0366    1.1811 H   0  0  0  0  0  0  0  0  0  0  0  0
    2.3720   -1.4990    1.4129 H   0  0  0  0  0  0  0  0  0  0  0  0
  1  2  1  0  0  0  0
  2  3  1  0  0  0  0
  3  4  2  0  0  0  0
  4  5  1  0  0  0  0
  5  6  2  0  0  0  0
  6  7  1  0  0  0  0
  2  7  1  0  0  0  0
  7  8  1  0  0  0  0
  7  9  1  0  0  0  0
  3 10  1  0  0  0  0
  1 11  1  0  0  0  0
  1 12  1  0  0  0  0
  1 13  1  0  0  0  0
  2 14  1  0  0  0  0
  4 15  1  0  0  0  0
  5 16  1  0  0  0  0
  6 17  1  0  0  0  0
  8 18  1  0  0  0  0
  8 19  1  0  0  0  0
  8 20  1  0  0  0  0
  9 21  1  0  0  0  0
  9 22  1  0  0  0  0
  9 23  1  0  0  0  0
 10 24  1  0  0  0  0
 10 25  1  0  0  0  0
 10 26  1  0  0  0  0
M  END
$$$$
