C15H24
APtclcactv06211804463D 0   0.00000     0.00000
 
 39 39  0  0  0  0  0  0  0  0999 V2000
    3.1278    1.6626   -0.5195 C   0  0  0  0  0  0  0  0  0  0  0  0
    2.8128    0.2838    0.0009 C   0  0  0  0  0  0  0  0  0  0  0  0
    3.7838   -0.5574    0.2568 C   0  0  0  0  0  0  0  0  0  0  0  0
    1.3806   -0.1272    0.2270 C   0  0  0  0  0  0  0  0  0  0  0  0
    0.7364    0.8102    1.2503 C   0  0  0  0  0  0  0  0  0  0  0  0
   -0.7175    0.3930    1.4798 C   0  0  0  0  0  0  0  0  0  0  0  0
   -1.4859    0.4741    0.1593 C   0  0  0  0  0  0  0  0  0  0  0  0
   -0.8418   -0.4634   -0.8640 C   0  0  0  0  0  0  0  0  0  0  0  0
    0.6122   -0.0461   -1.0936 C   0  0  0  0  0  0  0  0  0  0  0  0
   -0.8826   -1.8776   -0.3452 C   0  0  0  0  0  0  0  0  0  0  0  0
   -2.0342   -2.4571   -0.1128 C   0  0  0  0  0  0  0  0  0  0  0  0
    0.4015   -2.6253   -0.0936 C   0  0  0  0  0  0  0  0  0  0  0  0
   -2.9399    0.0568    0.3888 C   0  0  0  0  0  0  0  0  0  0  0  0
   -1.4451    1.8884   -0.3596 C   0  0  0  0  0  0  0  0  0  0  0  0
   -2.5518    2.5826   -0.4567 C   0  0  0  0  0  0  0  0  0  0  0  0
    3.1527    1.6428   -1.6090 H   0  0  0  0  0  0  0  0  0  0  0  0
    2.3601    2.3609   -0.1862 H   0  0  0  0  0  0  0  0  0  0  0  0
    4.0985    1.9813   -0.1396 H   0  0  0  0  0  0  0  0  0  0  0  0
    4.8102   -0.2628    0.0948 H   0  0  0  0  0  0  0  0  0  0  0  0
    3.5580   -1.5455    0.6298 H   0  0  0  0  0  0  0  0  0  0  0  0
    1.3511   -1.1501    0.6023 H   0  0  0  0  0  0  0  0  0  0  0  0
    1.2839    0.7525    2.1911 H   0  0  0  0  0  0  0  0  0  0  0  0
    0.7660    1.8332    0.8750 H   0  0  0  0  0  0  0  0  0  0  0  0
   -0.7470   -0.6300    1.8551 H   0  0  0  0  0  0  0  0  0  0  0  0
   -1.1765    1.0608    2.2088 H   0  0  0  0  0  0  0  0  0  0  0  0
   -1.3892   -0.4056   -1.8048 H   0  0  0  0  0  0  0  0  0  0  0  0
    0.6417    0.9769   -1.4688 H   0  0  0  0  0  0  0  0  0  0  0  0
    1.0712   -0.7139   -1.8226 H   0  0  0  0  0  0  0  0  0  0  0  0
   -2.9532   -1.9643   -0.3940 H   0  0  0  0  0  0  0  0  0  0  0  0
   -2.0647   -3.4277    0.3598 H   0  0  0  0  0  0  0  0  0  0  0  0
    0.6807   -2.5252    0.9553 H   0  0  0  0  0  0  0  0  0  0  0  0
    0.2611   -3.6793   -0.3332 H   0  0  0  0  0  0  0  0  0  0  0  0
    1.1914   -2.2121   -0.7209 H   0  0  0  0  0  0  0  0  0  0  0  0
   -3.4655    0.8491    0.9218 H   0  0  0  0  0  0  0  0  0  0  0  0
   -3.4239   -0.1176   -0.5722 H   0  0  0  0  0  0  0  0  0  0  0  0
   -2.9662   -0.8584    0.9802 H   0  0  0  0  0  0  0  0  0  0  0  0
   -0.5035    2.3296   -0.6514 H   0  0  0  0  0  0  0  0  0  0  0  0
   -3.4805    2.1727   -0.0880 H   0  0  0  0  0  0  0  0  0  0  0  0
   -2.5355    3.5648   -0.9055 H   0  0  0  0  0  0  0  0  0  0  0  0
  1  2  1  0  0  0  0
  2  3  2  0  0  0  0
  2  4  1  0  0  0  0
  4  5  1  0  0  0  0
  5  6  1  0  0  0  0
  6  7  1  0  0  0  0
  7  8  1  0  0  0  0
  8  9  1  0  0  0  0
  4  9  1  0  0  0  0
  8 10  1  0  0  0  0
 10 11  2  0  0  0  0
 10 12  1  0  0  0  0
  7 13  1  0  0  0  0
  7 14  1  0  0  0  0
 14 15  2  0  0  0  0
  1 16  1  0  0  0  0
  1 17  1  0  0  0  0
  1 18  1  0  0  0  0
  3 19  1  0  0  0  0
  3 20  1  0  0  0  0
  4 21  1  0  0  0  0
  5 22  1  0  0  0  0
  5 23  1  0  0  0  0
  6 24  1  0  0  0  0
  6 25  1  0  0  0  0
  8 26  1  0  0  0  0
  9 27  1  0  0  0  0
  9 28  1  0  0  0  0
 11 29  1  0  0  0  0
 11 30  1  0  0  0  0
 12 31  1  0  0  0  0
 12 32  1  0  0  0  0
 12 33  1  0  0  0  0
 13 34  1  0  0  0  0
 13 35  1  0  0  0  0
 13 36  1  0  0  0  0
 14 37  1  0  0  0  0
 15 38  1  0  0  0  0
 15 39  1  0  0  0  0
M  END
$$$$
