C10H16O
APtclcactv06211804463D 0   0.00000     0.00000
 
 27 28  0  0  0  0  0  0  0  0999 V2000
    2.7517   -1.1464   -0.0232 C   0  0  0  0  0  0  0  0  0  0  0  0
    1.4487   -0.4072    0.2875 C   0  0  0  0  0  0  0  0  0  0  0  0
    1.4112    1.0412   -0.2414 C   0  0  0  0  0  0  0  0  0  0  0  0
    0.2736    1.8334    0.4174 C   0  0  0  0  0  0  0  0  0  0  0  0
   -1.0156    1.0553    0.3120 C   0  0  0  0  0  0  0  0  0  0  0  0
   -1.0088   -0.1425   -0.2265 C   0  0  0  0  0  0  0  0  0  0  0  0
    0.3219   -0.6767   -0.7270 C   0  0  0  0  0  0  0  0  0  0  0  0
    1.0026    0.4167   -1.5865 C   0  0  0  0  0  0  0  0  0  0  0  0
   -2.2723   -0.9557   -0.3426 C   0  0  0  0  0  0  0  0  0  0  0  0
   -3.3664   -0.2165    0.2039 O   0  0  0  0  0  0  0  0  0  0  0  0
    1.0162   -0.5443    1.7487 C   0  0  0  0  0  0  0  0  0  0  0  0
    3.5206   -0.8416    0.6867 H   0  0  0  0  0  0  0  0  0  0  0  0
    2.5880   -2.2210    0.0576 H   0  0  0  0  0  0  0  0  0  0  0  0
    3.0749   -0.9033   -1.0354 H   0  0  0  0  0  0  0  0  0  0  0  0
    2.3706    1.5586   -0.2334 H   0  0  0  0  0  0  0  0  0  0  0  0
    0.5103    2.0025    1.4679 H   0  0  0  0  0  0  0  0  0  0  0  0
    0.1603    2.7930   -0.0871 H   0  0  0  0  0  0  0  0  0  0  0  0
   -1.9385    1.4814    0.6770 H   0  0  0  0  0  0  0  0  0  0  0  0
    0.2839   -1.6822   -1.1461 H   0  0  0  0  0  0  0  0  0  0  0  0
    0.3042    1.0247   -2.1616 H   0  0  0  0  0  0  0  0  0  0  0  0
    1.8429    0.0538   -2.1783 H   0  0  0  0  0  0  0  0  0  0  0  0
   -2.4691   -1.1732   -1.3924 H   0  0  0  0  0  0  0  0  0  0  0  0
   -2.1548   -1.8900    0.2062 H   0  0  0  0  0  0  0  0  0  0  0  0
   -4.2139   -0.6802    0.1626 H   0  0  0  0  0  0  0  0  0  0  0  0
    1.8540   -0.2964    2.4004 H   0  0  0  0  0  0  0  0  0  0  0  0
    0.1876    0.1354    1.9477 H   0  0  0  0  0  0  0  0  0  0  0  0
    0.6988   -1.5696    1.9390 H   0  0  0  0  0  0  0  0  0  0  0  0
  1  2  1  0  0  0  0
  2  3  1  0  0  0  0
  3  4  1  0  0  0  0
  4  5  1  0  0  0  0
  5  6  2  0  0  0  0
  6  7  1  0  0  0  0
  2  7  1  0  0  0  0
  7  8  1  0  0  0  0
  3  8  1  0  0  0  0
  6  9  1  0  0  0  0
  9 10  1  0  0  0  0
  2 11  1  0  0  0  0
  1 12  1  0  0  0  0
  1 13  1  0  0  0  0
  1 14  1  0  0  0  0
  3 15  1  0  0  0  0
  4 16  1  0  0  0  0
  4 17  1  0  0  0  0
  5 18  1  0  0  0  0
  7 19  1  0  0  0  0
  8 20  1  0  0  0  0
  8 21  1  0  0  0  0
  9 22  1  0  0  0  0
  9 23  1  0  0  0  0
 10 24  1  0  0  0  0
 11 25  1  0  0  0  0
 11 26  1  0  0  0  0
 11 27  1  0  0  0  0
M  END
$$$$
