C23H16O7
APtclcactv06281817293D 0   0.00000     0.00000
 
 46 49  0  0  0  0  0  0  0  0999 V2000
   -0.6027    3.9420   -1.0949 C   0  0  0  0  0  0  0  0  0  0  0  0
   -0.5521    2.6061   -0.5899 O   0  0  0  0  0  0  0  0  0  0  0  0
   -1.7371    1.9928   -0.3526 C   0  0  0  0  0  0  0  0  0  0  0  0
   -1.7576    0.6780    0.1447 C   0  0  0  0  0  0  0  0  0  0  0  0
   -2.9941    0.0521    0.3875 C   0  0  0  0  0  0  0  0  0  0  0  0
   -4.1813    0.7545    0.1278 C   0  0  0  0  0  0  0  0  0  0  0  0
   -4.1307    2.0647   -0.3683 C   0  0  0  0  0  0  0  0  0  0  0  0
   -2.9273    2.6685   -0.5965 C   0  0  0  0  0  0  0  0  0  0  0  0
   -5.4647    0.0961    0.3831 C   0  0  0  0  0  0  0  0  0  0  0  0
   -5.4497   -1.1745    0.8634 C   0  0  0  0  0  0  0  0  0  0  0  0
   -4.2181   -1.8188    1.1009 C   0  0  0  0  0  0  0  0  0  0  0  0
   -4.2170   -2.9580    1.5317 O   0  0  0  0  0  0  0  0  0  0  0  0
   -3.0469   -1.2075    0.8630 O   0  0  0  0  0  0  0  0  0  0  0  0
   -0.5064   -0.0321    0.4065 C   0  0  0  0  0  0  0  0  0  0  0  0
    0.4754   -0.0768   -0.5591 C   0  0  0  0  0  0  0  0  0  0  0  0
    0.2727    0.5653   -1.8057 C   0  0  0  0  0  0  0  0  0  0  0  0
    1.1380    0.5259   -2.6567 O   0  0  0  0  0  0  0  0  0  0  0  0
    1.7429   -0.7961   -0.2939 C   0  0  0  0  0  0  0  0  0  0  0  0
    1.8625   -2.1513   -0.6116 C   0  0  0  0  0  0  0  0  0  0  0  0
    3.0512   -2.8300   -0.3633 C   0  0  0  0  0  0  0  0  0  0  0  0
    4.1174   -2.1833    0.1931 C   0  0  0  0  0  0  0  0  0  0  0  0
    4.0219   -0.8247    0.5198 C   0  0  0  0  0  0  0  0  0  0  0  0
    2.8306   -0.1220    0.2711 C   0  0  0  0  0  0  0  0  0  0  0  0
    2.7425    1.1870    0.5868 O   0  0  0  0  0  0  0  0  0  0  0  0
    3.7735    1.8456    1.1387 C   0  0  0  0  0  0  0  0  0  0  0  0
    3.6481    3.0269    1.4073 O   0  0  0  0  0  0  0  0  0  0  0  0
    4.9982    1.2038    1.4158 C   0  0  0  0  0  0  0  0  0  0  0  0
    5.1538   -0.1121    1.1168 C   0  0  0  0  0  0  0  0  0  0  0  0
    0.8126   -2.8098   -1.1652 O   0  0  0  0  0  0  0  0  0  0  0  0
    1.0006   -4.1940   -1.4659 C   0  0  0  0  0  0  0  0  0  0  0  0
    0.4115    4.3141   -1.2402 H   0  0  0  0  0  0  0  0  0  0  0  0
   -1.1328    3.9506   -2.0472 H   0  0  0  0  0  0  0  0  0  0  0  0
   -1.1252    4.5802   -0.3823 H   0  0  0  0  0  0  0  0  0  0  0  0
   -5.0473    2.6004   -0.5663 H   0  0  0  0  0  0  0  0  0  0  0  0
   -2.9000    3.6782   -0.9788 H   0  0  0  0  0  0  0  0  0  0  0  0
   -6.3974    0.6070    0.1949 H   0  0  0  0  0  0  0  0  0  0  0  0
   -6.3779   -1.6894    1.0631 H   0  0  0  0  0  0  0  0  0  0  0  0
   -0.3519   -0.5215    1.3567 H   0  0  0  0  0  0  0  0  0  0  0  0
   -0.6514    1.0898   -1.9990 H   0  0  0  0  0  0  0  0  0  0  0  0
    3.1313   -3.8778   -0.6126 H   0  0  0  0  0  0  0  0  0  0  0  0
    5.0354   -2.7202    0.3817 H   0  0  0  0  0  0  0  0  0  0  0  0
    5.8116    1.7579    1.8604 H   0  0  0  0  0  0  0  0  0  0  0  0
    6.0839   -0.6212    1.3217 H   0  0  0  0  0  0  0  0  0  0  0  0
    1.2362   -4.7361   -0.5501 H   0  0  0  0  0  0  0  0  0  0  0  0
    0.0874   -4.5983   -1.9026 H   0  0  0  0  0  0  0  0  0  0  0  0
    1.8216   -4.3037   -2.1744 H   0  0  0  0  0  0  0  0  0  0  0  0
  1  2  1  0  0  0  0
  2  3  1  0  0  0  0
  3  4  2  0  0  0  0
  4  5  1  0  0  0  0
  5  6  2  0  0  0  0
  6  7  1  0  0  0  0
  7  8  2  0  0  0  0
  3  8  1  0  0  0  0
  6  9  1  0  0  0  0
  9 10  2  0  0  0  0
 10 11  1  0  0  0  0
 11 12  2  0  0  0  0
 11 13  1  0  0  0  0
  5 13  1  0  0  0  0
  4 14  1  0  0  0  0
 14 15  2  0  0  0  0
 15 16  1  0  0  0  0
 16 17  2  0  0  0  0
 15 18  1  0  0  0  0
 18 19  2  0  0  0  0
 19 20  1  0  0  0  0
 20 21  2  0  0  0  0
 21 22  1  0  0  0  0
 22 23  2  0  0  0  0
 18 23  1  0  0  0  0
 23 24  1  0  0  0  0
 24 25  1  0  0  0  0
 25 26  2  0  0  0  0
 25 27  1  0  0  0  0
 27 28  2  0  0  0  0
 22 28  1  0  0  0  0
 19 29  1  0  0  0  0
 29 30  1  0  0  0  0
  1 31  1  0  0  0  0
  1 32  1  0  0  0  0
  1 33  1  0  0  0  0
  7 34  1  0  0  0  0
  8 35  1  0  0  0  0
  9 36  1  0  0  0  0
 10 37  1  0  0  0  0
 14 38  1  0  0  0  0
 16 39  1  0  0  0  0
 20 40  1  0  0  0  0
 21 41  1  0  0  0  0
 27 42  1  0  0  0  0
 28 43  1  0  0  0  0
 30 44  1  0  0  0  0
 30 45  1  0  0  0  0
 30 46  1  0  0  0  0
M  END
$$$$
