C28H34O15
APtclcactv06211804463D 0   0.00000     0.00000
 
 77 81  0  0  0  0  0  0  0  0999 V2000
   -6.4615    2.7441    1.9723 C   0  0  0  0  0  0  0  0  0  0  0  0
   -6.0602    2.7015    0.4965 C   0  0  0  0  0  0  0  0  0  0  0  0
   -5.2805    3.9706    0.1426 C   0  0  0  0  0  0  0  0  0  0  0  0
   -3.9941    4.0184    0.9729 C   0  0  0  0  0  0  0  0  0  0  0  0
   -3.1829    2.7457    0.7111 C   0  0  0  0  0  0  0  0  0  0  0  0
   -4.0436    1.5240    1.0430 C   0  0  0  0  0  0  0  0  0  0  0  0
   -5.2379    1.5571    0.2590 O   0  0  0  0  0  0  0  0  0  0  0  0
   -3.3129    0.3319    0.7481 O   0  0  0  0  0  0  0  0  0  0  0  0
   -3.9848   -0.8707    1.1280 C   0  0  0  0  0  0  0  0  0  0  0  0
   -3.1151   -2.0766    0.7669 C   0  0  0  0  0  0  0  0  0  0  0  0
   -3.7765   -3.3564    1.2850 C   0  0  0  0  0  0  0  0  0  0  0  0
   -2.9311   -4.5637    0.8676 C   0  0  0  0  0  0  0  0  0  0  0  0
   -2.7789   -4.5641   -0.6566 C   0  0  0  0  0  0  0  0  0  0  0  0
   -2.1561   -3.2377   -1.0997 C   0  0  0  0  0  0  0  0  0  0  0  0
   -2.9756   -2.1555   -0.6532 O   0  0  0  0  0  0  0  0  0  0  0  0
   -0.8502   -3.1117   -0.5336 O   0  0  0  0  0  0  0  0  0  0  0  0
   -0.1157   -2.0357   -0.9126 C   0  0  0  0  0  0  0  0  0  0  0  0
   -0.6488   -1.1222   -1.8132 C   0  0  0  0  0  0  0  0  0  0  0  0
    0.0917   -0.0203   -2.2030 C   0  0  0  0  0  0  0  0  0  0  0  0
    1.3808    0.1664   -1.6802 C   0  0  0  0  0  0  0  0  0  0  0  0
    2.1833    1.3325   -2.0656 C   0  0  0  0  0  0  0  0  0  0  0  0
    1.6989    2.2705   -2.6645 O   0  0  0  0  0  0  0  0  0  0  0  0
    3.6505    1.3060   -1.6765 C   0  0  0  0  0  0  0  0  0  0  0  0
    3.7352    0.7084   -0.2644 C   0  0  0  0  0  0  0  0  0  0  0  0
    3.1664   -0.6008   -0.2709 O   0  0  0  0  0  0  0  0  0  0  0  0
    1.9199   -0.7649   -0.7731 C   0  0  0  0  0  0  0  0  0  0  0  0
    1.1596   -1.8559   -0.3915 C   0  0  0  0  0  0  0  0  0  0  0  0
    5.1783    0.6278    0.1620 C   0  0  0  0  0  0  0  0  0  0  0  0
    5.7042    1.5916    1.0019 C   0  0  0  0  0  0  0  0  0  0  0  0
    7.0310    1.5189    1.3949 C   0  0  0  0  0  0  0  0  0  0  0  0
    7.8313    0.4744    0.9422 C   0  0  0  0  0  0  0  0  0  0  0  0
    7.2979   -0.4884    0.1005 C   0  0  0  0  0  0  0  0  0  0  0  0
    5.9719   -0.4131   -0.2833 C   0  0  0  0  0  0  0  0  0  0  0  0
    9.1341    0.3989    1.3247 O   0  0  0  0  0  0  0  0  0  0  0  0
    9.8955   -0.7006    0.8212 C   0  0  0  0  0  0  0  0  0  0  0  0
    7.5500    2.4665    2.2208 O   0  0  0  0  0  0  0  0  0  0  0  0
   -0.4241    0.8725   -3.0839 O   0  0  0  0  0  0  0  0  0  0  0  0
   -1.9318   -5.6450   -1.0516 O   0  0  0  0  0  0  0  0  0  0  0  0
   -1.6413   -4.4778    1.4768 O   0  0  0  0  0  0  0  0  0  0  0  0
   -3.8646   -3.3051    2.7104 O   0  0  0  0  0  0  0  0  0  0  0  0
   -2.7980    2.6993   -0.6642 O   0  0  0  0  0  0  0  0  0  0  0  0
   -3.2243    5.1619    0.5964 O   0  0  0  0  0  0  0  0  0  0  0  0
   -4.9511    3.9566   -1.2478 O   0  0  0  0  0  0  0  0  0  0  0  0
   -7.0878    3.6176    2.1534 H   0  0  0  0  0  0  0  0  0  0  0  0
   -7.0166    1.8405    2.2240 H   0  0  0  0  0  0  0  0  0  0  0  0
   -5.5660    2.8046    2.5907 H   0  0  0  0  0  0  0  0  0  0  0  0
   -6.9556    2.6407   -0.1221 H   0  0  0  0  0  0  0  0  0  0  0  0
   -5.8901    4.8465    0.3647 H   0  0  0  0  0  0  0  0  0  0  0  0
   -4.2457    4.0791    2.0318 H   0  0  0  0  0  0  0  0  0  0  0  0
   -2.2925    2.7456    1.3398 H   0  0  0  0  0  0  0  0  0  0  0  0
   -4.3032    1.5389    2.1016 H   0  0  0  0  0  0  0  0  0  0  0  0
   -4.1655   -0.8619    2.2028 H   0  0  0  0  0  0  0  0  0  0  0  0
   -4.9361   -0.9377    0.6001 H   0  0  0  0  0  0  0  0  0  0  0  0
   -2.1316   -1.9652    1.2233 H   0  0  0  0  0  0  0  0  0  0  0  0
   -4.7762   -3.4475    0.8604 H   0  0  0  0  0  0  0  0  0  0  0  0
   -3.4252   -5.4820    1.1849 H   0  0  0  0  0  0  0  0  0  0  0  0
   -3.7585   -4.6795   -1.1204 H   0  0  0  0  0  0  0  0  0  0  0  0
   -2.0848   -3.2149   -2.1872 H   0  0  0  0  0  0  0  0  0  0  0  0
   -1.6421   -1.2725   -2.2099 H   0  0  0  0  0  0  0  0  0  0  0  0
    4.2090    0.6847   -2.3766 H   0  0  0  0  0  0  0  0  0  0  0  0
    4.0526    2.3191   -1.6756 H   0  0  0  0  0  0  0  0  0  0  0  0
    3.1844    1.3409    0.4319 H   0  0  0  0  0  0  0  0  0  0  0  0
    1.5603   -2.5723    0.3103 H   0  0  0  0  0  0  0  0  0  0  0  0
    5.0811    2.4015    1.3515 H   0  0  0  0  0  0  0  0  0  0  0  0
    7.9169   -1.3001   -0.2523 H   0  0  0  0  0  0  0  0  0  0  0  0
    5.5574   -1.1642   -0.9394 H   0  0  0  0  0  0  0  0  0  0  0  0
    9.4404   -1.6364    1.1455 H   0  0  0  0  0  0  0  0  0  0  0  0
    9.9118   -0.6627   -0.2680 H   0  0  0  0  0  0  0  0  0  0  0  0
   10.9150   -0.6412    1.2021 H   0  0  0  0  0  0  0  0  0  0  0  0
    7.4659    2.2575    3.1612 H   0  0  0  0  0  0  0  0  0  0  0  0
   -0.9131    1.5965   -2.6693 H   0  0  0  0  0  0  0  0  0  0  0  0
   -1.7912   -5.7058   -2.0064 H   0  0  0  0  0  0  0  0  0  0  0  0
   -1.0521   -5.2118    1.2554 H   0  0  0  0  0  0  0  0  0  0  0  0
   -4.2744   -4.0857    3.1075 H   0  0  0  0  0  0  0  0  0  0  0  0
   -2.2800    1.9179   -0.9015 H   0  0  0  0  0  0  0  0  0  0  0  0
   -2.3942    5.2550    1.0835 H   0  0  0  0  0  0  0  0  0  0  0  0
   -5.7195    3.9218   -1.8338 H   0  0  0  0  0  0  0  0  0  0  0  0
  1  2  1  0  0  0  0
  2  3  1  0  0  0  0
  3  4  1  0  0  0  0
  4  5  1  0  0  0  0
  5  6  1  0  0  0  0
  6  7  1  0  0  0  0
  2  7  1  0  0  0  0
  6  8  1  0  0  0  0
  8  9  1  0  0  0  0
  9 10  1  0  0  0  0
 10 11  1  0  0  0  0
 11 12  1  0  0  0  0
 12 13  1  0  0  0  0
 13 14  1  0  0  0  0
 14 15  1  0  0  0  0
 10 15  1  0  0  0  0
 14 16  1  0  0  0  0
 16 17  1  0  0  0  0
 17 18  2  0  0  0  0
 18 19  1  0  0  0  0
 19 20  2  0  0  0  0
 20 21  1  0  0  0  0
 21 22  2  0  0  0  0
 21 23  1  0  0  0  0
 23 24  1  0  0  0  0
 24 25  1  0  0  0  0
 25 26  1  0  0  0  0
 20 26  1  0  0  0  0
 26 27  2  0  0  0  0
 17 27  1  0  0  0  0
 24 28  1  0  0  0  0
 28 29  2  0  0  0  0
 29 30  1  0  0  0  0
 30 31  2  0  0  0  0
 31 32  1  0  0  0  0
 32 33  2  0  0  0  0
 28 33  1  0  0  0  0
 31 34  1  0  0  0  0
 34 35  1  0  0  0  0
 30 36  1  0  0  0  0
 19 37  1  0  0  0  0
 13 38  1  0  0  0  0
 12 39  1  0  0  0  0
 11 40  1  0  0  0  0
  5 41  1  0  0  0  0
  4 42  1  0  0  0  0
  3 43  1  0  0  0  0
  1 44  1  0  0  0  0
  1 45  1  0  0  0  0
  1 46  1  0  0  0  0
  2 47  1  0  0  0  0
  3 48  1  0  0  0  0
  4 49  1  0  0  0  0
  5 50  1  0  0  0  0
  6 51  1  0  0  0  0
  9 52  1  0  0  0  0
  9 53  1  0  0  0  0
 10 54  1  0  0  0  0
 11 55  1  0  0  0  0
 12 56  1  0  0  0  0
 13 57  1  0  0  0  0
 14 58  1  0  0  0  0
 18 59  1  0  0  0  0
 23 60  1  0  0  0  0
 23 61  1  0  0  0  0
 24 62  1  0  0  0  0
 27 63  1  0  0  0  0
 29 64  1  0  0  0  0
 32 65  1  0  0  0  0
 33 66  1  0  0  0  0
 35 67  1  0  0  0  0
 35 68  1  0  0  0  0
 35 69  1  0  0  0  0
 36 70  1  0  0  0  0
 37 71  1  0  0  0  0
 38 72  1  0  0  0  0
 39 73  1  0  0  0  0
 40 74  1  0  0  0  0
 41 75  1  0  0  0  0
 42 76  1  0  0  0  0
 43 77  1  0  0  0  0
M  END
$$$$
