C33H56N2O
APtclcactv06281817293D 0   0.00000     0.00000
 
 92 93  0  0  0  0  0  0  0  0999 V2000
   20.1255    0.8213    0.5512 C   0  0  0  0  0  0  0  0  0  0  0  0
   18.9206    0.2327   -0.1855 C   0  0  0  0  0  0  0  0  0  0  0  0
   17.6310    0.6899    0.4992 C   0  0  0  0  0  0  0  0  0  0  0  0
   16.4261    0.1013   -0.2375 C   0  0  0  0  0  0  0  0  0  0  0  0
   15.1365    0.5585    0.4472 C   0  0  0  0  0  0  0  0  0  0  0  0
   13.9316   -0.0301   -0.2895 C   0  0  0  0  0  0  0  0  0  0  0  0
   12.6420    0.4271    0.3952 C   0  0  0  0  0  0  0  0  0  0  0  0
   11.4372   -0.1615   -0.3415 C   0  0  0  0  0  0  0  0  0  0  0  0
   10.1476    0.2957    0.3432 C   0  0  0  0  0  0  0  0  0  0  0  0
    8.9427   -0.2929   -0.3936 C   0  0  0  0  0  0  0  0  0  0  0  0
    7.6531    0.1643    0.2911 C   0  0  0  0  0  0  0  0  0  0  0  0
    6.4482   -0.4243   -0.4456 C   0  0  0  0  0  0  0  0  0  0  0  0
    5.1586    0.0329    0.2391 C   0  0  0  0  0  0  0  0  0  0  0  0
    3.9537   -0.5557   -0.4976 C   0  0  0  0  0  0  0  0  0  0  0  0
    2.6641   -0.0985    0.1871 C   0  0  0  0  0  0  0  0  0  0  0  0
    1.4592   -0.6871   -0.5496 C   0  0  0  0  0  0  0  0  0  0  0  0
    0.1696   -0.2299    0.1351 C   0  0  0  0  0  0  0  0  0  0  0  0
   -1.0352   -0.8185   -0.6016 C   0  0  0  0  0  0  0  0  0  0  0  0
   -2.3248   -0.3613    0.0831 C   0  0  0  0  0  0  0  0  0  0  0  0
   -3.5297   -0.9499   -0.6536 C   0  0  0  0  0  0  0  0  0  0  0  0
   -4.8193   -0.4927    0.0311 C   0  0  0  0  0  0  0  0  0  0  0  0
   -6.0242   -1.0813   -0.7057 C   0  0  0  0  0  0  0  0  0  0  0  0
   -7.2944   -0.6310   -0.0312 C   0  0  0  0  0  0  0  0  0  0  0  0
   -7.2412    0.0897    0.9428 O   0  0  0  0  0  0  0  0  0  0  0  0
   -8.4895   -1.0292   -0.5105 N   0  0  0  0  0  0  0  0  0  0  0  0
   -9.7243   -0.5914    0.1452 C   0  0  0  0  0  0  0  0  0  0  0  0
  -10.9292   -1.1800   -0.5916 C   0  0  0  0  0  0  0  0  0  0  0  0
  -12.1994   -0.7297    0.0829 C   0  0  0  0  0  0  0  0  0  0  0  0
  -12.8905   -1.4038    1.0156 C   0  0  0  0  0  0  0  0  0  0  0  0
  -13.9892   -0.6818    1.3949 N   0  0  0  0  0  0  0  0  0  0  0  0
  -14.0331    0.5048    0.6977 C   0  0  0  0  0  0  0  0  0  0  0  0
  -14.9129    1.5820    0.6953 C   0  0  0  0  0  0  0  0  0  0  0  0
  -14.6797    2.6541   -0.1382 C   0  0  0  0  0  0  0  0  0  0  0  0
  -13.5742    2.6711   -0.9772 C   0  0  0  0  0  0  0  0  0  0  0  0
  -12.6972    1.6231   -0.9913 C   0  0  0  0  0  0  0  0  0  0  0  0
  -12.9107    0.5295   -0.1505 C   0  0  0  0  0  0  0  0  0  0  0  0
   20.0686    1.9096    0.5294 H   0  0  0  0  0  0  0  0  0  0  0  0
   20.1220    0.4780    1.5857 H   0  0  0  0  0  0  0  0  0  0  0  0
   21.0442    0.4956    0.0634 H   0  0  0  0  0  0  0  0  0  0  0  0
   18.9241    0.5760   -1.2200 H   0  0  0  0  0  0  0  0  0  0  0  0
   18.9775   -0.8556   -0.1636 H   0  0  0  0  0  0  0  0  0  0  0  0
   17.6275    0.3466    1.5337 H   0  0  0  0  0  0  0  0  0  0  0  0
   17.5741    1.7782    0.4773 H   0  0  0  0  0  0  0  0  0  0  0  0
   16.4296    0.4446   -1.2720 H   0  0  0  0  0  0  0  0  0  0  0  0
   16.4830   -0.9870   -0.2156 H   0  0  0  0  0  0  0  0  0  0  0  0
   15.1330    0.2152    1.4817 H   0  0  0  0  0  0  0  0  0  0  0  0
   15.0796    1.6468    0.4253 H   0  0  0  0  0  0  0  0  0  0  0  0
   13.9351    0.3132   -1.3240 H   0  0  0  0  0  0  0  0  0  0  0  0
   13.9885   -1.1184   -0.2677 H   0  0  0  0  0  0  0  0  0  0  0  0
   12.6386    0.0838    1.4297 H   0  0  0  0  0  0  0  0  0  0  0  0
   12.5852    1.5154    0.3733 H   0  0  0  0  0  0  0  0  0  0  0  0
   11.4407    0.1818   -1.3761 H   0  0  0  0  0  0  0  0  0  0  0  0
   11.4940   -1.2498   -0.3197 H   0  0  0  0  0  0  0  0  0  0  0  0
   10.1441   -0.0476    1.3777 H   0  0  0  0  0  0  0  0  0  0  0  0
   10.0907    1.3840    0.3213 H   0  0  0  0  0  0  0  0  0  0  0  0
    8.9462    0.0504   -1.4281 H   0  0  0  0  0  0  0  0  0  0  0  0
    8.9996   -1.3812   -0.3717 H   0  0  0  0  0  0  0  0  0  0  0  0
    7.6496   -0.1790    1.3257 H   0  0  0  0  0  0  0  0  0  0  0  0
    7.5962    1.2526    0.2693 H   0  0  0  0  0  0  0  0  0  0  0  0
    6.4517   -0.0810   -1.4801 H   0  0  0  0  0  0  0  0  0  0  0  0
    6.5051   -1.5126   -0.4237 H   0  0  0  0  0  0  0  0  0  0  0  0
    5.1551   -0.3104    1.2737 H   0  0  0  0  0  0  0  0  0  0  0  0
    5.1017    1.1212    0.2173 H   0  0  0  0  0  0  0  0  0  0  0  0
    3.9572   -0.2124   -1.5321 H   0  0  0  0  0  0  0  0  0  0  0  0
    4.0106   -1.6440   -0.4757 H   0  0  0  0  0  0  0  0  0  0  0  0
    2.6606   -0.4418    1.2216 H   0  0  0  0  0  0  0  0  0  0  0  0
    2.6072    0.9898    0.1652 H   0  0  0  0  0  0  0  0  0  0  0  0
    1.4627   -0.3438   -1.5841 H   0  0  0  0  0  0  0  0  0  0  0  0
    1.5161   -1.7754   -0.5277 H   0  0  0  0  0  0  0  0  0  0  0  0
    0.1662   -0.5732    1.1696 H   0  0  0  0  0  0  0  0  0  0  0  0
    0.1128    0.8584    0.1132 H   0  0  0  0  0  0  0  0  0  0  0  0
   -1.0317   -0.4752   -1.6361 H   0  0  0  0  0  0  0  0  0  0  0  0
   -0.9784   -1.9068   -0.5798 H   0  0  0  0  0  0  0  0  0  0  0  0
   -2.3283   -0.7046    1.1176 H   0  0  0  0  0  0  0  0  0  0  0  0
   -2.3817    0.7270    0.0612 H   0  0  0  0  0  0  0  0  0  0  0  0
   -3.5262   -0.6066   -1.6882 H   0  0  0  0  0  0  0  0  0  0  0  0
   -3.4728   -2.0382   -0.6318 H   0  0  0  0  0  0  0  0  0  0  0  0
   -4.8228   -0.8360    1.0656 H   0  0  0  0  0  0  0  0  0  0  0  0
   -4.8762    0.5956    0.0092 H   0  0  0  0  0  0  0  0  0  0  0  0
   -6.0207   -0.7380   -1.7402 H   0  0  0  0  0  0  0  0  0  0  0  0
   -5.9673   -2.1696   -0.6838 H   0  0  0  0  0  0  0  0  0  0  0  0
   -8.5320   -1.6056   -1.2895 H   0  0  0  0  0  0  0  0  0  0  0  0
   -9.7278   -0.9347    1.1797 H   0  0  0  0  0  0  0  0  0  0  0  0
   -9.7812    0.4968    0.1233 H   0  0  0  0  0  0  0  0  0  0  0  0
  -10.9257   -0.8367   -1.6261 H   0  0  0  0  0  0  0  0  0  0  0  0
  -10.8723   -2.2683   -0.5697 H   0  0  0  0  0  0  0  0  0  0  0  0
  -12.6196   -2.3727    1.4082 H   0  0  0  0  0  0  0  0  0  0  0  0
  -14.6401   -0.9639    2.0564 H   0  0  0  0  0  0  0  0  0  0  0  0
  -15.7761    1.5779    1.3443 H   0  0  0  0  0  0  0  0  0  0  0  0
  -15.3642    3.4895   -0.1389 H   0  0  0  0  0  0  0  0  0  0  0  0
  -13.4059    3.5192   -1.6244 H   0  0  0  0  0  0  0  0  0  0  0  0
  -11.8393    1.6432   -1.6471 H   0  0  0  0  0  0  0  0  0  0  0  0
  1  2  1  0  0  0  0
  2  3  1  0  0  0  0
  3  4  1  0  0  0  0
  4  5  1  0  0  0  0
  5  6  1  0  0  0  0
  6  7  1  0  0  0  0
  7  8  1  0  0  0  0
  8  9  1  0  0  0  0
  9 10  1  0  0  0  0
 10 11  1  0  0  0  0
 11 12  1  0  0  0  0
 12 13  1  0  0  0  0
 13 14  1  0  0  0  0
 14 15  1  0  0  0  0
 15 16  1  0  0  0  0
 16 17  1  0  0  0  0
 17 18  1  0  0  0  0
 18 19  1  0  0  0  0
 19 20  1  0  0  0  0
 20 21  1  0  0  0  0
 21 22  1  0  0  0  0
 22 23  1  0  0  0  0
 23 24  2  0  0  0  0
 23 25  1  0  0  0  0
 25 26  1  0  0  0  0
 26 27  1  0  0  0  0
 27 28  1  0  0  0  0
 28 29  2  0  0  0  0
 29 30  1  0  0  0  0
 30 31  1  0  0  0  0
 31 32  2  0  0  0  0
 32 33  1  0  0  0  0
 33 34  2  0  0  0  0
 34 35  1  0  0  0  0
 35 36  2  0  0  0  0
 31 36  1  0  0  0  0
 28 36  1  0  0  0  0
  1 37  1  0  0  0  0
  1 38  1  0  0  0  0
  1 39  1  0  0  0  0
  2 40  1  0  0  0  0
  2 41  1  0  0  0  0
  3 42  1  0  0  0  0
  3 43  1  0  0  0  0
  4 44  1  0  0  0  0
  4 45  1  0  0  0  0
  5 46  1  0  0  0  0
  5 47  1  0  0  0  0
  6 48  1  0  0  0  0
  6 49  1  0  0  0  0
  7 50  1  0  0  0  0
  7 51  1  0  0  0  0
  8 52  1  0  0  0  0
  8 53  1  0  0  0  0
  9 54  1  0  0  0  0
  9 55  1  0  0  0  0
 10 56  1  0  0  0  0
 10 57  1  0  0  0  0
 11 58  1  0  0  0  0
 11 59  1  0  0  0  0
 12 60  1  0  0  0  0
 12 61  1  0  0  0  0
 13 62  1  0  0  0  0
 13 63  1  0  0  0  0
 14 64  1  0  0  0  0
 14 65  1  0  0  0  0
 15 66  1  0  0  0  0
 15 67  1  0  0  0  0
 16 68  1  0  0  0  0
 16 69  1  0  0  0  0
 17 70  1  0  0  0  0
 17 71  1  0  0  0  0
 18 72  1  0  0  0  0
 18 73  1  0  0  0  0
 19 74  1  0  0  0  0
 19 75  1  0  0  0  0
 20 76  1  0  0  0  0
 20 77  1  0  0  0  0
 21 78  1  0  0  0  0
 21 79  1  0  0  0  0
 22 80  1  0  0  0  0
 22 81  1  0  0  0  0
 25 82  1  0  0  0  0
 26 83  1  0  0  0  0
 26 84  1  0  0  0  0
 27 85  1  0  0  0  0
 27 86  1  0  0  0  0
 29 87  1  0  0  0  0
 30 88  1  0  0  0  0
 32 89  1  0  0  0  0
 33 90  1  0  0  0  0
 34 91  1  0  0  0  0
 35 92  1  0  0  0  0
M  END
$$$$
