C16H12O5
APtclcactv06211804473D 0   0.00000     0.00000
 
 33 35  0  0  0  0  0  0  0  0999 V2000
    5.2252   -1.7579    0.3977 C   0  0  0  0  0  0  0  0  0  0  0  0
    3.9562   -0.9624    0.2307 C   0  0  0  0  0  0  0  0  0  0  0  0
    4.0046    0.4160    0.2578 C   0  0  0  0  0  0  0  0  0  0  0  0
    2.8406    1.1653    0.1045 C   0  0  0  0  0  0  0  0  0  0  0  0
    1.6190    0.5141   -0.0772 C   0  0  0  0  0  0  0  0  0  0  0  0
    1.5771   -0.8936   -0.1039 C   0  0  0  0  0  0  0  0  0  0  0  0
    2.7510   -1.6220    0.0453 C   0  0  0  0  0  0  0  0  0  0  0  0
    0.2825   -1.5827   -0.2950 C   0  0  0  0  0  0  0  0  0  0  0  0
    0.2495   -2.7664   -0.5678 O   0  0  0  0  0  0  0  0  0  0  0  0
   -0.9717   -0.8117   -0.1491 C   0  0  0  0  0  0  0  0  0  0  0  0
   -2.1913   -1.4637   -0.0371 C   0  0  0  0  0  0  0  0  0  0  0  0
   -3.3644   -0.7242    0.1007 C   0  0  0  0  0  0  0  0  0  0  0  0
   -3.3224    0.6602    0.1266 C   0  0  0  0  0  0  0  0  0  0  0  0
   -2.1088    1.3282    0.0151 C   0  0  0  0  0  0  0  0  0  0  0  0
   -0.9246    0.5971   -0.1228 C   0  0  0  0  0  0  0  0  0  0  0  0
    0.3721    1.2869   -0.2409 C   0  0  0  0  0  0  0  0  0  0  0  0
    0.4145    2.4807   -0.4699 O   0  0  0  0  0  0  0  0  0  0  0  0
   -2.0730    2.6835    0.0398 O   0  0  0  0  0  0  0  0  0  0  0  0
   -4.5561   -1.3645    0.2098 O   0  0  0  0  0  0  0  0  0  0  0  0
   -5.7208   -0.5484    0.3484 C   0  0  0  0  0  0  0  0  0  0  0  0
    2.8935    2.5200    0.1319 O   0  0  0  0  0  0  0  0  0  0  0  0
    5.3878   -1.9647    1.4555 H   0  0  0  0  0  0  0  0  0  0  0  0
    5.1391   -2.6979   -0.1473 H   0  0  0  0  0  0  0  0  0  0  0  0
    6.0665   -1.1864    0.0057 H   0  0  0  0  0  0  0  0  0  0  0  0
    4.9508    0.9171    0.3992 H   0  0  0  0  0  0  0  0  0  0  0  0
    2.7234   -2.7015    0.0250 H   0  0  0  0  0  0  0  0  0  0  0  0
   -2.2315   -2.5428   -0.0570 H   0  0  0  0  0  0  0  0  0  0  0  0
   -4.2376    1.2234    0.2338 H   0  0  0  0  0  0  0  0  0  0  0  0
   -1.9718    3.0582    0.9255 H   0  0  0  0  0  0  0  0  0  0  0  0
   -5.6325    0.0611    1.2478 H   0  0  0  0  0  0  0  0  0  0  0  0
   -5.8156    0.1004   -0.5223 H   0  0  0  0  0  0  0  0  0  0  0  0
   -6.6029   -1.1841    0.4256 H   0  0  0  0  0  0  0  0  0  0  0  0
    3.0323    2.9258   -0.7348 H   0  0  0  0  0  0  0  0  0  0  0  0
  1  2  1  0  0  0  0
  2  3  2  0  0  0  0
  3  4  1  0  0  0  0
  4  5  2  0  0  0  0
  5  6  1  0  0  0  0
  6  7  2  0  0  0  0
  2  7  1  0  0  0  0
  6  8  1  0  0  0  0
  8  9  2  0  0  0  0
  8 10  1  0  0  0  0
 10 11  2  0  0  0  0
 11 12  1  0  0  0  0
 12 13  2  0  0  0  0
 13 14  1  0  0  0  0
 14 15  2  0  0  0  0
 10 15  1  0  0  0  0
 15 16  1  0  0  0  0
  5 16  1  0  0  0  0
 16 17  2  0  0  0  0
 14 18  1  0  0  0  0
 12 19  1  0  0  0  0
 19 20  1  0  0  0  0
  4 21  1  0  0  0  0
  1 22  1  0  0  0  0
  1 23  1  0  0  0  0
  1 24  1  0  0  0  0
  3 25  1  0  0  0  0
  7 26  1  0  0  0  0
 11 27  1  0  0  0  0
 13 28  1  0  0  0  0
 18 29  1  0  0  0  0
 20 30  1  0  0  0  0
 20 31  1  0  0  0  0
 20 32  1  0  0  0  0
 21 33  1  0  0  0  0
M  END
$$$$
