C8H12N2O
APtclcactv06211806353D 0   0.00000     0.00000
 
 23 23  0  0  0  0  0  0  0  0999 V2000
    2.5133   -1.2202   -1.1725 C   0  0  0  0  0  0  0  0  0  0  0  0
    1.9877   -0.8568    0.2177 C   0  0  0  0  0  0  0  0  0  0  0  0
    3.0665   -0.0916    0.9868 C   0  0  0  0  0  0  0  0  0  0  0  0
    0.7604    0.0069    0.0807 C   0  0  0  0  0  0  0  0  0  0  0  0
    0.8924    1.3728   -0.0815 C   0  0  0  0  0  0  0  0  0  0  0  0
   -0.1821    2.1342   -0.2021 N   0  0  0  0  0  0  0  0  0  0  0  0
   -1.3844    1.5912   -0.1682 C   0  0  0  0  0  0  0  0  0  0  0  0
   -1.5204    0.2163   -0.0054 C   0  0  0  0  0  0  0  0  0  0  0  0
   -0.4414   -0.5441    0.1105 N   0  0  0  0  0  0  0  0  0  0  0  0
   -2.7549   -0.3453    0.0300 O   0  0  0  0  0  0  0  0  0  0  0  0
   -2.8182   -1.7628    0.1998 C   0  0  0  0  0  0  0  0  0  0  0  0
    3.4011   -1.8448   -1.0735 H   0  0  0  0  0  0  0  0  0  0  0  0
    1.7448   -1.7653   -1.7205 H   0  0  0  0  0  0  0  0  0  0  0  0
    2.7686   -0.3093   -1.7140 H   0  0  0  0  0  0  0  0  0  0  0  0
    1.7324   -1.7677    0.7591 H   0  0  0  0  0  0  0  0  0  0  0  0
    3.3218    0.8193    0.4454 H   0  0  0  0  0  0  0  0  0  0  0  0
    2.6921    0.1673    1.9772 H   0  0  0  0  0  0  0  0  0  0  0  0
    3.9543   -0.7163    1.0859 H   0  0  0  0  0  0  0  0  0  0  0  0
    1.8752    1.8196   -0.1096 H   0  0  0  0  0  0  0  0  0  0  0  0
   -2.2617    2.2134   -0.2663 H   0  0  0  0  0  0  0  0  0  0  0  0
   -2.2978   -2.2510   -0.6241 H   0  0  0  0  0  0  0  0  0  0  0  0
   -2.3445   -2.0373    1.1423 H   0  0  0  0  0  0  0  0  0  0  0  0
   -3.8606   -2.0812    0.2108 H   0  0  0  0  0  0  0  0  0  0  0  0
  1  2  1  0  0  0  0
  2  3  1  0  0  0  0
  2  4  1  0  0  0  0
  4  5  2  0  0  0  0
  5  6  1  0  0  0  0
  6  7  2  0  0  0  0
  7  8  1  0  0  0  0
  8  9  2  0  0  0  0
  4  9  1  0  0  0  0
  8 10  1  0  0  0  0
 10 11  1  0  0  0  0
  1 12  1  0  0  0  0
  1 13  1  0  0  0  0
  1 14  1  0  0  0  0
  2 15  1  0  0  0  0
  3 16  1  0  0  0  0
  3 17  1  0  0  0  0
  3 18  1  0  0  0  0
  5 19  1  0  0  0  0
  7 20  1  0  0  0  0
 11 21  1  0  0  0  0
 11 22  1  0  0  0  0
 11 23  1  0  0  0  0
M  END
$$$$
