C30H26O7
APtclcactv06281817293D 0   0.00000     0.00000
 
 63 68  0  0  0  0  0  0  0  0999 V2000
   -1.2801    4.4754    2.0440 C   0  0  0  0  0  0  0  0  0  0  0  0
   -1.3999    3.0472    1.5780 C   0  0  0  0  0  0  0  0  0  0  0  0
   -1.0971    2.0655    2.3908 C   0  0  0  0  0  0  0  0  0  0  0  0
   -1.8680    2.7484    0.1771 C   0  0  0  0  0  0  0  0  0  0  0  0
   -0.7368    3.0376   -0.8067 C   0  0  0  0  0  0  0  0  0  0  0  0
    0.3594    2.0171   -0.6553 C   0  0  0  0  0  0  0  0  0  0  0  0
    0.0585    0.7198   -0.3658 C   0  0  0  0  0  0  0  0  0  0  0  0
   -1.3518    0.3434   -0.1542 C   0  0  0  0  0  0  0  0  0  0  0  0
   -2.2799    1.3019    0.0863 C   0  0  0  0  0  0  0  0  0  0  0  0
   -3.6960    0.9324    0.2656 C   0  0  0  0  0  0  0  0  0  0  0  0
   -4.5289    1.7964    0.4604 O   0  0  0  0  0  0  0  0  0  0  0  0
   -4.1028   -0.4820    0.2085 C   0  0  0  0  0  0  0  0  0  0  0  0
   -3.1673   -1.4529   -0.0173 C   0  0  0  0  0  0  0  0  0  0  0  0
   -1.7509   -1.0863   -0.2069 C   0  0  0  0  0  0  0  0  0  0  0  0
   -0.9177   -1.9468   -0.4053 O   0  0  0  0  0  0  0  0  0  0  0  0
   -3.5994   -2.8597   -0.0677 C   0  0  0  0  0  0  0  0  0  0  0  0
   -4.9030   -3.1131   -0.2298 C   0  0  0  0  0  0  0  0  0  0  0  0
   -5.8695   -1.9640   -0.3633 C   0  0  0  0  0  0  0  0  0  0  0  0
   -5.3983   -0.8377    0.3783 O   0  0  0  0  0  0  0  0  0  0  0  0
   -6.0015   -1.5808   -1.8386 C   0  0  0  0  0  0  0  0  0  0  0  0
   -7.2386   -2.3876    0.1726 C   0  0  0  0  0  0  0  0  0  0  0  0
    1.0128   -0.2247   -0.2695 O   0  0  0  0  0  0  0  0  0  0  0  0
    2.3255    0.0520   -0.3916 C   0  0  0  0  0  0  0  0  0  0  0  0
    3.2886   -0.9474   -0.2531 C   0  0  0  0  0  0  0  0  0  0  0  0
    2.9086   -2.3468    0.0319 C   0  0  0  0  0  0  0  0  0  0  0  0
    3.8524   -3.1741    0.4786 C   0  0  0  0  0  0  0  0  0  0  0  0
    5.2553   -2.6693    0.6909 C   0  0  0  0  0  0  0  0  0  0  0  0
    5.5618   -1.6336   -0.2431 O   0  0  0  0  0  0  0  0  0  0  0  0
    4.6507   -0.6376   -0.3840 C   0  0  0  0  0  0  0  0  0  0  0  0
    5.0504    0.6620   -0.6528 C   0  0  0  0  0  0  0  0  0  0  0  0
    4.1062    1.6647   -0.7947 C   0  0  0  0  0  0  0  0  0  0  0  0
    2.7424    1.3664   -0.6648 C   0  0  0  0  0  0  0  0  0  0  0  0
    1.7138    2.4085   -0.8125 C   0  0  0  0  0  0  0  0  0  0  0  0
    2.0142    3.5641   -1.0621 O   0  0  0  0  0  0  0  0  0  0  0  0
    4.5006    2.9358   -1.0574 O   0  0  0  0  0  0  0  0  0  0  0  0
    5.3844   -2.1206    2.1133 C   0  0  0  0  0  0  0  0  0  0  0  0
    6.2410   -3.8245    0.5050 C   0  0  0  0  0  0  0  0  0  0  0  0
   -0.2341    4.7047    2.2473 H   0  0  0  0  0  0  0  0  0  0  0  0
   -1.6544    5.1433    1.2682 H   0  0  0  0  0  0  0  0  0  0  0  0
   -1.8653    4.6111    2.9536 H   0  0  0  0  0  0  0  0  0  0  0  0
   -0.7617    2.2796    3.3948 H   0  0  0  0  0  0  0  0  0  0  0  0
   -1.1830    1.0420    2.0569 H   0  0  0  0  0  0  0  0  0  0  0  0
   -2.7235    3.3808   -0.0603 H   0  0  0  0  0  0  0  0  0  0  0  0
   -1.1255    3.0016   -1.8244 H   0  0  0  0  0  0  0  0  0  0  0  0
   -0.3341    4.0316   -0.6116 H   0  0  0  0  0  0  0  0  0  0  0  0
   -2.8843   -3.6639    0.0233 H   0  0  0  0  0  0  0  0  0  0  0  0
   -5.2597   -4.1319   -0.2651 H   0  0  0  0  0  0  0  0  0  0  0  0
   -6.3717   -2.4358   -2.4044 H   0  0  0  0  0  0  0  0  0  0  0  0
   -6.7000   -0.7499   -1.9371 H   0  0  0  0  0  0  0  0  0  0  0  0
   -5.0267   -1.2838   -2.2255 H   0  0  0  0  0  0  0  0  0  0  0  0
   -7.1474   -2.6668    1.2223 H   0  0  0  0  0  0  0  0  0  0  0  0
   -7.9388   -1.5578    0.0768 H   0  0  0  0  0  0  0  0  0  0  0  0
   -7.6048   -3.2399   -0.3996 H   0  0  0  0  0  0  0  0  0  0  0  0
    1.8951   -2.6888   -0.1172 H   0  0  0  0  0  0  0  0  0  0  0  0
    3.6116   -4.2058    0.6885 H   0  0  0  0  0  0  0  0  0  0  0  0
    6.1008    0.8932   -0.7514 H   0  0  0  0  0  0  0  0  0  0  0  0
    4.5700    3.1392   -2.0002 H   0  0  0  0  0  0  0  0  0  0  0  0
    5.1693   -2.9136    2.8295 H   0  0  0  0  0  0  0  0  0  0  0  0
    6.3988   -1.7541    2.2707 H   0  0  0  0  0  0  0  0  0  0  0  0
    4.6770   -1.3031    2.2530 H   0  0  0  0  0  0  0  0  0  0  0  0
    6.1457   -4.2246   -0.5044 H   0  0  0  0  0  0  0  0  0  0  0  0
    7.2578   -3.4628    0.6580 H   0  0  0  0  0  0  0  0  0  0  0  0
    6.0218   -4.6093    1.2291 H   0  0  0  0  0  0  0  0  0  0  0  0
  1  2  1  0  0  0  0
  2  3  2  0  0  0  0
  2  4  1  0  0  0  0
  4  5  1  0  0  0  0
  5  6  1  0  0  0  0
  6  7  2  0  0  0  0
  7  8  1  0  0  0  0
  8  9  2  0  0  0  0
  4  9  1  0  0  0  0
  9 10  1  0  0  0  0
 10 11  2  0  0  0  0
 10 12  1  0  0  0  0
 12 13  2  0  0  0  0
 13 14  1  0  0  0  0
  8 14  1  0  0  0  0
 14 15  2  0  0  0  0
 13 16  1  0  0  0  0
 16 17  2  0  0  0  0
 17 18  1  0  0  0  0
 18 19  1  0  0  0  0
 12 19  1  0  0  0  0
 18 20  1  0  0  0  0
 18 21  1  0  0  0  0
  7 22  1  0  0  0  0
 22 23  1  0  0  0  0
 23 24  2  0  0  0  0
 24 25  1  0  0  0  0
 25 26  2  0  0  0  0
 26 27  1  0  0  0  0
 27 28  1  0  0  0  0
 28 29  1  0  0  0  0
 24 29  1  0  0  0  0
 29 30  2  0  0  0  0
 30 31  1  0  0  0  0
 31 32  2  0  0  0  0
 23 32  1  0  0  0  0
 32 33  1  0  0  0  0
  6 33  1  0  0  0  0
 33 34  2  0  0  0  0
 31 35  1  0  0  0  0
 27 36  1  0  0  0  0
 27 37  1  0  0  0  0
  1 38  1  0  0  0  0
  1 39  1  0  0  0  0
  1 40  1  0  0  0  0
  3 41  1  0  0  0  0
  3 42  1  0  0  0  0
  4 43  1  0  0  0  0
  5 44  1  0  0  0  0
  5 45  1  0  0  0  0
 16 46  1  0  0  0  0
 17 47  1  0  0  0  0
 20 48  1  0  0  0  0
 20 49  1  0  0  0  0
 20 50  1  0  0  0  0
 21 51  1  0  0  0  0
 21 52  1  0  0  0  0
 21 53  1  0  0  0  0
 25 54  1  0  0  0  0
 26 55  1  0  0  0  0
 30 56  1  0  0  0  0
 35 57  1  0  0  0  0
 36 58  1  0  0  0  0
 36 59  1  0  0  0  0
 36 60  1  0  0  0  0
 37 61  1  0  0  0  0
 37 62  1  0  0  0  0
 37 63  1  0  0  0  0
M  END
$$$$
