C15H10O2
APtclcactv06211804473D 0   0.00000     0.00000
 
 27 29  0  0  0  0  0  0  0  0999 V2000
   -4.7928   -0.4038    0.0346 C   0  0  0  0  0  0  0  0  0  0  0  0
   -3.9833   -1.3120   -0.6247 C   0  0  0  0  0  0  0  0  0  0  0  0
   -2.6160   -1.1321   -0.6478 C   0  0  0  0  0  0  0  0  0  0  0  0
   -2.0489   -0.0301   -0.0037 C   0  0  0  0  0  0  0  0  0  0  0  0
   -2.8720    0.8825    0.6597 C   0  0  0  0  0  0  0  0  0  0  0  0
   -4.2378    0.6902    0.6748 C   0  0  0  0  0  0  0  0  0  0  0  0
   -0.5859    0.1688   -0.0238 C   0  0  0  0  0  0  0  0  0  0  0  0
   -0.0997    1.4299   -0.1772 C   0  0  0  0  0  0  0  0  0  0  0  0
    1.2991    1.6399   -0.1983 C   0  0  0  0  0  0  0  0  0  0  0  0
    1.7708    2.7566   -0.3337 O   0  0  0  0  0  0  0  0  0  0  0  0
    2.1653    0.4534   -0.0494 C   0  0  0  0  0  0  0  0  0  0  0  0
    3.5543    0.5642   -0.0578 C   0  0  0  0  0  0  0  0  0  0  0  0
    4.3277   -0.5677    0.0845 C   0  0  0  0  0  0  0  0  0  0  0  0
    3.7289   -1.8095    0.2352 C   0  0  0  0  0  0  0  0  0  0  0  0
    2.3554   -1.9320    0.2446 C   0  0  0  0  0  0  0  0  0  0  0  0
    1.5579   -0.8033    0.1031 C   0  0  0  0  0  0  0  0  0  0  0  0
    0.2122   -0.9007    0.1156 O   0  0  0  0  0  0  0  0  0  0  0  0
   -5.8632   -0.5470    0.0457 H   0  0  0  0  0  0  0  0  0  0  0  0
   -4.4231   -2.1638   -1.1220 H   0  0  0  0  0  0  0  0  0  0  0  0
   -1.9853   -1.8419   -1.1624 H   0  0  0  0  0  0  0  0  0  0  0  0
   -2.4401    1.7366    1.1601 H   0  0  0  0  0  0  0  0  0  0  0  0
   -4.8755    1.3952    1.1874 H   0  0  0  0  0  0  0  0  0  0  0  0
   -0.7767    2.2648   -0.2826 H   0  0  0  0  0  0  0  0  0  0  0  0
    4.0218    1.5307   -0.1754 H   0  0  0  0  0  0  0  0  0  0  0  0
    5.4046   -0.4872    0.0783 H   0  0  0  0  0  0  0  0  0  0  0  0
    4.3447   -2.6898    0.3459 H   0  0  0  0  0  0  0  0  0  0  0  0
    1.9001   -2.9043    0.3620 H   0  0  0  0  0  0  0  0  0  0  0  0
  1  2  2  0  0  0  0
  2  3  1  0  0  0  0
  3  4  2  0  0  0  0
  4  5  1  0  0  0  0
  5  6  2  0  0  0  0
  1  6  1  0  0  0  0
  4  7  1  0  0  0  0
  7  8  2  0  0  0  0
  8  9  1  0  0  0  0
  9 10  2  0  0  0  0
  9 11  1  0  0  0  0
 11 12  2  0  0  0  0
 12 13  1  0  0  0  0
 13 14  2  0  0  0  0
 14 15  1  0  0  0  0
 15 16  2  0  0  0  0
 11 16  1  0  0  0  0
 16 17  1  0  0  0  0
  7 17  1  0  0  0  0
  1 18  1  0  0  0  0
  2 19  1  0  0  0  0
  3 20  1  0  0  0  0
  5 21  1  0  0  0  0
  6 22  1  0  0  0  0
  8 23  1  0  0  0  0
 12 24  1  0  0  0  0
 13 25  1  0  0  0  0
 14 26  1  0  0  0  0
 15 27  1  0  0  0  0
M  END
$$$$
