C8H10O
APtclcactv06211804473D 0   0.00000     0.00000
 
 19 19  0  0  0  0  0  0  0  0999 V2000
    2.5437    0.6630   -0.0114 C   0  0  0  0  0  0  0  0  0  0  0  0
    1.2140   -0.0461   -0.0024 C   0  0  0  0  0  0  0  0  0  0  0  0
    0.0422    0.6849    0.0098 C   0  0  0  0  0  0  0  0  0  0  0  0
   -1.1818    0.0313    0.0176 C   0  0  0  0  0  0  0  0  0  0  0  0
   -1.2251   -1.3551    0.0133 C   0  0  0  0  0  0  0  0  0  0  0  0
   -0.0500   -2.0818    0.0011 C   0  0  0  0  0  0  0  0  0  0  0  0
    1.1681   -1.4282   -0.0121 C   0  0  0  0  0  0  0  0  0  0  0  0
   -2.3362    0.7483    0.0301 O   0  0  0  0  0  0  0  0  0  0  0  0
    0.0929    2.1910    0.0150 C   0  0  0  0  0  0  0  0  0  0  0  0
    2.8730    0.8308    1.0140 H   0  0  0  0  0  0  0  0  0  0  0  0
    3.2787    0.0503   -0.5334 H   0  0  0  0  0  0  0  0  0  0  0  0
    2.4412    1.6209   -0.5214 H   0  0  0  0  0  0  0  0  0  0  0  0
   -2.1765   -1.8661    0.0197 H   0  0  0  0  0  0  0  0  0  0  0  0
   -0.0832   -3.1613   -0.0024 H   0  0  0  0  0  0  0  0  0  0  0  0
    2.0855   -1.9980   -0.0215 H   0  0  0  0  0  0  0  0  0  0  0  0
   -2.6777    0.9592   -0.8497 H   0  0  0  0  0  0  0  0  0  0  0  0
    0.0969    2.5580   -1.0113 H   0  0  0  0  0  0  0  0  0  0  0  0
   -0.7802    2.5822    0.5374 H   0  0  0  0  0  0  0  0  0  0  0  0
    0.9987    2.5223    0.5228 H   0  0  0  0  0  0  0  0  0  0  0  0
  1  2  1  0  0  0  0
  2  3  2  0  0  0  0
  3  4  1  0  0  0  0
  4  5  2  0  0  0  0
  5  6  1  0  0  0  0
  6  7  2  0  0  0  0
  2  7  1  0  0  0  0
  4  8  1  0  0  0  0
  3  9  1  0  0  0  0
  1 10  1  0  0  0  0
  1 11  1  0  0  0  0
  1 12  1  0  0  0  0
  5 13  1  0  0  0  0
  6 14  1  0  0  0  0
  7 15  1  0  0  0  0
  8 16  1  0  0  0  0
  9 17  1  0  0  0  0
  9 18  1  0  0  0  0
  9 19  1  0  0  0  0
M  END
$$$$
