C9H12
APtclcactv06211804473D 0   0.00000     0.00000
 
 21 21  0  0  0  0  0  0  0  0999 V2000
    2.5022    0.7448    0.0012 C   0  0  0  0  0  0  0  0  0  0  0  0
    1.1971   -0.0087    0.0012 C   0  0  0  0  0  0  0  0  0  0  0  0
    0.0000    0.6825    0.0000 C   0  0  0  0  0  0  0  0  0  0  0  0
   -1.1971   -0.0087    0.0001 C   0  0  0  0  0  0  0  0  0  0  0  0
   -1.1971   -1.3910    0.0008 C   0  0  0  0  0  0  0  0  0  0  0  0
   -0.0000   -2.0822    0.0010 C   0  0  0  0  0  0  0  0  0  0  0  0
    1.1971   -1.3910   -0.0034 C   0  0  0  0  0  0  0  0  0  0  0  0
   -2.5022    0.7449   -0.0002 C   0  0  0  0  0  0  0  0  0  0  0  0
    0.0000    2.1895   -0.0008 C   0  0  0  0  0  0  0  0  0  0  0  0
    2.8164    0.9274    1.0289 H   0  0  0  0  0  0  0  0  0  0  0  0
    3.2621    0.1553   -0.5118 H   0  0  0  0  0  0  0  0  0  0  0  0
    2.3722    1.6968   -0.5135 H   0  0  0  0  0  0  0  0  0  0  0  0
   -2.1325   -1.9310    0.0015 H   0  0  0  0  0  0  0  0  0  0  0  0
   -0.0000   -3.1622    0.0019 H   0  0  0  0  0  0  0  0  0  0  0  0
    2.1325   -1.9310   -0.0032 H   0  0  0  0  0  0  0  0  0  0  0  0
   -2.8168    0.9263   -1.0279 H   0  0  0  0  0  0  0  0  0  0  0  0
   -3.2619    0.1559    0.5137 H   0  0  0  0  0  0  0  0  0  0  0  0
   -2.3719    1.6974    0.5135 H   0  0  0  0  0  0  0  0  0  0  0  0
    0.0007    2.5523   -1.0286 H   0  0  0  0  0  0  0  0  0  0  0  0
   -0.8903    2.5531    0.5123 H   0  0  0  0  0  0  0  0  0  0  0  0
    0.8896    2.5531    0.5135 H   0  0  0  0  0  0  0  0  0  0  0  0
  1  2  1  0  0  0  0
  2  3  2  0  0  0  0
  3  4  1  0  0  0  0
  4  5  2  0  0  0  0
  5  6  1  0  0  0  0
  6  7  2  0  0  0  0
  2  7  1  0  0  0  0
  4  8  1  0  0  0  0
  3  9  1  0  0  0  0
  1 10  1  0  0  0  0
  1 11  1  0  0  0  0
  1 12  1  0  0  0  0
  5 13  1  0  0  0  0
  6 14  1  0  0  0  0
  7 15  1  0  0  0  0
  8 16  1  0  0  0  0
  8 17  1  0  0  0  0
  8 18  1  0  0  0  0
  9 19  1  0  0  0  0
  9 20  1  0  0  0  0
  9 21  1  0  0  0  0
M  END
$$$$
