C14H16
APtclcactv06211804473D 0   0.00000     0.00000
 
 30 31  0  0  0  0  0  0  0  0999 V2000
   -3.8588    0.7233   -0.9010 C   0  0  0  0  0  0  0  0  0  0  0  0
   -3.1920    0.6045    0.4710 C   0  0  0  0  0  0  0  0  0  0  0  0
   -1.8048    0.0387    0.3080 C   0  0  0  0  0  0  0  0  0  0  0  0
   -0.7868    0.9748    0.2297 C   0  0  0  0  0  0  0  0  0  0  0  0
    0.5818    0.7336    0.0786 C   0  0  0  0  0  0  0  0  0  0  0  0
    1.5736    1.7109    0.0040 C   0  0  0  0  0  0  0  0  0  0  0  0
    2.7973    1.0819   -0.1436 C   0  0  0  0  0  0  0  0  0  0  0  0
    2.6316   -0.2911   -0.1677 C   0  0  0  0  0  0  0  0  0  0  0  0
    1.2722   -0.5735   -0.0334 C   0  0  0  0  0  0  0  0  0  0  0  0
    0.7064   -1.8510   -0.0122 C   0  0  0  0  0  0  0  0  0  0  0  0
   -0.6336   -2.1786    0.1183 C   0  0  0  0  0  0  0  0  0  0  0  0
   -1.7284   -1.3435    0.2631 C   0  0  0  0  0  0  0  0  0  0  0  0
    1.6646   -3.0063   -0.1473 C   0  0  0  0  0  0  0  0  0  0  0  0
    1.3506    3.1997    0.0724 C   0  0  0  0  0  0  0  0  0  0  0  0
   -3.2689    1.3846   -1.5356 H   0  0  0  0  0  0  0  0  0  0  0  0
   -3.9204   -0.2627   -1.3616 H   0  0  0  0  0  0  0  0  0  0  0  0
   -4.8622    1.1325   -0.7831 H   0  0  0  0  0  0  0  0  0  0  0  0
   -3.1305    1.5905    0.9316 H   0  0  0  0  0  0  0  0  0  0  0  0
   -3.7819   -0.0568    1.1056 H   0  0  0  0  0  0  0  0  0  0  0  0
   -1.0850    2.0109    0.2924 H   0  0  0  0  0  0  0  0  0  0  0  0
    3.7463    1.5905   -0.2283 H   0  0  0  0  0  0  0  0  0  0  0  0
    3.4209   -1.0208   -0.2724 H   0  0  0  0  0  0  0  0  0  0  0  0
   -0.8551   -3.2356    0.1097 H   0  0  0  0  0  0  0  0  0  0  0  0
   -2.6775   -1.8520    0.3464 H   0  0  0  0  0  0  0  0  0  0  0  0
    2.0029   -3.3153    0.8417 H   0  0  0  0  0  0  0  0  0  0  0  0
    1.1614   -3.8404   -0.6363 H   0  0  0  0  0  0  0  0  0  0  0  0
    2.5226   -2.6987   -0.7451 H   0  0  0  0  0  0  0  0  0  0  0  0
    1.4042    3.5278    1.1105 H   0  0  0  0  0  0  0  0  0  0  0  0
    2.1184    3.7093   -0.5097 H   0  0  0  0  0  0  0  0  0  0  0  0
    0.3679    3.4390   -0.3340 H   0  0  0  0  0  0  0  0  0  0  0  0
  1  2  1  0  0  0  0
  2  3  1  0  0  0  0
  3  4  2  0  0  0  0
  4  5  1  0  0  0  0
  5  6  2  0  0  0  0
  6  7  1  0  0  0  0
  7  8  2  0  0  0  0
  8  9  1  0  0  0  0
  5  9  1  0  0  0  0
  9 10  2  0  0  0  0
 10 11  1  0  0  0  0
 11 12  2  0  0  0  0
  3 12  1  0  0  0  0
 10 13  1  0  0  0  0
  6 14  1  0  0  0  0
  1 15  1  0  0  0  0
  1 16  1  0  0  0  0
  1 17  1  0  0  0  0
  2 18  1  0  0  0  0
  2 19  1  0  0  0  0
  4 20  1  0  0  0  0
  7 21  1  0  0  0  0
  8 22  1  0  0  0  0
 11 23  1  0  0  0  0
 12 24  1  0  0  0  0
 13 25  1  0  0  0  0
 13 26  1  0  0  0  0
 13 27  1  0  0  0  0
 14 28  1  0  0  0  0
 14 29  1  0  0  0  0
 14 30  1  0  0  0  0
M  END
$$$$
