C15H24
APtclcactv06211806353D 0   0.00000     0.00000
 
 39 40  0  0  0  0  0  0  0  0999 V2000
    2.1362    2.8131    0.3554 C   0  0  0  0  0  0  0  0  0  0  0  0
    0.9852    1.8101    0.4551 C   0  0  0  0  0  0  0  0  0  0  0  0
   -0.1333    2.2026   -0.5168 C   0  0  0  0  0  0  0  0  0  0  0  0
   -1.4447    1.5626   -0.1255 C   0  0  0  0  0  0  0  0  0  0  0  0
   -1.5458    0.0725   -0.3536 C   0  0  0  0  0  0  0  0  0  0  0  0
   -0.6793   -0.7001    0.6474 C   0  0  0  0  0  0  0  0  0  0  0  0
    0.7557   -0.6566    0.1385 C   0  0  0  0  0  0  0  0  0  0  0  0
    1.4715    0.4230    0.0558 C   0  0  0  0  0  0  0  0  0  0  0  0
    2.8504    0.1256   -0.4887 C   0  0  0  0  0  0  0  0  0  0  0  0
    3.0071   -1.4058   -0.3397 C   0  0  0  0  0  0  0  0  0  0  0  0
    1.5304   -1.8652   -0.3361 C   0  0  0  0  0  0  0  0  0  0  0  0
    1.3381   -3.0354    0.6306 C   0  0  0  0  0  0  0  0  0  0  0  0
   -2.9823   -0.3551   -0.1970 C   0  0  0  0  0  0  0  0  0  0  0  0
   -3.6103   -0.9204   -1.1981 C   0  0  0  0  0  0  0  0  0  0  0  0
   -3.6964   -0.1324    1.1112 C   0  0  0  0  0  0  0  0  0  0  0  0
    1.7730    3.8092    0.6082 H   0  0  0  0  0  0  0  0  0  0  0  0
    2.9276    2.5282    1.0487 H   0  0  0  0  0  0  0  0  0  0  0  0
    2.5281    2.8166   -0.6617 H   0  0  0  0  0  0  0  0  0  0  0  0
    0.5996    1.7892    1.4745 H   0  0  0  0  0  0  0  0  0  0  0  0
   -0.2485    3.2865   -0.5102 H   0  0  0  0  0  0  0  0  0  0  0  0
    0.1366    1.8788   -1.5220 H   0  0  0  0  0  0  0  0  0  0  0  0
   -1.6159    1.7572    0.9332 H   0  0  0  0  0  0  0  0  0  0  0  0
   -2.2417    2.0479   -0.6887 H   0  0  0  0  0  0  0  0  0  0  0  0
   -1.2137   -0.1575   -1.3660 H   0  0  0  0  0  0  0  0  0  0  0  0
   -0.7385   -0.2296    1.6288 H   0  0  0  0  0  0  0  0  0  0  0  0
   -1.0187   -1.7340    0.7103 H   0  0  0  0  0  0  0  0  0  0  0  0
    2.9150    0.4139   -1.5379 H   0  0  0  0  0  0  0  0  0  0  0  0
    3.6100    0.6441    0.0962 H   0  0  0  0  0  0  0  0  0  0  0  0
    3.5463   -1.8283   -1.1876 H   0  0  0  0  0  0  0  0  0  0  0  0
    3.4981   -1.6593    0.5998 H   0  0  0  0  0  0  0  0  0  0  0  0
    1.2174   -2.1464   -1.3416 H   0  0  0  0  0  0  0  0  0  0  0  0
    1.6398   -2.7319    1.6331 H   0  0  0  0  0  0  0  0  0  0  0  0
    0.2887   -3.3299    0.6406 H   0  0  0  0  0  0  0  0  0  0  0  0
    1.9489   -3.8782    0.3069 H   0  0  0  0  0  0  0  0  0  0  0  0
   -4.6398   -1.2268   -1.0859 H   0  0  0  0  0  0  0  0  0  0  0  0
   -3.0985   -1.0799   -2.1357 H   0  0  0  0  0  0  0  0  0  0  0  0
   -4.1791    0.8448    1.1000 H   0  0  0  0  0  0  0  0  0  0  0  0
   -4.4495   -0.9081    1.2507 H   0  0  0  0  0  0  0  0  0  0  0  0
   -2.9772   -0.1730    1.9293 H   0  0  0  0  0  0  0  0  0  0  0  0
  1  2  1  0  0  0  0
  2  3  1  0  0  0  0
  3  4  1  0  0  0  0
  4  5  1  0  0  0  0
  5  6  1  0  0  0  0
  6  7  1  0  0  0  0
  7  8  2  0  0  0  0
  2  8  1  0  0  0  0
  8  9  1  0  0  0  0
  9 10  1  0  0  0  0
 10 11  1  0  0  0  0
  7 11  1  0  0  0  0
 11 12  1  0  0  0  0
  5 13  1  0  0  0  0
 13 14  2  0  0  0  0
 13 15  1  0  0  0  0
  1 16  1  0  0  0  0
  1 17  1  0  0  0  0
  1 18  1  0  0  0  0
  2 19  1  0  0  0  0
  3 20  1  0  0  0  0
  3 21  1  0  0  0  0
  4 22  1  0  0  0  0
  4 23  1  0  0  0  0
  5 24  1  0  0  0  0
  6 25  1  0  0  0  0
  6 26  1  0  0  0  0
  9 27  1  0  0  0  0
  9 28  1  0  0  0  0
 10 29  1  0  0  0  0
 10 30  1  0  0  0  0
 11 31  1  0  0  0  0
 12 32  1  0  0  0  0
 12 33  1  0  0  0  0
 12 34  1  0  0  0  0
 14 35  1  0  0  0  0
 14 36  1  0  0  0  0
 15 37  1  0  0  0  0
 15 38  1  0  0  0  0
 15 39  1  0  0  0  0
M  END
$$$$
