C8H8O
APtclcactv06211804473D 0   0.00000     0.00000
 
 17 17  0  0  0  0  0  0  0  0999 V2000
   -0.0908    2.3967   -0.0017 C   0  0  0  0  0  0  0  0  0  0  0  0
    0.4185    0.9784   -0.0011 C   0  0  0  0  0  0  0  0  0  0  0  0
    1.7748    0.7310   -0.0001 C   0  0  0  0  0  0  0  0  0  0  0  0
    2.2445   -0.5711    0.0005 C   0  0  0  0  0  0  0  0  0  0  0  0
    1.3584   -1.6340   -0.0004 C   0  0  0  0  0  0  0  0  0  0  0  0
   -0.0012   -1.4030   -0.0014 C   0  0  0  0  0  0  0  0  0  0  0  0
   -0.4836   -0.0905    0.0043 C   0  0  0  0  0  0  0  0  0  0  0  0
   -1.9329    0.1648    0.0033 C   0  0  0  0  0  0  0  0  0  0  0  0
   -2.7122   -0.7642   -0.0026 O   0  0  0  0  0  0  0  0  0  0  0  0
   -0.2129    2.7385   -1.0295 H   0  0  0  0  0  0  0  0  0  0  0  0
   -1.0516    2.4380    0.5114 H   0  0  0  0  0  0  0  0  0  0  0  0
    0.6237    3.0396    0.5125 H   0  0  0  0  0  0  0  0  0  0  0  0
    2.4726    1.5553   -0.0001 H   0  0  0  0  0  0  0  0  0  0  0  0
    3.3081   -0.7584    0.0013 H   0  0  0  0  0  0  0  0  0  0  0  0
    1.7326   -2.6471   -0.0007 H   0  0  0  0  0  0  0  0  0  0  0  0
   -0.6915   -2.2336   -0.0025 H   0  0  0  0  0  0  0  0  0  0  0  0
   -2.3025    1.1795    0.0077 H   0  0  0  0  0  0  0  0  0  0  0  0
  1  2  1  0  0  0  0
  2  3  2  0  0  0  0
  3  4  1  0  0  0  0
  4  5  2  0  0  0  0
  5  6  1  0  0  0  0
  6  7  2  0  0  0  0
  2  7  1  0  0  0  0
  7  8  1  0  0  0  0
  8  9  2  0  0  0  0
  1 10  1  0  0  0  0
  1 11  1  0  0  0  0
  1 12  1  0  0  0  0
  3 13  1  0  0  0  0
  4 14  1  0  0  0  0
  5 15  1  0  0  0  0
  6 16  1  0  0  0  0
  8 17  1  0  0  0  0
M  END
$$$$
