C37H66O7
APtclcactv06281817293D 0   0.00000     0.00000
 
110112  0  0  0  0  0  0  0  0999 V2000
   14.8543   -6.9260   -1.3282 C   0  0  0  0  0  0  0  0  0  0  0  0
   13.5184   -6.2653   -1.6741 C   0  0  0  0  0  0  0  0  0  0  0  0
   13.1717   -5.2259   -0.6062 C   0  0  0  0  0  0  0  0  0  0  0  0
   11.8358   -4.5653   -0.9522 C   0  0  0  0  0  0  0  0  0  0  0  0
   11.4891   -3.5259    0.1157 C   0  0  0  0  0  0  0  0  0  0  0  0
   10.1532   -2.8653   -0.2302 C   0  0  0  0  0  0  0  0  0  0  0  0
    9.7455   -1.9171    0.8992 C   0  0  0  0  0  0  0  0  0  0  0  0
    8.3529   -1.3518    0.6128 C   0  0  0  0  0  0  0  0  0  0  0  0
    7.9452   -0.4036    1.7423 C   0  0  0  0  0  0  0  0  0  0  0  0
    6.5527    0.1617    1.4559 C   0  0  0  0  0  0  0  0  0  0  0  0
    6.1450    1.1099    2.5853 C   0  0  0  0  0  0  0  0  0  0  0  0
    4.8090    1.7706    2.2394 C   0  0  0  0  0  0  0  0  0  0  0  0
    4.3896    2.7296    3.3741 C   0  0  0  0  0  0  0  0  0  0  0  0
    3.7888    3.9270    2.5885 C   0  0  0  0  0  0  0  0  0  0  0  0
    4.6888    3.9326    1.3273 C   0  0  0  0  0  0  0  0  0  0  0  0
    4.9465    2.5480    1.0442 O   0  0  0  0  0  0  0  0  0  0  0  0
    3.9556    4.5868    0.1545 C   0  0  0  0  0  0  0  0  0  0  0  0
    4.8107    4.4746   -1.1259 C   0  0  0  0  0  0  0  0  0  0  0  0
    3.7406    4.1798   -2.2121 C   0  0  0  0  0  0  0  0  0  0  0  0
    2.7289    3.3281   -1.4047 C   0  0  0  0  0  0  0  0  0  0  0  0
    2.7205    3.9034   -0.0885 O   0  0  0  0  0  0  0  0  0  0  0  0
    1.3369    3.4196   -2.0331 C   0  0  0  0  0  0  0  0  0  0  0  0
    0.3303    2.6755   -1.1534 C   0  0  0  0  0  0  0  0  0  0  0  0
   -1.0356    2.6599   -1.8426 C   0  0  0  0  0  0  0  0  0  0  0  0
   -2.0423    1.9159   -0.9629 C   0  0  0  0  0  0  0  0  0  0  0  0
   -3.4082    1.9003   -1.6521 C   0  0  0  0  0  0  0  0  0  0  0  0
   -4.4149    1.1562   -0.7724 C   0  0  0  0  0  0  0  0  0  0  0  0
   -5.7808    1.1407   -1.4616 C   0  0  0  0  0  0  0  0  0  0  0  0
   -6.7874    0.3966   -0.5819 C   0  0  0  0  0  0  0  0  0  0  0  0
   -8.1533    0.3810   -1.2711 C   0  0  0  0  0  0  0  0  0  0  0  0
   -9.1600   -0.3630   -0.3914 C   0  0  0  0  0  0  0  0  0  0  0  0
  -10.5259   -0.3786   -1.0806 C   0  0  0  0  0  0  0  0  0  0  0  0
  -11.5326   -1.1227   -0.2009 C   0  0  0  0  0  0  0  0  0  0  0  0
  -12.8985   -1.1382   -0.8901 C   0  0  0  0  0  0  0  0  0  0  0  0
  -13.8900   -1.8711   -0.0236 C   0  0  0  0  0  0  0  0  0  0  0  0
  -14.7210   -1.2995    0.8442 C   0  0  0  0  0  0  0  0  0  0  0  0
  -15.5225   -2.4096    1.4828 C   0  0  0  0  0  0  0  0  0  0  0  0
  -15.0482   -3.6458    0.8789 O   0  0  0  0  0  0  0  0  0  0  0  0
  -14.0917   -3.3225   -0.0115 C   0  0  0  0  0  0  0  0  0  0  0  0
  -13.4799   -4.1175   -0.6976 O   0  0  0  0  0  0  0  0  0  0  0  0
  -15.2790   -2.4337    2.9931 C   0  0  0  0  0  0  0  0  0  0  0  0
    0.9523    4.7916   -2.1412 O   0  0  0  0  0  0  0  0  0  0  0  0
    6.0106    0.3719    3.8016 O   0  0  0  0  0  0  0  0  0  0  0  0
   10.2876   -2.1273   -1.4465 O   0  0  0  0  0  0  0  0  0  0  0  0
   14.7772   -7.4147   -0.3569 H   0  0  0  0  0  0  0  0  0  0  0  0
   15.1013   -7.6665   -2.0889 H   0  0  0  0  0  0  0  0  0  0  0  0
   15.6362   -6.1674   -1.2921 H   0  0  0  0  0  0  0  0  0  0  0  0
   13.5954   -5.7766   -2.6453 H   0  0  0  0  0  0  0  0  0  0  0  0
   12.7365   -7.0239   -1.7101 H   0  0  0  0  0  0  0  0  0  0  0  0
   13.0946   -5.7147    0.3650 H   0  0  0  0  0  0  0  0  0  0  0  0
   13.9536   -4.4674   -0.5702 H   0  0  0  0  0  0  0  0  0  0  0  0
   11.9129   -4.0766   -1.9234 H   0  0  0  0  0  0  0  0  0  0  0  0
   11.0539   -5.3239   -0.9882 H   0  0  0  0  0  0  0  0  0  0  0  0
   11.4120   -4.0147    1.0870 H   0  0  0  0  0  0  0  0  0  0  0  0
   12.2710   -2.7673    0.1517 H   0  0  0  0  0  0  0  0  0  0  0  0
    9.3894   -3.6330   -0.3536 H   0  0  0  0  0  0  0  0  0  0  0  0
    9.7293   -2.4621    1.8431 H   0  0  0  0  0  0  0  0  0  0  0  0
   10.4633   -1.0994    0.9640 H   0  0  0  0  0  0  0  0  0  0  0  0
    8.3691   -0.8068   -0.3310 H   0  0  0  0  0  0  0  0  0  0  0  0
    7.6351   -2.1695    0.5480 H   0  0  0  0  0  0  0  0  0  0  0  0
    7.9291   -0.9486    2.6861 H   0  0  0  0  0  0  0  0  0  0  0  0
    8.6630    0.4141    1.8071 H   0  0  0  0  0  0  0  0  0  0  0  0
    6.5688    0.7067    0.5120 H   0  0  0  0  0  0  0  0  0  0  0  0
    5.8348   -0.6560    1.3911 H   0  0  0  0  0  0  0  0  0  0  0  0
    6.9088    1.8777    2.7087 H   0  0  0  0  0  0  0  0  0  0  0  0
    4.0442    1.0066    2.0992 H   0  0  0  0  0  0  0  0  0  0  0  0
    3.6370    2.2683    4.0135 H   0  0  0  0  0  0  0  0  0  0  0  0
    5.2557    3.0433    3.9568 H   0  0  0  0  0  0  0  0  0  0  0  0
    2.7469    3.7421    2.3268 H   0  0  0  0  0  0  0  0  0  0  0  0
    3.8922    4.8561    3.1490 H   0  0  0  0  0  0  0  0  0  0  0  0
    5.6223    4.4572    1.5309 H   0  0  0  0  0  0  0  0  0  0  0  0
    3.7615    5.6357    0.3788 H   0  0  0  0  0  0  0  0  0  0  0  0
    5.3248    5.4133   -1.3326 H   0  0  0  0  0  0  0  0  0  0  0  0
    5.5207    3.6513   -1.0473 H   0  0  0  0  0  0  0  0  0  0  0  0
    3.2807    5.1007   -2.5707 H   0  0  0  0  0  0  0  0  0  0  0  0
    4.1653    3.6078   -3.0371 H   0  0  0  0  0  0  0  0  0  0  0  0
    3.0579    2.2898   -1.3617 H   0  0  0  0  0  0  0  0  0  0  0  0
    1.3558    2.9683   -3.0252 H   0  0  0  0  0  0  0  0  0  0  0  0
    0.6705    1.6517   -0.9981 H   0  0  0  0  0  0  0  0  0  0  0  0
    0.2459    3.1803   -0.1911 H   0  0  0  0  0  0  0  0  0  0  0  0
   -1.3759    3.6837   -1.9980 H   0  0  0  0  0  0  0  0  0  0  0  0
   -0.9513    2.1551   -2.8050 H   0  0  0  0  0  0  0  0  0  0  0  0
   -1.7020    0.8921   -0.8076 H   0  0  0  0  0  0  0  0  0  0  0  0
   -2.1267    2.4207   -0.0006 H   0  0  0  0  0  0  0  0  0  0  0  0
   -3.7485    2.9241   -1.8075 H   0  0  0  0  0  0  0  0  0  0  0  0
   -3.3238    1.3955   -2.6145 H   0  0  0  0  0  0  0  0  0  0  0  0
   -4.0746    0.1324   -0.6171 H   0  0  0  0  0  0  0  0  0  0  0  0
   -4.4992    1.6610    0.1900 H   0  0  0  0  0  0  0  0  0  0  0  0
   -6.1210    2.1645   -1.6169 H   0  0  0  0  0  0  0  0  0  0  0  0
   -5.6964    0.6359   -2.4240 H   0  0  0  0  0  0  0  0  0  0  0  0
   -6.4472   -0.6272   -0.4266 H   0  0  0  0  0  0  0  0  0  0  0  0
   -6.8718    0.9014    0.3805 H   0  0  0  0  0  0  0  0  0  0  0  0
   -8.4936    1.4048   -1.4264 H   0  0  0  0  0  0  0  0  0  0  0  0
   -8.0690   -0.1238   -2.2335 H   0  0  0  0  0  0  0  0  0  0  0  0
   -8.8197   -1.3868   -0.2360 H   0  0  0  0  0  0  0  0  0  0  0  0
   -9.2443    0.1418    0.5710 H   0  0  0  0  0  0  0  0  0  0  0  0
  -10.8662    0.6452   -1.2359 H   0  0  0  0  0  0  0  0  0  0  0  0
  -10.4415   -0.8834   -2.0429 H   0  0  0  0  0  0  0  0  0  0  0  0
  -11.1923   -2.1465   -0.0455 H   0  0  0  0  0  0  0  0  0  0  0  0
  -11.6169   -0.6179    0.7615 H   0  0  0  0  0  0  0  0  0  0  0  0
  -13.2387   -0.1144   -1.0454 H   0  0  0  0  0  0  0  0  0  0  0  0
  -12.8141   -1.6430   -1.8524 H   0  0  0  0  0  0  0  0  0  0  0  0
  -14.8061   -0.2432    1.0526 H   0  0  0  0  0  0  0  0  0  0  0  0
  -16.5839   -2.2736    1.2753 H   0  0  0  0  0  0  0  0  0  0  0  0
  -15.5821   -1.4800    3.4252 H   0  0  0  0  0  0  0  0  0  0  0  0
  -15.8618   -3.2378    3.4424 H   0  0  0  0  0  0  0  0  0  0  0  0
  -14.2195   -2.6004    3.1877 H   0  0  0  0  0  0  0  0  0  0  0  0
    0.9143    5.2573   -1.2945 H   0  0  0  0  0  0  0  0  0  0  0  0
    5.3464   -0.3299    3.7645 H   0  0  0  0  0  0  0  0  0  0  0  0
   10.9518   -1.4255   -1.4094 H   0  0  0  0  0  0  0  0  0  0  0  0
  1  2  1  0  0  0  0
  2  3  1  0  0  0  0
  3  4  1  0  0  0  0
  4  5  1  0  0  0  0
  5  6  1  0  0  0  0
  6  7  1  0  0  0  0
  7  8  1  0  0  0  0
  8  9  1  0  0  0  0
  9 10  1  0  0  0  0
 10 11  1  0  0  0  0
 11 12  1  0  0  0  0
 12 13  1  0  0  0  0
 13 14  1  0  0  0  0
 14 15  1  0  0  0  0
 15 16  1  0  0  0  0
 12 16  1  0  0  0  0
 15 17  1  0  0  0  0
 17 18  1  0  0  0  0
 18 19  1  0  0  0  0
 19 20  1  0  0  0  0
 20 21  1  0  0  0  0
 17 21  1  0  0  0  0
 20 22  1  0  0  0  0
 22 23  1  0  0  0  0
 23 24  1  0  0  0  0
 24 25  1  0  0  0  0
 25 26  1  0  0  0  0
 26 27  1  0  0  0  0
 27 28  1  0  0  0  0
 28 29  1  0  0  0  0
 29 30  1  0  0  0  0
 30 31  1  0  0  0  0
 31 32  1  0  0  0  0
 32 33  1  0  0  0  0
 33 34  1  0  0  0  0
 34 35  1  0  0  0  0
 35 36  2  0  0  0  0
 36 37  1  0  0  0  0
 37 38  1  0  0  0  0
 38 39  1  0  0  0  0
 35 39  1  0  0  0  0
 39 40  2  0  0  0  0
 37 41  1  0  0  0  0
 22 42  1  0  0  0  0
 11 43  1  0  0  0  0
  6 44  1  0  0  0  0
  1 45  1  0  0  0  0
  1 46  1  0  0  0  0
  1 47  1  0  0  0  0
  2 48  1  0  0  0  0
  2 49  1  0  0  0  0
  3 50  1  0  0  0  0
  3 51  1  0  0  0  0
  4 52  1  0  0  0  0
  4 53  1  0  0  0  0
  5 54  1  0  0  0  0
  5 55  1  0  0  0  0
  6 56  1  0  0  0  0
  7 57  1  0  0  0  0
  7 58  1  0  0  0  0
  8 59  1  0  0  0  0
  8 60  1  0  0  0  0
  9 61  1  0  0  0  0
  9 62  1  0  0  0  0
 10 63  1  0  0  0  0
 10 64  1  0  0  0  0
 11 65  1  0  0  0  0
 12 66  1  0  0  0  0
 13 67  1  0  0  0  0
 13 68  1  0  0  0  0
 14 69  1  0  0  0  0
 14 70  1  0  0  0  0
 15 71  1  0  0  0  0
 17 72  1  0  0  0  0
 18 73  1  0  0  0  0
 18 74  1  0  0  0  0
 19 75  1  0  0  0  0
 19 76  1  0  0  0  0
 20 77  1  0  0  0  0
 22 78  1  0  0  0  0
 23 79  1  0  0  0  0
 23 80  1  0  0  0  0
 24 81  1  0  0  0  0
 24 82  1  0  0  0  0
 25 83  1  0  0  0  0
 25 84  1  0  0  0  0
 26 85  1  0  0  0  0
 26 86  1  0  0  0  0
 27 87  1  0  0  0  0
 27 88  1  0  0  0  0
 28 89  1  0  0  0  0
 28 90  1  0  0  0  0
 29 91  1  0  0  0  0
 29 92  1  0  0  0  0
 30 93  1  0  0  0  0
 30 94  1  0  0  0  0
 31 95  1  0  0  0  0
 31 96  1  0  0  0  0
 32 97  1  0  0  0  0
 32 98  1  0  0  0  0
 33 99  1  0  0  0  0
 33100  1  0  0  0  0
 34101  1  0  0  0  0
 34102  1  0  0  0  0
 36103  1  0  0  0  0
 37104  1  0  0  0  0
 41105  1  0  0  0  0
 41106  1  0  0  0  0
 41107  1  0  0  0  0
 42108  1  0  0  0  0
 43109  1  0  0  0  0
 44110  1  0  0  0  0
M  END
$$$$
