C6H5N5O2
APtclcactv06211804473D 0   0.00000     0.00000
 
 18 19  0  0  0  0  0  0  0  0999 V2000
    2.3742   -0.9826   -0.0002 C   0  0  0  0  0  0  0  0  0  0  0  0
    1.1783   -1.5116   -0.0001 N   0  0  0  0  0  0  0  0  0  0  0  0
    0.0926   -0.7337    0.0000 C   0  0  0  0  0  0  0  0  0  0  0  0
    0.2154    0.6590    0.0001 C   0  0  0  0  0  0  0  0  0  0  0  0
    1.4516    1.2262    0.0001 N   0  0  0  0  0  0  0  0  0  0  0  0
    2.5386    0.4239   -0.0002 C   0  0  0  0  0  0  0  0  0  0  0  0
    3.6566    0.9088    0.0001 O   0  0  0  0  0  0  0  0  0  0  0  0
   -0.9182    1.4200   -0.0001 N   0  0  0  0  0  0  0  0  0  0  0  0
   -2.1464    0.8339   -0.0001 C   0  0  0  0  0  0  0  0  0  0  0  0
   -2.3119   -0.4710    0.0003 N   0  0  0  0  0  0  0  0  0  0  0  0
   -1.2636   -1.3087   -0.0003 C   0  0  0  0  0  0  0  0  0  0  0  0
   -1.4297   -2.5175    0.0000 O   0  0  0  0  0  0  0  0  0  0  0  0
   -3.2545    1.6348    0.0001 N   0  0  0  0  0  0  0  0  0  0  0  0
    3.2435   -1.6235    0.0042 H   0  0  0  0  0  0  0  0  0  0  0  0
    1.5512    2.1911   -0.0002 H   0  0  0  0  0  0  0  0  0  0  0  0
   -0.8475    2.3874   -0.0001 H   0  0  0  0  0  0  0  0  0  0  0  0
   -3.1555    2.5997    0.0001 H   0  0  0  0  0  0  0  0  0  0  0  0
   -4.1396    1.2380    0.0001 H   0  0  0  0  0  0  0  0  0  0  0  0
  1  2  2  0  0  0  0
  2  3  1  0  0  0  0
  3  4  2  0  0  0  0
  4  5  1  0  0  0  0
  5  6  1  0  0  0  0
  1  6  1  0  0  0  0
  6  7  2  0  0  0  0
  4  8  1  0  0  0  0
  8  9  1  0  0  0  0
  9 10  2  0  0  0  0
 10 11  1  0  0  0  0
  3 11  1  0  0  0  0
 11 12  2  0  0  0  0
  9 13  1  0  0  0  0
  1 14  1  0  0  0  0
  5 15  1  0  0  0  0
  8 16  1  0  0  0  0
 13 17  1  0  0  0  0
 13 18  1  0  0  0  0
M  END
$$$$
