C10H16O
APtclcactv06211806353D 0   0.00000     0.00000
 
 27 28  0  0  0  0  0  0  0  0999 V2000
    3.7601    0.0635   -0.1368 C   0  0  0  0  0  0  0  0  0  0  0  0
    2.2602    0.0392    0.0073 C   0  0  0  0  0  0  0  0  0  0  0  0
    1.6673    1.1721    0.1882 C   0  0  0  0  0  0  0  0  0  0  0  0
    0.1835    1.3302    0.3710 C   0  0  0  0  0  0  0  0  0  0  0  0
   -0.5123    0.0179    0.0080 C   0  0  0  0  0  0  0  0  0  0  0  0
    0.1872   -1.2357    0.5437 C   0  0  0  0  0  0  0  0  0  0  0  0
    1.5873   -1.2962   -0.0777 C   0  0  0  0  0  0  0  0  0  0  0  0
   -2.0342    0.0071   -0.0917 C   0  0  0  0  0  0  0  0  0  0  0  0
   -1.1883   -0.0691   -1.2421 O   0  0  0  0  0  0  0  0  0  0  0  0
   -2.7683   -1.2643    0.3394 C   0  0  0  0  0  0  0  0  0  0  0  0
   -2.7751    1.3212    0.1631 C   0  0  0  0  0  0  0  0  0  0  0  0
    4.1158    1.0910   -0.0603 H   0  0  0  0  0  0  0  0  0  0  0  0
    4.2108   -0.5369    0.6534 H   0  0  0  0  0  0  0  0  0  0  0  0
    4.0384   -0.3459   -1.1079 H   0  0  0  0  0  0  0  0  0  0  0  0
    2.2768    2.0634    0.2098 H   0  0  0  0  0  0  0  0  0  0  0  0
   -0.0305    1.5803    1.4102 H   0  0  0  0  0  0  0  0  0  0  0  0
   -0.1804    2.1267   -0.2780 H   0  0  0  0  0  0  0  0  0  0  0  0
    0.2644   -1.1789    1.6295 H   0  0  0  0  0  0  0  0  0  0  0  0
   -0.3789   -2.1230    0.2601 H   0  0  0  0  0  0  0  0  0  0  0  0
    1.5039   -1.5968   -1.1221 H   0  0  0  0  0  0  0  0  0  0  0  0
    2.1872   -2.0307    0.4598 H   0  0  0  0  0  0  0  0  0  0  0  0
   -2.5496   -1.4727    1.3867 H   0  0  0  0  0  0  0  0  0  0  0  0
   -3.8419   -1.1245    0.2133 H   0  0  0  0  0  0  0  0  0  0  0  0
   -2.4363   -2.1014   -0.2746 H   0  0  0  0  0  0  0  0  0  0  0  0
   -2.4473    2.0690   -0.5590 H   0  0  0  0  0  0  0  0  0  0  0  0
   -3.8479    1.1599    0.0575 H   0  0  0  0  0  0  0  0  0  0  0  0
   -2.5579    1.6710    1.1724 H   0  0  0  0  0  0  0  0  0  0  0  0
  1  2  1  0  0  0  0
  2  3  2  0  0  0  0
  3  4  1  0  0  0  0
  4  5  1  0  0  0  0
  5  6  1  0  0  0  0
  6  7  1  0  0  0  0
  2  7  1  0  0  0  0
  5  8  1  0  0  0  0
  8  9  1  0  0  0  0
  5  9  1  0  0  0  0
  8 10  1  0  0  0  0
  8 11  1  0  0  0  0
  1 12  1  0  0  0  0
  1 13  1  0  0  0  0
  1 14  1  0  0  0  0
  3 15  1  0  0  0  0
  4 16  1  0  0  0  0
  4 17  1  0  0  0  0
  6 18  1  0  0  0  0
  6 19  1  0  0  0  0
  7 20  1  0  0  0  0
  7 21  1  0  0  0  0
 10 22  1  0  0  0  0
 10 23  1  0  0  0  0
 10 24  1  0  0  0  0
 11 25  1  0  0  0  0
 11 26  1  0  0  0  0
 11 27  1  0  0  0  0
M  END
$$$$
