C9H10O5
APtclcactv06211804473D 0   0.00000     0.00000
 
 24 24  0  0  0  0  0  0  0  0999 V2000
    1.3783    3.4253    0.0089 C   0  0  0  0  0  0  0  0  0  0  0  0
    1.9585    2.1194    0.0124 O   0  0  0  0  0  0  0  0  0  0  0  0
    1.1018    1.0631    0.0093 C   0  0  0  0  0  0  0  0  0  0  0  0
   -0.2630    1.2811    0.0030 C   0  0  0  0  0  0  0  0  0  0  0  0
   -1.1428    0.1952   -0.0001 C   0  0  0  0  0  0  0  0  0  0  0  0
   -0.6395   -1.1087    0.0030 C   0  0  0  0  0  0  0  0  0  0  0  0
    0.7262   -1.3208    0.0092 C   0  0  0  0  0  0  0  0  0  0  0  0
    1.6005   -0.2370    0.0066 C   0  0  0  0  0  0  0  0  0  0  0  0
    2.9427   -0.4485    0.0127 O   0  0  0  0  0  0  0  0  0  0  0  0
    1.2166   -2.5893    0.0127 O   0  0  0  0  0  0  0  0  0  0  0  0
    0.2630   -3.6536    0.0096 C   0  0  0  0  0  0  0  0  0  0  0  0
   -2.5996    0.4247   -0.0063 C   0  0  0  0  0  0  0  0  0  0  0  0
   -3.0359    1.5587   -0.0086 O   0  0  0  0  0  0  0  0  0  0  0  0
   -3.4467   -0.6232   -0.0093 O   0  0  0  0  0  0  0  0  0  0  0  0
    0.7652    3.5481   -0.8839 H   0  0  0  0  0  0  0  0  0  0  0  0
    0.7573    3.5493    0.8961 H   0  0  0  0  0  0  0  0  0  0  0  0
    2.1699    4.1746    0.0119 H   0  0  0  0  0  0  0  0  0  0  0  0
   -0.6492    2.2897    0.0010 H   0  0  0  0  0  0  0  0  0  0  0  0
   -1.3171   -1.9496    0.0009 H   0  0  0  0  0  0  0  0  0  0  0  0
    3.3345   -0.5144   -0.8689 H   0  0  0  0  0  0  0  0  0  0  0  0
   -0.3660   -3.5804    0.8968 H   0  0  0  0  0  0  0  0  0  0  0  0
   -0.3582   -3.5822   -0.8832 H   0  0  0  0  0  0  0  0  0  0  0  0
    0.7859   -4.6100    0.0129 H   0  0  0  0  0  0  0  0  0  0  0  0
   -4.3928   -0.4229   -0.0133 H   0  0  0  0  0  0  0  0  0  0  0  0
  1  2  1  0  0  0  0
  2  3  1  0  0  0  0
  3  4  2  0  0  0  0
  4  5  1  0  0  0  0
  5  6  2  0  0  0  0
  6  7  1  0  0  0  0
  7  8  2  0  0  0  0
  3  8  1  0  0  0  0
  8  9  1  0  0  0  0
  7 10  1  0  0  0  0
 10 11  1  0  0  0  0
  5 12  1  0  0  0  0
 12 13  2  0  0  0  0
 12 14  1  0  0  0  0
  1 15  1  0  0  0  0
  1 16  1  0  0  0  0
  1 17  1  0  0  0  0
  4 18  1  0  0  0  0
  6 19  1  0  0  0  0
  9 20  1  0  0  0  0
 11 21  1  0  0  0  0
 11 22  1  0  0  0  0
 11 23  1  0  0  0  0
 14 24  1  0  0  0  0
M  END
$$$$
