C10H8O3
APtclcactv06211804473D 0   0.00000     0.00000
 
 21 22  0  0  0  0  0  0  0  0999 V2000
    4.3658    0.1846    0.0009 C   0  0  0  0  0  0  0  0  0  0  0  0
    3.1889    0.9952    0.0004 O   0  0  0  0  0  0  0  0  0  0  0  0
    1.9953    0.3487    0.0005 C   0  0  0  0  0  0  0  0  0  0  0  0
    0.8185    1.0793    0.0000 C   0  0  0  0  0  0  0  0  0  0  0  0
   -0.4016    0.4201    0.0001 C   0  0  0  0  0  0  0  0  0  0  0  0
   -0.4268   -0.9870    0.0006 C   0  0  0  0  0  0  0  0  0  0  0  0
    0.7722   -1.7092    0.0015 C   0  0  0  0  0  0  0  0  0  0  0  0
    1.9641   -1.0446   -0.0047 C   0  0  0  0  0  0  0  0  0  0  0  0
   -1.7203   -1.6735    0.0008 C   0  0  0  0  0  0  0  0  0  0  0  0
   -2.8485   -0.9168    0.0003 C   0  0  0  0  0  0  0  0  0  0  0  0
   -2.7494    0.4898   -0.0002 C   0  0  0  0  0  0  0  0  0  0  0  0
   -3.7687    1.1564   -0.0006 O   0  0  0  0  0  0  0  0  0  0  0  0
   -1.5606    1.1129    0.0001 O   0  0  0  0  0  0  0  0  0  0  0  0
    4.3734   -0.4443    0.8912 H   0  0  0  0  0  0  0  0  0  0  0  0
    4.3737   -0.4450   -0.8888 H   0  0  0  0  0  0  0  0  0  0  0  0
    5.2479    0.8249    0.0008 H   0  0  0  0  0  0  0  0  0  0  0  0
    0.8510    2.1588   -0.0000 H   0  0  0  0  0  0  0  0  0  0  0  0
    0.7541   -2.7890    0.0022 H   0  0  0  0  0  0  0  0  0  0  0  0
    2.8891   -1.6020   -0.0040 H   0  0  0  0  0  0  0  0  0  0  0  0
   -1.7758   -2.7521    0.0008 H   0  0  0  0  0  0  0  0  0  0  0  0
   -3.8187   -1.3912    0.0001 H   0  0  0  0  0  0  0  0  0  0  0  0
  1  2  1  0  0  0  0
  2  3  1  0  0  0  0
  3  4  2  0  0  0  0
  4  5  1  0  0  0  0
  5  6  2  0  0  0  0
  6  7  1  0  0  0  0
  7  8  2  0  0  0  0
  3  8  1  0  0  0  0
  6  9  1  0  0  0  0
  9 10  2  0  0  0  0
 10 11  1  0  0  0  0
 11 12  2  0  0  0  0
 11 13  1  0  0  0  0
  5 13  1  0  0  0  0
  1 14  1  0  0  0  0
  1 15  1  0  0  0  0
  1 16  1  0  0  0  0
  4 17  1  0  0  0  0
  7 18  1  0  0  0  0
  8 19  1  0  0  0  0
  9 20  1  0  0  0  0
 10 21  1  0  0  0  0
M  END
$$$$
