C17H16O5
APtclcactv06281817293D 0   0.00000     0.00000
 
 38 40  0  0  0  0  0  0  0  0999 V2000
    2.4308    3.8581   -0.0004 C   0  0  0  0  0  0  0  0  0  0  0  0
    2.2488    2.3622   -0.0008 C   0  0  0  0  0  0  0  0  0  0  0  0
    3.3418    1.5785   -0.0011 C   0  0  0  0  0  0  0  0  0  0  0  0
    3.1900    0.1658   -0.0009 C   0  0  0  0  0  0  0  0  0  0  0  0
    4.1583   -0.5764   -0.0008 O   0  0  0  0  0  0  0  0  0  0  0  0
    1.8179   -0.3659   -0.0006 C   0  0  0  0  0  0  0  0  0  0  0  0
    0.7569    0.5438   -0.0004 C   0  0  0  0  0  0  0  0  0  0  0  0
    1.0067    1.8663    0.0046 O   0  0  0  0  0  0  0  0  0  0  0  0
   -0.5651    0.0562   -0.0000 C   0  0  0  0  0  0  0  0  0  0  0  0
   -1.6619    0.9397   -0.0002 C   0  0  0  0  0  0  0  0  0  0  0  0
   -2.9438    0.4366   -0.0004 C   0  0  0  0  0  0  0  0  0  0  0  0
   -3.1663   -0.9409   -0.0003 C   0  0  0  0  0  0  0  0  0  0  0  0
   -2.1093   -1.8259    0.0004 C   0  0  0  0  0  0  0  0  0  0  0  0
   -0.7926   -1.3423    0.0001 C   0  0  0  0  0  0  0  0  0  0  0  0
    0.3001   -2.2331    0.0008 C   0  0  0  0  0  0  0  0  0  0  0  0
    1.5747   -1.7550   -0.0009 C   0  0  0  0  0  0  0  0  0  0  0  0
    2.6194   -2.6219   -0.0006 O   0  0  0  0  0  0  0  0  0  0  0  0
    2.3056   -4.0160    0.0015 C   0  0  0  0  0  0  0  0  0  0  0  0
   -4.4390   -1.4153   -0.0005 O   0  0  0  0  0  0  0  0  0  0  0  0
   -5.4916   -0.4488   -0.0007 C   0  0  0  0  0  0  0  0  0  0  0  0
   -1.4563    2.2814    0.0002 O   0  0  0  0  0  0  0  0  0  0  0  0
   -2.6165    3.1156   -0.0001 C   0  0  0  0  0  0  0  0  0  0  0  0
    2.4747    4.2191   -1.0280 H   0  0  0  0  0  0  0  0  0  0  0  0
    1.5913    4.3262    0.5135 H   0  0  0  0  0  0  0  0  0  0  0  0
    3.3582    4.1111    0.5134 H   0  0  0  0  0  0  0  0  0  0  0  0
    4.3275    2.0197   -0.0017 H   0  0  0  0  0  0  0  0  0  0  0  0
   -3.7846    1.1144   -0.0002 H   0  0  0  0  0  0  0  0  0  0  0  0
   -2.2947   -2.8898    0.0011 H   0  0  0  0  0  0  0  0  0  0  0  0
    0.1253   -3.2988    0.0016 H   0  0  0  0  0  0  0  0  0  0  0  0
    3.2284   -4.5962    0.0015 H   0  0  0  0  0  0  0  0  0  0  0  0
    1.7253   -4.2565    0.8922 H   0  0  0  0  0  0  0  0  0  0  0  0
    1.7238   -4.2588   -0.8877 H   0  0  0  0  0  0  0  0  0  0  0  0
   -6.4543   -0.9600   -0.0008 H   0  0  0  0  0  0  0  0  0  0  0  0
   -5.4119    0.1755    0.8893 H   0  0  0  0  0  0  0  0  0  0  0  0
   -5.4116    0.1754   -0.8907 H   0  0  0  0  0  0  0  0  0  0  0  0
   -3.2112    2.9106   -0.8903 H   0  0  0  0  0  0  0  0  0  0  0  0
   -3.2118    2.9102    0.8897 H   0  0  0  0  0  0  0  0  0  0  0  0
   -2.3117    4.1621    0.0003 H   0  0  0  0  0  0  0  0  0  0  0  0
  1  2  1  0  0  0  0
  2  3  2  0  0  0  0
  3  4  1  0  0  0  0
  4  5  2  0  0  0  0
  4  6  1  0  0  0  0
  6  7  2  0  0  0  0
  7  8  1  0  0  0  0
  2  8  1  0  0  0  0
  7  9  1  0  0  0  0
  9 10  2  0  0  0  0
 10 11  1  0  0  0  0
 11 12  2  0  0  0  0
 12 13  1  0  0  0  0
 13 14  2  0  0  0  0
  9 14  1  0  0  0  0
 14 15  1  0  0  0  0
 15 16  2  0  0  0  0
  6 16  1  0  0  0  0
 16 17  1  0  0  0  0
 17 18  1  0  0  0  0
 12 19  1  0  0  0  0
 19 20  1  0  0  0  0
 10 21  1  0  0  0  0
 21 22  1  0  0  0  0
  1 23  1  0  0  0  0
  1 24  1  0  0  0  0
  1 25  1  0  0  0  0
  3 26  1  0  0  0  0
 11 27  1  0  0  0  0
 13 28  1  0  0  0  0
 15 29  1  0  0  0  0
 18 30  1  0  0  0  0
 18 31  1  0  0  0  0
 18 32  1  0  0  0  0
 20 33  1  0  0  0  0
 20 34  1  0  0  0  0
 20 35  1  0  0  0  0
 22 36  1  0  0  0  0
 22 37  1  0  0  0  0
 22 38  1  0  0  0  0
M  END
$$$$
