C18H29NO3
APtclcactv06201818403D 0   0.00000     0.00000
 
 51 51  0  0  0  0  0  0  0  0999 V2000
   -8.5764    0.6872    1.6668 C   0  0  0  0  0  0  0  0  0  0  0  0
   -8.4876   -0.4936    0.6979 C   0  0  0  0  0  0  0  0  0  0  0  0
   -9.7954   -0.6080   -0.0879 C   0  0  0  0  0  0  0  0  0  0  0  0
   -7.3268   -0.2701   -0.2734 C   0  0  0  0  0  0  0  0  0  0  0  0
   -6.0062   -0.2802    0.4991 C   0  0  0  0  0  0  0  0  0  0  0  0
   -4.8454   -0.0567   -0.4723 C   0  0  0  0  0  0  0  0  0  0  0  0
   -3.5248   -0.0668    0.3002 C   0  0  0  0  0  0  0  0  0  0  0  0
   -2.3640    0.1567   -0.6711 C   0  0  0  0  0  0  0  0  0  0  0  0
   -1.0434    0.1466    0.1014 C   0  0  0  0  0  0  0  0  0  0  0  0
    0.0999    0.3668   -0.8554 C   0  0  0  0  0  0  0  0  0  0  0  0
   -0.1198    0.5169   -2.0386 O   0  0  0  0  0  0  0  0  0  0  0  0
    1.3667    0.3968   -0.3961 N   0  0  0  0  0  0  0  0  0  0  0  0
    2.4782    0.6108   -1.3262 C   0  0  0  0  0  0  0  0  0  0  0  0
    3.7789    0.6008   -0.5653 C   0  0  0  0  0  0  0  0  0  0  0  0
    4.4626   -0.5869   -0.3837 C   0  0  0  0  0  0  0  0  0  0  0  0
    5.6588   -0.5977    0.3157 C   0  0  0  0  0  0  0  0  0  0  0  0
    6.1690    0.5887    0.8339 C   0  0  0  0  0  0  0  0  0  0  0  0
    5.4787    1.7757    0.6482 C   0  0  0  0  0  0  0  0  0  0  0  0
    4.2887    1.7804   -0.0554 C   0  0  0  0  0  0  0  0  0  0  0  0
    7.3423    0.5831    1.5214 O   0  0  0  0  0  0  0  0  0  0  0  0
    6.3324   -1.7653    0.4957 O   0  0  0  0  0  0  0  0  0  0  0  0
    5.7488   -2.9438   -0.0635 C   0  0  0  0  0  0  0  0  0  0  0  0
   -8.7444    1.6062    1.1052 H   0  0  0  0  0  0  0  0  0  0  0  0
   -9.4033    0.5280    2.3588 H   0  0  0  0  0  0  0  0  0  0  0  0
   -7.6447    0.7687    2.2266 H   0  0  0  0  0  0  0  0  0  0  0  0
   -8.3196   -1.4125    1.2595 H   0  0  0  0  0  0  0  0  0  0  0  0
   -9.9634    0.3109   -0.6495 H   0  0  0  0  0  0  0  0  0  0  0  0
   -9.7321   -1.4492   -0.7781 H   0  0  0  0  0  0  0  0  0  0  0  0
  -10.6223   -0.7672    0.6041 H   0  0  0  0  0  0  0  0  0  0  0  0
   -7.3181   -1.0658   -1.0184 H   0  0  0  0  0  0  0  0  0  0  0  0
   -7.4494    0.6920   -0.7709 H   0  0  0  0  0  0  0  0  0  0  0  0
   -6.0149    0.5155    1.2440 H   0  0  0  0  0  0  0  0  0  0  0  0
   -5.8836   -1.2423    0.9965 H   0  0  0  0  0  0  0  0  0  0  0  0
   -4.8367   -0.8524   -1.2172 H   0  0  0  0  0  0  0  0  0  0  0  0
   -4.9680    0.9054   -0.9697 H   0  0  0  0  0  0  0  0  0  0  0  0
   -3.5335    0.7289    1.0451 H   0  0  0  0  0  0  0  0  0  0  0  0
   -3.4022   -1.0289    0.7977 H   0  0  0  0  0  0  0  0  0  0  0  0
   -2.3553   -0.6390   -1.4160 H   0  0  0  0  0  0  0  0  0  0  0  0
   -2.4866    1.1188   -1.1686 H   0  0  0  0  0  0  0  0  0  0  0  0
   -1.0521    0.9423    0.8463 H   0  0  0  0  0  0  0  0  0  0  0  0
   -0.9208   -0.8154    0.5988 H   0  0  0  0  0  0  0  0  0  0  0  0
    1.5425    0.2767    0.5502 H   0  0  0  0  0  0  0  0  0  0  0  0
    2.4869   -0.1849   -2.0711 H   0  0  0  0  0  0  0  0  0  0  0  0
    2.3555    1.5728   -1.8237 H   0  0  0  0  0  0  0  0  0  0  0  0
    4.0643   -1.5063   -0.7865 H   0  0  0  0  0  0  0  0  0  0  0  0
    5.8725    2.6978    1.0494 H   0  0  0  0  0  0  0  0  0  0  0  0
    3.7516    2.7063   -0.1994 H   0  0  0  0  0  0  0  0  0  0  0  0
    8.1232    0.7202    0.9678 H   0  0  0  0  0  0  0  0  0  0  0  0
    5.6525   -2.8246   -1.1427 H   0  0  0  0  0  0  0  0  0  0  0  0
    6.3856   -3.8019    0.1519 H   0  0  0  0  0  0  0  0  0  0  0  0
    4.7633   -3.1039    0.3738 H   0  0  0  0  0  0  0  0  0  0  0  0
  1  2  1  0  0  0  0
  2  3  1  0  0  0  0
  2  4  1  0  0  0  0
  4  5  1  0  0  0  0
  5  6  1  0  0  0  0
  6  7  1  0  0  0  0
  7  8  1  0  0  0  0
  8  9  1  0  0  0  0
  9 10  1  0  0  0  0
 10 11  2  0  0  0  0
 10 12  1  0  0  0  0
 12 13  1  0  0  0  0
 13 14  1  0  0  0  0
 14 15  2  0  0  0  0
 15 16  1  0  0  0  0
 16 17  2  0  0  0  0
 17 18  1  0  0  0  0
 18 19  2  0  0  0  0
 14 19  1  0  0  0  0
 17 20  1  0  0  0  0
 16 21  1  0  0  0  0
 21 22  1  0  0  0  0
  1 23  1  0  0  0  0
  1 24  1  0  0  0  0
  1 25  1  0  0  0  0
  2 26  1  0  0  0  0
  3 27  1  0  0  0  0
  3 28  1  0  0  0  0
  3 29  1  0  0  0  0
  4 30  1  0  0  0  0
  4 31  1  0  0  0  0
  5 32  1  0  0  0  0
  5 33  1  0  0  0  0
  6 34  1  0  0  0  0
  6 35  1  0  0  0  0
  7 36  1  0  0  0  0
  7 37  1  0  0  0  0
  8 38  1  0  0  0  0
  8 39  1  0  0  0  0
  9 40  1  0  0  0  0
  9 41  1  0  0  0  0
 12 42  1  0  0  0  0
 13 43  1  0  0  0  0
 13 44  1  0  0  0  0
 15 45  1  0  0  0  0
 18 46  1  0  0  0  0
 19 47  1  0  0  0  0
 20 48  1  0  0  0  0
 22 49  1  0  0  0  0
 22 50  1  0  0  0  0
 22 51  1  0  0  0  0
M  END
$$$$
