C14H22O2
APtclcactv06211806363D 0   0.00000     0.00000
 
 38 39  0  0  0  0  0  0  0  0999 V2000
    1.0298    2.4555    0.4020 C   0  0  0  0  0  0  0  0  0  0  0  0
    1.3817    1.0949   -0.2029 C   0  0  0  0  0  0  0  0  0  0  0  0
    2.6651    0.5821    0.4380 C   0  0  0  0  0  0  0  0  0  0  0  0
    2.8682   -0.8664   -0.0279 C   0  0  0  0  0  0  0  0  0  0  0  0
    1.7651   -1.7094    0.5993 C   0  0  0  0  0  0  0  0  0  0  0  0
    0.3978   -1.1028    0.3599 C   0  0  0  0  0  0  0  0  0  0  0  0
    0.2278    0.1396    0.0227 C   0  0  0  0  0  0  0  0  0  0  0  0
   -1.1419    0.7598   -0.1621 C   0  0  0  0  0  0  0  0  0  0  0  0
   -2.2113   -0.3024   -0.3829 C   0  0  0  0  0  0  0  0  0  0  0  0
   -2.0737   -1.3395    0.7402 C   0  0  0  0  0  0  0  0  0  0  0  0
   -0.7541   -2.0716    0.5312 C   0  0  0  0  0  0  0  0  0  0  0  0
   -3.5783    0.3297   -0.3307 C   0  0  0  0  0  0  0  0  0  0  0  0
   -4.3720    0.2609   -1.3706 C   0  0  0  0  0  0  0  0  0  0  0  0
   -4.0324    1.0408    0.9180 C   0  0  0  0  0  0  0  0  0  0  0  0
    2.7802   -0.9345   -1.4526 O   0  0  0  0  0  0  0  0  0  0  0  0
    3.7706    1.3856    0.0202 O   0  0  0  0  0  0  0  0  0  0  0  0
    1.8410    3.1583    0.2120 H   0  0  0  0  0  0  0  0  0  0  0  0
    0.1119    2.8286   -0.0523 H   0  0  0  0  0  0  0  0  0  0  0  0
    0.8858    2.3488    1.4771 H   0  0  0  0  0  0  0  0  0  0  0  0
    1.5411    1.2123   -1.2748 H   0  0  0  0  0  0  0  0  0  0  0  0
    2.5742    0.6123    1.5238 H   0  0  0  0  0  0  0  0  0  0  0  0
    3.8425   -1.2278    0.3011 H   0  0  0  0  0  0  0  0  0  0  0  0
    1.7916   -2.7096    0.1667 H   0  0  0  0  0  0  0  0  0  0  0  0
    1.9394   -1.7824    1.6728 H   0  0  0  0  0  0  0  0  0  0  0  0
   -1.3934    1.3389    0.7264 H   0  0  0  0  0  0  0  0  0  0  0  0
   -1.1179    1.4257   -1.0247 H   0  0  0  0  0  0  0  0  0  0  0  0
   -2.0617   -0.7825   -1.3500 H   0  0  0  0  0  0  0  0  0  0  0  0
   -2.0694   -0.8382    1.7081 H   0  0  0  0  0  0  0  0  0  0  0  0
   -2.9010   -2.0476    0.6933 H   0  0  0  0  0  0  0  0  0  0  0  0
   -0.8302   -2.6955   -0.3593 H   0  0  0  0  0  0  0  0  0  0  0  0
   -0.5591   -2.7076    1.3947 H   0  0  0  0  0  0  0  0  0  0  0  0
   -5.3517    0.7139   -1.3331 H   0  0  0  0  0  0  0  0  0  0  0  0
   -4.0466   -0.2487   -2.2655 H   0  0  0  0  0  0  0  0  0  0  0  0
   -3.7489    2.0918    0.8610 H   0  0  0  0  0  0  0  0  0  0  0  0
   -5.1158    0.9611    1.0080 H   0  0  0  0  0  0  0  0  0  0  0  0
   -3.5610    0.5840    1.7881 H   0  0  0  0  0  0  0  0  0  0  0  0
    2.8999   -1.8243   -1.8119 H   0  0  0  0  0  0  0  0  0  0  0  0
    4.6194    1.1114    0.3936 H   0  0  0  0  0  0  0  0  0  0  0  0
  1  2  1  0  0  0  0
  2  3  1  0  0  0  0
  3  4  1  0  0  0  0
  4  5  1  0  0  0  0
  5  6  1  0  0  0  0
  6  7  2  0  0  0  0
  2  7  1  0  0  0  0
  7  8  1  0  0  0  0
  8  9  1  0  0  0  0
  9 10  1  0  0  0  0
 10 11  1  0  0  0  0
  6 11  1  0  0  0  0
  9 12  1  0  0  0  0
 12 13  2  0  0  0  0
 12 14  1  0  0  0  0
  4 15  1  0  0  0  0
  3 16  1  0  0  0  0
  1 17  1  0  0  0  0
  1 18  1  0  0  0  0
  1 19  1  0  0  0  0
  2 20  1  0  0  0  0
  3 21  1  0  0  0  0
  4 22  1  0  0  0  0
  5 23  1  0  0  0  0
  5 24  1  0  0  0  0
  8 25  1  0  0  0  0
  8 26  1  0  0  0  0
  9 27  1  0  0  0  0
 10 28  1  0  0  0  0
 10 29  1  0  0  0  0
 11 30  1  0  0  0  0
 11 31  1  0  0  0  0
 13 32  1  0  0  0  0
 13 33  1  0  0  0  0
 14 34  1  0  0  0  0
 14 35  1  0  0  0  0
 14 36  1  0  0  0  0
 15 37  1  0  0  0  0
 16 38  1  0  0  0  0
M  END
$$$$
