C31H28O12
APtclcactv06211806363D 0   0.00000     0.00000
 
 71 76  0  0  0  0  0  0  0  0999 V2000
   -6.3694   -2.0668    3.3527 C   0  0  0  0  0  0  0  0  0  0  0  0
   -6.7058   -1.1776    2.2859 O   0  0  0  0  0  0  0  0  0  0  0  0
   -5.7188   -0.8757    1.3988 C   0  0  0  0  0  0  0  0  0  0  0  0
   -5.5376   -1.6588    0.2651 C   0  0  0  0  0  0  0  0  0  0  0  0
   -4.5308   -1.3479   -0.6364 C   0  0  0  0  0  0  0  0  0  0  0  0
   -3.7081   -0.2607   -0.4086 C   0  0  0  0  0  0  0  0  0  0  0  0
   -3.8851    0.5208    0.7178 C   0  0  0  0  0  0  0  0  0  0  0  0
   -4.8932    0.2199    1.6212 C   0  0  0  0  0  0  0  0  0  0  0  0
   -5.0666    0.9894    2.7291 O   0  0  0  0  0  0  0  0  0  0  0  0
   -2.6149    0.0733   -1.3907 C   0  0  0  0  0  0  0  0  0  0  0  0
   -3.0736    1.2161   -2.3056 C   0  0  0  0  0  0  0  0  0  0  0  0
   -1.9882    1.4536   -3.3585 C   0  0  0  0  0  0  0  0  0  0  0  0
   -0.6401    1.5382   -2.6883 C   0  0  0  0  0  0  0  0  0  0  0  0
   -0.4417    1.0615   -1.4050 C   0  0  0  0  0  0  0  0  0  0  0  0
   -1.4491    0.5017   -0.6856 O   0  0  0  0  0  0  0  0  0  0  0  0
    0.8175    1.1525   -0.8210 C   0  0  0  0  0  0  0  0  0  0  0  0
    1.8713    1.7200   -1.5177 C   0  0  0  0  0  0  0  0  0  0  0  0
    1.6712    2.2005   -2.8033 C   0  0  0  0  0  0  0  0  0  0  0  0
    0.4181    2.1094   -3.3864 C   0  0  0  0  0  0  0  0  0  0  0  0
    0.2222    2.5799   -4.6461 O   0  0  0  0  0  0  0  0  0  0  0  0
    3.0995    1.8064   -0.9424 O   0  0  0  0  0  0  0  0  0  0  0  0
    1.0361    0.6307    0.5758 C   0  0  0  0  0  0  0  0  0  0  0  0
    1.4913   -0.8291    0.5087 C   0  0  0  0  0  0  0  0  0  0  0  0
    2.9323   -0.8605   -0.0167 C   0  0  0  0  0  0  0  0  0  0  0  0
    3.7740   -0.2141    0.9391 O   0  0  0  0  0  0  0  0  0  0  0  0
    3.3897    1.0036    1.4029 C   0  0  0  0  0  0  0  0  0  0  0  0
    4.3378    1.8004    2.0356 C   0  0  0  0  0  0  0  0  0  0  0  0
    3.9869    3.0469    2.5277 C   0  0  0  0  0  0  0  0  0  0  0  0
    2.6850    3.5033    2.3888 C   0  0  0  0  0  0  0  0  0  0  0  0
    1.7401    2.7116    1.7565 C   0  0  0  0  0  0  0  0  0  0  0  0
    2.0914    1.4609    1.2620 C   0  0  0  0  0  0  0  0  0  0  0  0
    0.4643    3.1592    1.6200 O   0  0  0  0  0  0  0  0  0  0  0  0
    4.9171    3.8210    3.1460 O   0  0  0  0  0  0  0  0  0  0  0  0
    3.3752   -2.2894   -0.1989 C   0  0  0  0  0  0  0  0  0  0  0  0
    3.3598   -2.8615   -1.4576 C   0  0  0  0  0  0  0  0  0  0  0  0
    3.7653   -4.1712   -1.6272 C   0  0  0  0  0  0  0  0  0  0  0  0
    4.1882   -4.9124   -0.5334 C   0  0  0  0  0  0  0  0  0  0  0  0
    4.2026   -4.3360    0.7284 C   0  0  0  0  0  0  0  0  0  0  0  0
    3.8015   -3.0243    0.8919 C   0  0  0  0  0  0  0  0  0  0  0  0
    4.5871   -6.2011   -0.6977 O   0  0  0  0  0  0  0  0  0  0  0  0
    1.4416   -1.4097    1.8136 O   0  0  0  0  0  0  0  0  0  0  0  0
   -4.2980    0.8565   -2.9487 O   0  0  0  0  0  0  0  0  0  0  0  0
   -6.3462   -2.7289    0.0403 O   0  0  0  0  0  0  0  0  0  0  0  0
   -5.5643   -1.6340    3.9464 H   0  0  0  0  0  0  0  0  0  0  0  0
   -7.2435   -2.2229    3.9849 H   0  0  0  0  0  0  0  0  0  0  0  0
   -6.0438   -3.0220    2.9406 H   0  0  0  0  0  0  0  0  0  0  0  0
   -4.3891   -1.9562   -1.5174 H   0  0  0  0  0  0  0  0  0  0  0  0
   -3.2400    1.3691    0.8924 H   0  0  0  0  0  0  0  0  0  0  0  0
   -5.6732    1.7315    2.6016 H   0  0  0  0  0  0  0  0  0  0  0  0
   -2.3795   -0.8056   -1.9908 H   0  0  0  0  0  0  0  0  0  0  0  0
   -3.2192    2.1220   -1.7172 H   0  0  0  0  0  0  0  0  0  0  0  0
   -1.9877    0.6290   -4.0713 H   0  0  0  0  0  0  0  0  0  0  0  0
   -2.1910    2.3866   -3.8843 H   0  0  0  0  0  0  0  0  0  0  0  0
    2.4906    2.6450   -3.3485 H   0  0  0  0  0  0  0  0  0  0  0  0
    0.3760    1.9236   -5.3394 H   0  0  0  0  0  0  0  0  0  0  0  0
    3.6992    1.0881   -1.1859 H   0  0  0  0  0  0  0  0  0  0  0  0
    0.1038    0.6945    1.1368 H   0  0  0  0  0  0  0  0  0  0  0  0
    0.8418   -1.3859   -0.1667 H   0  0  0  0  0  0  0  0  0  0  0  0
    2.9872   -0.3342   -0.9696 H   0  0  0  0  0  0  0  0  0  0  0  0
    5.3521    1.4456    2.1441 H   0  0  0  0  0  0  0  0  0  0  0  0
    2.4080    4.4739    2.7731 H   0  0  0  0  0  0  0  0  0  0  0  0
    0.3066    3.6554    0.8051 H   0  0  0  0  0  0  0  0  0  0  0  0
    5.3976    4.4108    2.5491 H   0  0  0  0  0  0  0  0  0  0  0  0
    3.0302   -2.2842   -2.3087 H   0  0  0  0  0  0  0  0  0  0  0  0
    3.7528   -4.6177   -2.6105 H   0  0  0  0  0  0  0  0  0  0  0  0
    4.5314   -4.9110    1.5815 H   0  0  0  0  0  0  0  0  0  0  0  0
    3.8126   -2.5751    1.8740 H   0  0  0  0  0  0  0  0  0  0  0  0
    5.5316   -6.3002   -0.8801 H   0  0  0  0  0  0  0  0  0  0  0  0
    1.7180   -2.3359    1.8428 H   0  0  0  0  0  0  0  0  0  0  0  0
   -4.6445    1.5362   -3.5429 H   0  0  0  0  0  0  0  0  0  0  0  0
   -7.1400   -2.5215   -0.4714 H   0  0  0  0  0  0  0  0  0  0  0  0
  1  2  1  0  0  0  0
  2  3  1  0  0  0  0
  3  4  2  0  0  0  0
  4  5  1  0  0  0  0
  5  6  2  0  0  0  0
  6  7  1  0  0  0  0
  7  8  2  0  0  0  0
  3  8  1  0  0  0  0
  8  9  1  0  0  0  0
  6 10  1  0  0  0  0
 10 11  1  0  0  0  0
 11 12  1  0  0  0  0
 12 13  1  0  0  0  0
 13 14  2  0  0  0  0
 14 15  1  0  0  0  0
 10 15  1  0  0  0  0
 14 16  1  0  0  0  0
 16 17  2  0  0  0  0
 17 18  1  0  0  0  0
 18 19  2  0  0  0  0
 13 19  1  0  0  0  0
 19 20  1  0  0  0  0
 17 21  1  0  0  0  0
 16 22  1  0  0  0  0
 22 23  1  0  0  0  0
 23 24  1  0  0  0  0
 24 25  1  0  0  0  0
 25 26  1  0  0  0  0
 26 27  2  0  0  0  0
 27 28  1  0  0  0  0
 28 29  2  0  0  0  0
 29 30  1  0  0  0  0
 30 31  2  0  0  0  0
 22 31  1  0  0  0  0
 26 31  1  0  0  0  0
 30 32  1  0  0  0  0
 28 33  1  0  0  0  0
 24 34  1  0  0  0  0
 34 35  2  0  0  0  0
 35 36  1  0  0  0  0
 36 37  2  0  0  0  0
 37 38  1  0  0  0  0
 38 39  2  0  0  0  0
 34 39  1  0  0  0  0
 37 40  1  0  0  0  0
 23 41  1  0  0  0  0
 11 42  1  0  0  0  0
  4 43  1  0  0  0  0
  1 44  1  0  0  0  0
  1 45  1  0  0  0  0
  1 46  1  0  0  0  0
  5 47  1  0  0  0  0
  7 48  1  0  0  0  0
  9 49  1  0  0  0  0
 10 50  1  0  0  0  0
 11 51  1  0  0  0  0
 12 52  1  0  0  0  0
 12 53  1  0  0  0  0
 18 54  1  0  0  0  0
 20 55  1  0  0  0  0
 21 56  1  0  0  0  0
 22 57  1  0  0  0  0
 23 58  1  0  0  0  0
 24 59  1  0  0  0  0
 27 60  1  0  0  0  0
 29 61  1  0  0  0  0
 32 62  1  0  0  0  0
 33 63  1  0  0  0  0
 35 64  1  0  0  0  0
 36 65  1  0  0  0  0
 38 66  1  0  0  0  0
 39 67  1  0  0  0  0
 40 68  1  0  0  0  0
 41 69  1  0  0  0  0
 42 70  1  0  0  0  0
 43 71  1  0  0  0  0
M  END
$$$$
