C9H12O
APtclcactv06211804473D 0   0.00000     0.00000
 
 22 22  0  0  0  0  0  0  0  0999 V2000
    3.6328   -0.2188   -0.1166 C   0  0  0  0  0  0  0  0  0  0  0  0
    2.1356   -0.0696   -0.0323 C   0  0  0  0  0  0  0  0  0  0  0  0
    1.5787    1.1633    0.2517 C   0  0  0  0  0  0  0  0  0  0  0  0
    0.2053    1.3001    0.3291 C   0  0  0  0  0  0  0  0  0  0  0  0
   -0.6112    0.2041    0.1220 C   0  0  0  0  0  0  0  0  0  0  0  0
   -0.0544   -1.0287   -0.1629 C   0  0  0  0  0  0  0  0  0  0  0  0
    1.3188   -1.1645   -0.2445 C   0  0  0  0  0  0  0  0  0  0  0  0
   -2.1084    0.3531    0.2074 C   0  0  0  0  0  0  0  0  0  0  0  0
   -2.6916    0.4588   -1.2032 C   0  0  0  0  0  0  0  0  0  0  0  0
   -2.6635   -0.7859    0.8682 O   0  0  0  0  0  0  0  0  0  0  0  0
    4.0288   -0.4702    0.8672 H   0  0  0  0  0  0  0  0  0  0  0  0
    3.8797   -1.0128   -0.8214 H   0  0  0  0  0  0  0  0  0  0  0  0
    4.0727    0.7187   -0.4567 H   0  0  0  0  0  0  0  0  0  0  0  0
    2.2167    2.0196    0.4134 H   0  0  0  0  0  0  0  0  0  0  0  0
   -0.2297    2.2633    0.5516 H   0  0  0  0  0  0  0  0  0  0  0  0
   -0.6923   -1.8850   -0.3243 H   0  0  0  0  0  0  0  0  0  0  0  0
    1.7539   -2.1277   -0.4671 H   0  0  0  0  0  0  0  0  0  0  0  0
   -2.3524    1.2542    0.7699 H   0  0  0  0  0  0  0  0  0  0  0  0
   -2.4476   -0.4424   -1.7657 H   0  0  0  0  0  0  0  0  0  0  0  0
   -3.7745    0.5665   -1.1414 H   0  0  0  0  0  0  0  0  0  0  0  0
   -2.2682    1.3276   -1.7072 H   0  0  0  0  0  0  0  0  0  0  0  0
   -2.4852   -1.6251    0.4220 H   0  0  0  0  0  0  0  0  0  0  0  0
  1  2  1  0  0  0  0
  2  3  2  0  0  0  0
  3  4  1  0  0  0  0
  4  5  2  0  0  0  0
  5  6  1  0  0  0  0
  6  7  2  0  0  0  0
  2  7  1  0  0  0  0
  5  8  1  0  0  0  0
  8  9  1  0  0  0  0
  8 10  1  0  0  0  0
  1 11  1  0  0  0  0
  1 12  1  0  0  0  0
  1 13  1  0  0  0  0
  3 14  1  0  0  0  0
  4 15  1  0  0  0  0
  6 16  1  0  0  0  0
  7 17  1  0  0  0  0
  8 18  1  0  0  0  0
  9 19  1  0  0  0  0
  9 20  1  0  0  0  0
  9 21  1  0  0  0  0
 10 22  1  0  0  0  0
M  END
$$$$
