H2S2
APtclcactv06211806363D 0   0.00000     0.00000
 
  4  3  0  0  0  0  0  0  0  0999 V2000
    1.0236   -0.0531   -0.0000 S   0  0  0  0  0  0  0  0  0  0  0  0
   -1.0236    0.0531   -0.0000 S   0  0  0  0  0  0  0  0  0  0  0  0
    1.3936    1.2400    0.0000 H   0  0  0  0  0  0  0  0  0  0  0  0
   -1.3936   -1.2400    0.0000 H   0  0  0  0  0  0  0  0  0  0  0  0
  1  2  1  0  0  0  0
  1  3  1  0  0  0  0
  2  4  1  0  0  0  0
M  END
$$$$
