C12H8O4
APtclcactv06211806363D 0   0.00000     0.00000
 
 24 26  0  0  0  0  0  0  0  0999 V2000
   -3.1954    2.6224    0.0009 C   0  0  0  0  0  0  0  0  0  0  0  0
   -3.0578    1.2000    0.0004 O   0  0  0  0  0  0  0  0  0  0  0  0
   -1.7922    0.7022    0.0006 C   0  0  0  0  0  0  0  0  0  0  0  0
   -1.5899   -0.6830    0.0001 C   0  0  0  0  0  0  0  0  0  0  0  0
   -0.2854   -1.1963   -0.0001 C   0  0  0  0  0  0  0  0  0  0  0  0
    0.8121   -0.3270    0.0001 C   0  0  0  0  0  0  0  0  0  0  0  0
    0.5850    1.0578    0.0006 C   0  0  0  0  0  0  0  0  0  0  0  0
   -0.7271    1.5569   -0.0044 C   0  0  0  0  0  0  0  0  0  0  0  0
    1.7346    1.9647    0.0009 C   0  0  0  0  0  0  0  0  0  0  0  0
    2.9807    1.4236    0.0006 C   0  0  0  0  0  0  0  0  0  0  0  0
    3.1344    0.0223    0.0001 C   0  0  0  0  0  0  0  0  0  0  0  0
    4.2563   -0.4526    0.0002 O   0  0  0  0  0  0  0  0  0  0  0  0
    2.0753   -0.8010   -0.0006 O   0  0  0  0  0  0  0  0  0  0  0  0
   -0.4355   -2.6558   -0.0001 C   0  0  0  0  0  0  0  0  0  0  0  0
   -1.7544   -2.8949    0.0001 C   0  0  0  0  0  0  0  0  0  0  0  0
   -2.4334   -1.7350    0.0003 O   0  0  0  0  0  0  0  0  0  0  0  0
   -2.7187    3.0339   -0.8888 H   0  0  0  0  0  0  0  0  0  0  0  0
   -4.2533    2.8850    0.0006 H   0  0  0  0  0  0  0  0  0  0  0  0
   -2.7193    3.0332    0.8912 H   0  0  0  0  0  0  0  0  0  0  0  0
   -0.8953    2.6237   -0.0043 H   0  0  0  0  0  0  0  0  0  0  0  0
    1.5955    3.0357    0.0010 H   0  0  0  0  0  0  0  0  0  0  0  0
    3.8501    2.0644    0.0005 H   0  0  0  0  0  0  0  0  0  0  0  0
    0.3570   -3.3896   -0.0006 H   0  0  0  0  0  0  0  0  0  0  0  0
   -2.2056   -3.8761    0.0002 H   0  0  0  0  0  0  0  0  0  0  0  0
  1  2  1  0  0  0  0
  2  3  1  0  0  0  0
  3  4  2  0  0  0  0
  4  5  1  0  0  0  0
  5  6  2  0  0  0  0
  6  7  1  0  0  0  0
  7  8  2  0  0  0  0
  3  8  1  0  0  0  0
  7  9  1  0  0  0  0
  9 10  2  0  0  0  0
 10 11  1  0  0  0  0
 11 12  2  0  0  0  0
 11 13  1  0  0  0  0
  6 13  1  0  0  0  0
  5 14  1  0  0  0  0
 14 15  2  0  0  0  0
 15 16  1  0  0  0  0
  4 16  1  0  0  0  0
  1 17  1  0  0  0  0
  1 18  1  0  0  0  0
  1 19  1  0  0  0  0
  8 20  1  0  0  0  0
  9 21  1  0  0  0  0
 10 22  1  0  0  0  0
 14 23  1  0  0  0  0
 15 24  1  0  0  0  0
M  END
$$$$
