C30H28O7
APtclcactv06281817293D 0   0.00000     0.00000
 
 65 70  0  0  0  0  0  0  0  0999 V2000
   -1.3846   -4.4384   -2.0059 C   0  0  0  0  0  0  0  0  0  0  0  0
   -1.4869   -3.0036   -1.5567 C   0  0  0  0  0  0  0  0  0  0  0  0
   -1.1745   -2.0351   -2.3816 C   0  0  0  0  0  0  0  0  0  0  0  0
   -1.9484   -2.6829   -0.1584 C   0  0  0  0  0  0  0  0  0  0  0  0
   -0.8186   -2.9714    0.8259 C   0  0  0  0  0  0  0  0  0  0  0  0
    0.2989   -1.9772    0.6608 C   0  0  0  0  0  0  0  0  0  0  0  0
    0.0332   -0.6720    0.3704 C   0  0  0  0  0  0  0  0  0  0  0  0
   -1.3677   -0.2588    0.1600 C   0  0  0  0  0  0  0  0  0  0  0  0
   -2.3436   -1.2308   -0.0835 C   0  0  0  0  0  0  0  0  0  0  0  0
   -3.6637   -0.8626   -0.2634 C   0  0  0  0  0  0  0  0  0  0  0  0
   -4.0244    0.4791   -0.2154 C   0  0  0  0  0  0  0  0  0  0  0  0
   -3.0507    1.4608    0.0164 C   0  0  0  0  0  0  0  0  0  0  0  0
   -1.7189    1.0963    0.2057 C   0  0  0  0  0  0  0  0  0  0  0  0
   -0.7734    2.0432    0.4316 O   0  0  0  0  0  0  0  0  0  0  0  0
   -3.4736    2.8771    0.0537 C   0  0  0  0  0  0  0  0  0  0  0  0
   -4.7704    3.1396    0.2045 C   0  0  0  0  0  0  0  0  0  0  0  0
   -5.7555    2.0089    0.3439 C   0  0  0  0  0  0  0  0  0  0  0  0
   -5.3140    0.8662   -0.3903 O   0  0  0  0  0  0  0  0  0  0  0  0
   -5.8917    1.6375    1.8218 C   0  0  0  0  0  0  0  0  0  0  0  0
   -7.1172    2.4571   -0.1907 C   0  0  0  0  0  0  0  0  0  0  0  0
   -4.6104   -1.8138   -0.4880 O   0  0  0  0  0  0  0  0  0  0  0  0
    1.0117    0.2468    0.2723 O   0  0  0  0  0  0  0  0  0  0  0  0
    2.3172   -0.0663    0.3869 C   0  0  0  0  0  0  0  0  0  0  0  0
    3.3081    0.9059    0.2489 C   0  0  0  0  0  0  0  0  0  0  0  0
    2.9674    2.3170   -0.0278 C   0  0  0  0  0  0  0  0  0  0  0  0
    3.9329    3.1195   -0.4731 C   0  0  0  0  0  0  0  0  0  0  0  0
    5.3204    2.5767   -0.6925 C   0  0  0  0  0  0  0  0  0  0  0  0
    5.6001    1.5267    0.2338 O   0  0  0  0  0  0  0  0  0  0  0  0
    4.6610    0.5565    0.3725 C   0  0  0  0  0  0  0  0  0  0  0  0
    5.0238   -0.7555    0.6306 C   0  0  0  0  0  0  0  0  0  0  0  0
    4.0510   -1.7312    0.7714 C   0  0  0  0  0  0  0  0  0  0  0  0
    2.6967   -1.3922    0.6530 C   0  0  0  0  0  0  0  0  0  0  0  0
    1.6380   -2.4044    0.8058 C   0  0  0  0  0  0  0  0  0  0  0  0
    1.9073   -3.5698    1.0493 O   0  0  0  0  0  0  0  0  0  0  0  0
    4.4095   -3.0153    1.0233 O   0  0  0  0  0  0  0  0  0  0  0  0
    5.4304    2.0340   -2.1188 C   0  0  0  0  0  0  0  0  0  0  0  0
    6.3388    3.7025   -0.5018 C   0  0  0  0  0  0  0  0  0  0  0  0
   -0.3622   -4.7904   -1.8679 H   0  0  0  0  0  0  0  0  0  0  0  0
   -2.0634   -5.0534   -1.4151 H   0  0  0  0  0  0  0  0  0  0  0  0
   -1.6541   -4.5093   -3.0597 H   0  0  0  0  0  0  0  0  0  0  0  0
   -0.8438   -2.2649   -3.3837 H   0  0  0  0  0  0  0  0  0  0  0  0
   -1.2479   -1.0068   -2.0596 H   0  0  0  0  0  0  0  0  0  0  0  0
   -2.8101   -3.3030    0.0888 H   0  0  0  0  0  0  0  0  0  0  0  0
   -1.2049   -2.9113    1.8434 H   0  0  0  0  0  0  0  0  0  0  0  0
   -0.4347   -3.9758    0.6473 H   0  0  0  0  0  0  0  0  0  0  0  0
   -0.6411    2.2517    1.3665 H   0  0  0  0  0  0  0  0  0  0  0  0
   -2.7519    3.6753   -0.0382 H   0  0  0  0  0  0  0  0  0  0  0  0
   -5.1155    4.1627    0.2271 H   0  0  0  0  0  0  0  0  0  0  0  0
   -6.2466    2.5023    2.3825 H   0  0  0  0  0  0  0  0  0  0  0  0
   -6.6042    0.8192    1.9266 H   0  0  0  0  0  0  0  0  0  0  0  0
   -4.9216    1.3264    2.2092 H   0  0  0  0  0  0  0  0  0  0  0  0
   -7.0227    2.7317   -1.2413 H   0  0  0  0  0  0  0  0  0  0  0  0
   -7.8330    1.6411   -0.0914 H   0  0  0  0  0  0  0  0  0  0  0  0
   -7.4661    3.3179    0.3798 H   0  0  0  0  0  0  0  0  0  0  0  0
   -5.0217   -2.1571    0.3170 H   0  0  0  0  0  0  0  0  0  0  0  0
    1.9645    2.6868    0.1261 H   0  0  0  0  0  0  0  0  0  0  0  0
    3.7206    4.1587   -0.6769 H   0  0  0  0  0  0  0  0  0  0  0  0
    6.0675   -1.0179    0.7220 H   0  0  0  0  0  0  0  0  0  0  0  0
    4.4780   -3.2271    1.9643 H   0  0  0  0  0  0  0  0  0  0  0  0
    5.2359    2.8375   -2.8292 H   0  0  0  0  0  0  0  0  0  0  0  0
    6.4336    1.6402   -2.2813 H   0  0  0  0  0  0  0  0  0  0  0  0
    4.6998    1.2378   -2.2619 H   0  0  0  0  0  0  0  0  0  0  0  0
    6.2573    4.0985    0.5105 H   0  0  0  0  0  0  0  0  0  0  0  0
    7.3446    3.3133   -0.6599 H   0  0  0  0  0  0  0  0  0  0  0  0
    6.1399    4.4978   -1.2202 H   0  0  0  0  0  0  0  0  0  0  0  0
  1  2  1  0  0  0  0
  2  3  2  0  0  0  0
  2  4  1  0  0  0  0
  4  5  1  0  0  0  0
  5  6  1  0  0  0  0
  6  7  2  0  0  0  0
  7  8  1  0  0  0  0
  8  9  2  0  0  0  0
  4  9  1  0  0  0  0
  9 10  1  0  0  0  0
 10 11  2  0  0  0  0
 11 12  1  0  0  0  0
 12 13  2  0  0  0  0
  8 13  1  0  0  0  0
 13 14  1  0  0  0  0
 12 15  1  0  0  0  0
 15 16  2  0  0  0  0
 16 17  1  0  0  0  0
 17 18  1  0  0  0  0
 11 18  1  0  0  0  0
 17 19  1  0  0  0  0
 17 20  1  0  0  0  0
 10 21  1  0  0  0  0
  7 22  1  0  0  0  0
 22 23  1  0  0  0  0
 23 24  2  0  0  0  0
 24 25  1  0  0  0  0
 25 26  2  0  0  0  0
 26 27  1  0  0  0  0
 27 28  1  0  0  0  0
 28 29  1  0  0  0  0
 24 29  1  0  0  0  0
 29 30  2  0  0  0  0
 30 31  1  0  0  0  0
 31 32  2  0  0  0  0
 23 32  1  0  0  0  0
 32 33  1  0  0  0  0
  6 33  1  0  0  0  0
 33 34  2  0  0  0  0
 31 35  1  0  0  0  0
 27 36  1  0  0  0  0
 27 37  1  0  0  0  0
  1 38  1  0  0  0  0
  1 39  1  0  0  0  0
  1 40  1  0  0  0  0
  3 41  1  0  0  0  0
  3 42  1  0  0  0  0
  4 43  1  0  0  0  0
  5 44  1  0  0  0  0
  5 45  1  0  0  0  0
 14 46  1  0  0  0  0
 15 47  1  0  0  0  0
 16 48  1  0  0  0  0
 19 49  1  0  0  0  0
 19 50  1  0  0  0  0
 19 51  1  0  0  0  0
 20 52  1  0  0  0  0
 20 53  1  0  0  0  0
 20 54  1  0  0  0  0
 21 55  1  0  0  0  0
 25 56  1  0  0  0  0
 26 57  1  0  0  0  0
 30 58  1  0  0  0  0
 35 59  1  0  0  0  0
 36 60  1  0  0  0  0
 36 61  1  0  0  0  0
 36 62  1  0  0  0  0
 37 63  1  0  0  0  0
 37 64  1  0  0  0  0
 37 65  1  0  0  0  0
M  END
$$$$
