C11H16
APtclcactv06211804473D 0   0.00000     0.00000
 
 27 27  0  0  0  0  0  0  0  0999 V2000
    5.1186    0.0003    0.2011 C   0  0  0  0  0  0  0  0  0  0  0  0
    3.6932    0.0016    0.7570 C   0  0  0  0  0  0  0  0  0  0  0  0
    2.6939   -0.0010   -0.4016 C   0  0  0  0  0  0  0  0  0  0  0  0
    1.2685    0.0003    0.1543 C   0  0  0  0  0  0  0  0  0  0  0  0
    0.2693   -0.0023   -1.0044 C   0  0  0  0  0  0  0  0  0  0  0  0
   -1.1348   -0.0010   -0.4568 C   0  0  0  0  0  0  0  0  0  0  0  0
   -1.7787    1.1967   -0.2084 C   0  0  0  0  0  0  0  0  0  0  0  0
   -3.0665    1.1979    0.2938 C   0  0  0  0  0  0  0  0  0  0  0  0
   -3.7106    0.0014    0.5473 C   0  0  0  0  0  0  0  0  0  0  0  0
   -3.0671   -1.1964    0.2981 C   0  0  0  0  0  0  0  0  0  0  0  0
   -1.7808   -1.1976   -0.2083 C   0  0  0  0  0  0  0  0  0  0  0  0
    5.2705    0.8888   -0.4117 H   0  0  0  0  0  0  0  0  0  0  0  0
    5.8305    0.0021    1.0265 H   0  0  0  0  0  0  0  0  0  0  0  0
    5.2704   -0.8911   -0.4076 H   0  0  0  0  0  0  0  0  0  0  0  0
    3.5413   -0.8870    1.3697 H   0  0  0  0  0  0  0  0  0  0  0  0
    3.5414    0.8930    1.3657 H   0  0  0  0  0  0  0  0  0  0  0  0
    2.8458    0.8876   -1.0144 H   0  0  0  0  0  0  0  0  0  0  0  0
    2.8457   -0.8924   -1.0103 H   0  0  0  0  0  0  0  0  0  0  0  0
    1.1167   -0.8883    0.7670 H   0  0  0  0  0  0  0  0  0  0  0  0
    1.1167    0.8917    0.7629 H   0  0  0  0  0  0  0  0  0  0  0  0
    0.4211    0.8863   -1.6171 H   0  0  0  0  0  0  0  0  0  0  0  0
    0.4210   -0.8937   -1.6131 H   0  0  0  0  0  0  0  0  0  0  0  0
   -1.2754    2.1316   -0.4065 H   0  0  0  0  0  0  0  0  0  0  0  0
   -3.5693    2.1337    0.4886 H   0  0  0  0  0  0  0  0  0  0  0  0
   -4.7166    0.0023    0.9404 H   0  0  0  0  0  0  0  0  0  0  0  0
   -3.5702   -2.1312    0.4964 H   0  0  0  0  0  0  0  0  0  0  0  0
   -1.2780   -2.1333   -0.4030 H   0  0  0  0  0  0  0  0  0  0  0  0
  1  2  1  0  0  0  0
  2  3  1  0  0  0  0
  3  4  1  0  0  0  0
  4  5  1  0  0  0  0
  5  6  1  0  0  0  0
  6  7  2  0  0  0  0
  7  8  1  0  0  0  0
  8  9  2  0  0  0  0
  9 10  1  0  0  0  0
 10 11  2  0  0  0  0
  6 11  1  0  0  0  0
  1 12  1  0  0  0  0
  1 13  1  0  0  0  0
  1 14  1  0  0  0  0
  2 15  1  0  0  0  0
  2 16  1  0  0  0  0
  3 17  1  0  0  0  0
  3 18  1  0  0  0  0
  4 19  1  0  0  0  0
  4 20  1  0  0  0  0
  5 21  1  0  0  0  0
  5 22  1  0  0  0  0
  7 23  1  0  0  0  0
  8 24  1  0  0  0  0
  9 25  1  0  0  0  0
 10 26  1  0  0  0  0
 11 27  1  0  0  0  0
M  END
$$$$
