C11H20N2O6
APtclcactv06211804333D 0   0.00000     0.00000
 
 39 38  0  0  0  0  0  0  0  0999 V2000
    2.3383    0.3150   -0.4491 C   0  0  0  0  0  0  0  0  0  0  0  0
    1.0589    0.0817    0.3569 C   0  0  0  0  0  0  0  0  0  0  0  0
   -0.1406    0.6255   -0.4217 C   0  0  0  0  0  0  0  0  0  0  0  0
   -1.3690    0.4016    0.3522 N   0  0  0  0  0  0  0  0  0  0  0  0
   -2.5442    0.9122   -0.3662 C   0  0  0  0  0  0  0  0  0  0  0  0
   -3.7927    0.1593    0.0981 C   0  0  0  0  0  0  0  0  0  0  0  0
   -3.6800   -1.3124   -0.3047 C   0  0  0  0  0  0  0  0  0  0  0  0
   -4.9096   -2.0540    0.1526 C   0  0  0  0  0  0  0  0  0  0  0  0
   -5.7862   -1.4657    0.7404 O   0  0  0  0  0  0  0  0  0  0  0  0
   -5.0310   -3.3680   -0.0930 O   0  0  0  0  0  0  0  0  0  0  0  0
   -2.7086    2.3825   -0.0794 C   0  0  0  0  0  0  0  0  0  0  0  0
   -1.9270    2.9471    0.6487 O   0  0  0  0  0  0  0  0  0  0  0  0
   -3.7234    3.0649   -0.6329 O   0  0  0  0  0  0  0  0  0  0  0  0
    3.5379   -0.2288    0.3296 C   0  0  0  0  0  0  0  0  0  0  0  0
    4.8173    0.0044   -0.4764 C   0  0  0  0  0  0  0  0  0  0  0  0
    6.0103   -0.4187    0.3413 C   0  0  0  0  0  0  0  0  0  0  0  0
    6.5276   -1.4926    0.1442 O   0  0  0  0  0  0  0  0  0  0  0  0
    6.4982    0.3976    1.2886 O   0  0  0  0  0  0  0  0  0  0  0  0
    4.7671   -0.7852   -1.7141 N   0  0  0  0  0  0  0  0  0  0  0  0
    2.2633   -0.1999   -1.4069 H   0  0  0  0  0  0  0  0  0  0  0  0
    2.4703    1.3833   -0.6202 H   0  0  0  0  0  0  0  0  0  0  0  0
    0.9270   -0.9866    0.5281 H   0  0  0  0  0  0  0  0  0  0  0  0
    1.1340    0.5966    1.3148 H   0  0  0  0  0  0  0  0  0  0  0  0
   -0.0087    1.6938   -0.5928 H   0  0  0  0  0  0  0  0  0  0  0  0
   -0.2157    0.1106   -1.3795 H   0  0  0  0  0  0  0  0  0  0  0  0
   -1.4803   -0.5752    0.5793 H   0  0  0  0  0  0  0  0  0  0  0  0
   -2.4080    0.7640   -1.4375 H   0  0  0  0  0  0  0  0  0  0  0  0
   -3.8797    0.2337    1.1821 H   0  0  0  0  0  0  0  0  0  0  0  0
   -4.6753    0.5970   -0.3682 H   0  0  0  0  0  0  0  0  0  0  0  0
   -3.5929   -1.3868   -1.3887 H   0  0  0  0  0  0  0  0  0  0  0  0
   -2.7973   -1.7501    0.1616 H   0  0  0  0  0  0  0  0  0  0  0  0
   -5.8375   -3.8003    0.2196 H   0  0  0  0  0  0  0  0  0  0  0  0
   -3.7877    4.0058   -0.4194 H   0  0  0  0  0  0  0  0  0  0  0  0
    3.6129    0.2860    1.2874 H   0  0  0  0  0  0  0  0  0  0  0  0
    3.4059   -1.2972    0.5007 H   0  0  0  0  0  0  0  0  0  0  0  0
    4.9031    1.0625   -0.7238 H   0  0  0  0  0  0  0  0  0  0  0  0
    7.2646    0.0827    1.7872 H   0  0  0  0  0  0  0  0  0  0  0  0
    5.5712   -0.5993   -2.2946 H   0  0  0  0  0  0  0  0  0  0  0  0
    4.6874   -1.7704   -1.5115 H   0  0  0  0  0  0  0  0  0  0  0  0
  1  2  1  0  0  0  0
  2  3  1  0  0  0  0
  3  4  1  0  0  0  0
  4  5  1  0  0  0  0
  5  6  1  0  0  0  0
  6  7  1  0  0  0  0
  7  8  1  0  0  0  0
  8  9  2  0  0  0  0
  8 10  1  0  0  0  0
  5 11  1  0  0  0  0
 11 12  2  0  0  0  0
 11 13  1  0  0  0  0
  1 14  1  0  0  0  0
 14 15  1  0  0  0  0
 15 16  1  0  0  0  0
 16 17  2  0  0  0  0
 16 18  1  0  0  0  0
 15 19  1  0  0  0  0
  1 20  1  0  0  0  0
  1 21  1  0  0  0  0
  2 22  1  0  0  0  0
  2 23  1  0  0  0  0
  3 24  1  0  0  0  0
  3 25  1  0  0  0  0
  4 26  1  0  0  0  0
  5 27  1  0  0  0  0
  6 28  1  0  0  0  0
  6 29  1  0  0  0  0
  7 30  1  0  0  0  0
  7 31  1  0  0  0  0
 10 32  1  0  0  0  0
 13 33  1  0  0  0  0
 14 34  1  0  0  0  0
 14 35  1  0  0  0  0
 15 36  1  0  0  0  0
 18 37  1  0  0  0  0
 19 38  1  0  0  0  0
 19 39  1  0  0  0  0
M  END
$$$$
