C28H28O6
APtclcactv06281817293D 0   0.00000     0.00000
 
 62 66  0  0  0  0  0  0  0  0999 V2000
    4.3826   -3.5712   -0.1848 C   0  0  0  0  0  0  0  0  0  0  0  0
    3.0731   -3.4411   -0.9192 C   0  0  0  0  0  0  0  0  0  0  0  0
    2.1414   -2.6425   -0.4605 C   0  0  0  0  0  0  0  0  0  0  0  0
    2.4208   -1.7661    0.7331 C   0  0  0  0  0  0  0  0  0  0  0  0
    2.1091   -0.3327    0.3879 C   0  0  0  0  0  0  0  0  0  0  0  0
    0.8007    0.1453    0.4895 C   0  0  0  0  0  0  0  0  0  0  0  0
    0.4943    1.4794    0.1797 C   0  0  0  0  0  0  0  0  0  0  0  0
    1.5165    2.3332   -0.2333 C   0  0  0  0  0  0  0  0  0  0  0  0
    2.8202    1.8557   -0.3285 C   0  0  0  0  0  0  0  0  0  0  0  0
    3.1136    0.5141   -0.0241 C   0  0  0  0  0  0  0  0  0  0  0  0
    4.3878    0.0680   -0.1772 O   0  0  0  0  0  0  0  0  0  0  0  0
    5.4427    0.9918    0.0892 C   0  0  0  0  0  0  0  0  0  0  0  0
    5.1763    2.3133   -0.5816 C   0  0  0  0  0  0  0  0  0  0  0  0
    3.9281    2.7332   -0.7595 C   0  0  0  0  0  0  0  0  0  0  0  0
    5.5544    1.2070    1.5998 C   0  0  0  0  0  0  0  0  0  0  0  0
    6.7601    0.4170   -0.4355 C   0  0  0  0  0  0  0  0  0  0  0  0
    1.2404    3.6276   -0.5424 O   0  0  0  0  0  0  0  0  0  0  0  0
   -0.7681    1.9464    0.2818 O   0  0  0  0  0  0  0  0  0  0  0  0
   -1.8297    1.1183    0.3579 C   0  0  0  0  0  0  0  0  0  0  0  0
   -3.1054    1.6099    0.1066 C   0  0  0  0  0  0  0  0  0  0  0  0
   -4.2029    0.7749    0.1908 C   0  0  0  0  0  0  0  0  0  0  0  0
   -4.0423   -0.5789    0.5356 C   0  0  0  0  0  0  0  0  0  0  0  0
   -5.2459   -1.4326    0.6185 C   0  0  0  0  0  0  0  0  0  0  0  0
   -6.3658   -0.9926    0.0468 C   0  0  0  0  0  0  0  0  0  0  0  0
   -6.3741    0.3330   -0.6678 C   0  0  0  0  0  0  0  0  0  0  0  0
   -5.4544    1.2384   -0.0569 O   0  0  0  0  0  0  0  0  0  0  0  0
   -5.9770    0.1205   -2.1300 C   0  0  0  0  0  0  0  0  0  0  0  0
   -7.7823    0.9286   -0.6098 C   0  0  0  0  0  0  0  0  0  0  0  0
   -2.7726   -1.0902    0.7883 C   0  0  0  0  0  0  0  0  0  0  0  0
   -1.6645   -0.2399    0.6884 C   0  0  0  0  0  0  0  0  0  0  0  0
   -0.2994   -0.7471    0.9159 C   0  0  0  0  0  0  0  0  0  0  0  0
   -0.0898   -1.8338    1.4242 O   0  0  0  0  0  0  0  0  0  0  0  0
   -2.6111   -2.3931    1.1274 O   0  0  0  0  0  0  0  0  0  0  0  0
    2.8354   -4.2297   -2.1812 C   0  0  0  0  0  0  0  0  0  0  0  0
    4.1917   -3.8489    0.8518 H   0  0  0  0  0  0  0  0  0  0  0  0
    4.9912   -4.3400   -0.6607 H   0  0  0  0  0  0  0  0  0  0  0  0
    4.9119   -2.6188   -0.2143 H   0  0  0  0  0  0  0  0  0  0  0  0
    1.1731   -2.6122   -0.9379 H   0  0  0  0  0  0  0  0  0  0  0  0
    1.7976   -2.0821    1.5697 H   0  0  0  0  0  0  0  0  0  0  0  0
    3.4715   -1.8530    1.0097 H   0  0  0  0  0  0  0  0  0  0  0  0
    6.0026    2.9237   -0.9149 H   0  0  0  0  0  0  0  0  0  0  0  0
    3.7269    3.6905   -1.2172 H   0  0  0  0  0  0  0  0  0  0  0  0
    5.7693    0.2562    2.0874 H   0  0  0  0  0  0  0  0  0  0  0  0
    6.3591    1.9121    1.8079 H   0  0  0  0  0  0  0  0  0  0  0  0
    4.6142    1.6062    1.9804 H   0  0  0  0  0  0  0  0  0  0  0  0
    6.6819    0.2514   -1.5100 H   0  0  0  0  0  0  0  0  0  0  0  0
    7.5688    1.1196   -0.2341 H   0  0  0  0  0  0  0  0  0  0  0  0
    6.9681   -0.5293    0.0638 H   0  0  0  0  0  0  0  0  0  0  0  0
    1.3064    4.2339    0.2080 H   0  0  0  0  0  0  0  0  0  0  0  0
   -3.2393    2.6491   -0.1552 H   0  0  0  0  0  0  0  0  0  0  0  0
   -5.2182   -2.3850    1.1270 H   0  0  0  0  0  0  0  0  0  0  0  0
   -7.2667   -1.5861    0.0954 H   0  0  0  0  0  0  0  0  0  0  0  0
   -6.6882   -0.5551   -2.6052 H   0  0  0  0  0  0  0  0  0  0  0  0
   -5.9820    1.0781   -2.6507 H   0  0  0  0  0  0  0  0  0  0  0  0
   -4.9779   -0.3128   -2.1759 H   0  0  0  0  0  0  0  0  0  0  0  0
   -8.0732    1.0727    0.4308 H   0  0  0  0  0  0  0  0  0  0  0  0
   -7.7924    1.8885   -1.1261 H   0  0  0  0  0  0  0  0  0  0  0  0
   -8.4844    0.2489   -1.0926 H   0  0  0  0  0  0  0  0  0  0  0  0
   -2.4796   -2.9826    0.3723 H   0  0  0  0  0  0  0  0  0  0  0  0
    2.3896   -5.1921   -1.9298 H   0  0  0  0  0  0  0  0  0  0  0  0
    2.1603   -3.6760   -2.8338 H   0  0  0  0  0  0  0  0  0  0  0  0
    3.7842   -4.3912   -2.6928 H   0  0  0  0  0  0  0  0  0  0  0  0
  1  2  1  0  0  0  0
  2  3  2  0  0  0  0
  3  4  1  0  0  0  0
  4  5  1  0  0  0  0
  5  6  2  0  0  0  0
  6  7  1  0  0  0  0
  7  8  2  0  0  0  0
  8  9  1  0  0  0  0
  9 10  2  0  0  0  0
  5 10  1  0  0  0  0
 10 11  1  0  0  0  0
 11 12  1  0  0  0  0
 12 13  1  0  0  0  0
 13 14  2  0  0  0  0
  9 14  1  0  0  0  0
 12 15  1  0  0  0  0
 12 16  1  0  0  0  0
  8 17  1  0  0  0  0
  7 18  1  0  0  0  0
 18 19  1  0  0  0  0
 19 20  2  0  0  0  0
 20 21  1  0  0  0  0
 21 22  2  0  0  0  0
 22 23  1  0  0  0  0
 23 24  2  0  0  0  0
 24 25  1  0  0  0  0
 25 26  1  0  0  0  0
 21 26  1  0  0  0  0
 25 27  1  0  0  0  0
 25 28  1  0  0  0  0
 22 29  1  0  0  0  0
 29 30  2  0  0  0  0
 19 30  1  0  0  0  0
 30 31  1  0  0  0  0
  6 31  1  0  0  0  0
 31 32  2  0  0  0  0
 29 33  1  0  0  0  0
  2 34  1  0  0  0  0
  1 35  1  0  0  0  0
  1 36  1  0  0  0  0
  1 37  1  0  0  0  0
  3 38  1  0  0  0  0
  4 39  1  0  0  0  0
  4 40  1  0  0  0  0
 13 41  1  0  0  0  0
 14 42  1  0  0  0  0
 15 43  1  0  0  0  0
 15 44  1  0  0  0  0
 15 45  1  0  0  0  0
 16 46  1  0  0  0  0
 16 47  1  0  0  0  0
 16 48  1  0  0  0  0
 17 49  1  0  0  0  0
 20 50  1  0  0  0  0
 23 51  1  0  0  0  0
 24 52  1  0  0  0  0
 27 53  1  0  0  0  0
 27 54  1  0  0  0  0
 27 55  1  0  0  0  0
 28 56  1  0  0  0  0
 28 57  1  0  0  0  0
 28 58  1  0  0  0  0
 33 59  1  0  0  0  0
 34 60  1  0  0  0  0
 34 61  1  0  0  0  0
 34 62  1  0  0  0  0
M  END
$$$$
