C14H16O
APtclcactv06281817293D 0   0.00000     0.00000
 
 31 32  0  0  0  0  0  0  0  0999 V2000
    1.5165    3.0974    0.0269 C   0  0  0  0  0  0  0  0  0  0  0  0
    0.4798    2.0037    0.0126 C   0  0  0  0  0  0  0  0  0  0  0  0
    0.8757    0.6554   -0.0063 C   0  0  0  0  0  0  0  0  0  0  0  0
    2.2332    0.2947   -0.0110 C   0  0  0  0  0  0  0  0  0  0  0  0
    2.5807   -1.0259   -0.0286 C   0  0  0  0  0  0  0  0  0  0  0  0
    1.6024   -2.0252   -0.0424 C   0  0  0  0  0  0  0  0  0  0  0  0
    0.2800   -1.7089   -0.0381 C   0  0  0  0  0  0  0  0  0  0  0  0
   -0.1142   -0.3594   -0.0197 C   0  0  0  0  0  0  0  0  0  0  0  0
   -1.4715    0.0027   -0.0143 C   0  0  0  0  0  0  0  0  0  0  0  0
   -1.8177    1.3192    0.0041 C   0  0  0  0  0  0  0  0  0  0  0  0
   -0.8450    2.3166    0.0235 C   0  0  0  0  0  0  0  0  0  0  0  0
   -2.5391   -1.0608   -0.0292 C   0  0  0  0  0  0  0  0  0  0  0  0
   -3.3271   -1.0110    1.2813 C   0  0  0  0  0  0  0  0  0  0  0  0
   -3.4876   -0.8149   -1.2043 C   0  0  0  0  0  0  0  0  0  0  0  0
    3.8944   -1.3735   -0.0332 O   0  0  0  0  0  0  0  0  0  0  0  0
    1.7657    3.3752   -0.9972 H   0  0  0  0  0  0  0  0  0  0  0  0
    1.1208    3.9662    0.5531 H   0  0  0  0  0  0  0  0  0  0  0  0
    2.4127    2.7418    0.5353 H   0  0  0  0  0  0  0  0  0  0  0  0
    2.9978    1.0574   -0.0013 H   0  0  0  0  0  0  0  0  0  0  0  0
    1.9016   -3.0629   -0.0569 H   0  0  0  0  0  0  0  0  0  0  0  0
   -0.4646   -2.4911   -0.0493 H   0  0  0  0  0  0  0  0  0  0  0  0
   -2.8620    1.5946    0.0082 H   0  0  0  0  0  0  0  0  0  0  0  0
   -1.1465    3.3536    0.0378 H   0  0  0  0  0  0  0  0  0  0  0  0
   -2.0741   -2.0408   -0.1366 H   0  0  0  0  0  0  0  0  0  0  0  0
   -4.0992   -1.7802    1.2705 H   0  0  0  0  0  0  0  0  0  0  0  0
   -2.6513   -1.1862    2.1184 H   0  0  0  0  0  0  0  0  0  0  0  0
   -3.7920   -0.0310    1.3886 H   0  0  0  0  0  0  0  0  0  0  0  0
   -2.9262   -0.8504   -2.1379 H   0  0  0  0  0  0  0  0  0  0  0  0
   -4.2597   -1.5841   -1.2151 H   0  0  0  0  0  0  0  0  0  0  0  0
   -3.9525    0.1651   -1.0970 H   0  0  0  0  0  0  0  0  0  0  0  0
    4.2746   -1.4859    0.8487 H   0  0  0  0  0  0  0  0  0  0  0  0
  1  2  1  0  0  0  0
  2  3  2  0  0  0  0
  3  4  1  0  0  0  0
  4  5  2  0  0  0  0
  5  6  1  0  0  0  0
  6  7  2  0  0  0  0
  7  8  1  0  0  0  0
  3  8  1  0  0  0  0
  8  9  2  0  0  0  0
  9 10  1  0  0  0  0
 10 11  2  0  0  0  0
  2 11  1  0  0  0  0
  9 12  1  0  0  0  0
 12 13  1  0  0  0  0
 12 14  1  0  0  0  0
  5 15  1  0  0  0  0
  1 16  1  0  0  0  0
  1 17  1  0  0  0  0
  1 18  1  0  0  0  0
  4 19  1  0  0  0  0
  6 20  1  0  0  0  0
  7 21  1  0  0  0  0
 10 22  1  0  0  0  0
 11 23  1  0  0  0  0
 12 24  1  0  0  0  0
 13 25  1  0  0  0  0
 13 26  1  0  0  0  0
 13 27  1  0  0  0  0
 14 28  1  0  0  0  0
 14 29  1  0  0  0  0
 14 30  1  0  0  0  0
 15 31  1  0  0  0  0
M  END
$$$$
