C21H26O6
APtclcactv06281817303D 0   0.00000     0.00000
 
 53 54  0  0  0  0  0  0  0  0999 V2000
   -2.4214   -1.2159    2.5598 C   0  0  0  0  0  0  0  0  0  0  0  0
   -2.7642   -0.0310    1.6939 C   0  0  0  0  0  0  0  0  0  0  0  0
   -1.8098    0.6584    1.1194 C   0  0  0  0  0  0  0  0  0  0  0  0
   -0.3789    0.1974    1.2251 C   0  0  0  0  0  0  0  0  0  0  0  0
    0.2310    0.2375   -0.0666 O   0  0  0  0  0  0  0  0  0  0  0  0
    1.5314   -0.1501   -0.1473 C   0  0  0  0  0  0  0  0  0  0  0  0
    1.8415   -1.4896   -0.3906 C   0  0  0  0  0  0  0  0  0  0  0  0
    3.1574   -1.8937   -0.4744 C   0  0  0  0  0  0  0  0  0  0  0  0
    4.1834   -0.9545   -0.3149 C   0  0  0  0  0  0  0  0  0  0  0  0
    5.5896   -1.3547   -0.3994 C   0  0  0  0  0  0  0  0  0  0  0  0
    6.5404   -0.3982   -0.2365 C   0  0  0  0  0  0  0  0  0  0  0  0
    6.1576    0.9368    0.0064 C   0  0  0  0  0  0  0  0  0  0  0  0
    7.0201    1.7848    0.1503 O   0  0  0  0  0  0  0  0  0  0  0  0
    4.8674    1.2972    0.0827 O   0  0  0  0  0  0  0  0  0  0  0  0
    3.8724    0.3952   -0.0701 C   0  0  0  0  0  0  0  0  0  0  0  0
    2.5407    0.7889    0.0070 C   0  0  0  0  0  0  0  0  0  0  0  0
    2.2282    2.0930    0.2386 O   0  0  0  0  0  0  0  0  0  0  0  0
    2.0719    2.9356   -0.9049 C   0  0  0  0  0  0  0  0  0  0  0  0
    0.8421   -2.3993   -0.5451 O   0  0  0  0  0  0  0  0  0  0  0  0
    1.2291   -3.7526   -0.7916 C   0  0  0  0  0  0  0  0  0  0  0  0
   -4.2049    0.3607    1.4889 C   0  0  0  0  0  0  0  0  0  0  0  0
   -4.7992   -0.4620    0.3440 C   0  0  0  0  0  0  0  0  0  0  0  0
   -6.2398   -0.0703    0.1390 C   0  0  0  0  0  0  0  0  0  0  0  0
   -6.6347    0.3895   -1.0223 C   0  0  0  0  0  0  0  0  0  0  0  0
   -5.6262    0.6541   -2.1104 C   0  0  0  0  0  0  0  0  0  0  0  0
   -8.0975    0.6538   -1.2702 C   0  0  0  0  0  0  0  0  0  0  0  0
   -8.8459    0.3278   -0.0974 O   0  0  0  0  0  0  0  0  0  0  0  0
   -1.7293   -0.9057    3.3426 H   0  0  0  0  0  0  0  0  0  0  0  0
   -3.3308   -1.6093    3.0138 H   0  0  0  0  0  0  0  0  0  0  0  0
   -1.9561   -1.9896    1.9491 H   0  0  0  0  0  0  0  0  0  0  0  0
   -2.0485    1.5571    0.5701 H   0  0  0  0  0  0  0  0  0  0  0  0
    0.1650    0.8537    1.9043 H   0  0  0  0  0  0  0  0  0  0  0  0
   -0.3532   -0.8230    1.6075 H   0  0  0  0  0  0  0  0  0  0  0  0
    3.3955   -2.9304   -0.6620 H   0  0  0  0  0  0  0  0  0  0  0  0
    5.8633   -2.3827   -0.5858 H   0  0  0  0  0  0  0  0  0  0  0  0
    7.5868   -0.6598   -0.2925 H   0  0  0  0  0  0  0  0  0  0  0  0
    1.8247    3.9463   -0.5803 H   0  0  0  0  0  0  0  0  0  0  0  0
    3.0022    2.9537   -1.4727 H   0  0  0  0  0  0  0  0  0  0  0  0
    1.2698    2.5495   -1.5338 H   0  0  0  0  0  0  0  0  0  0  0  0
    0.3383   -4.3722   -0.8949 H   0  0  0  0  0  0  0  0  0  0  0  0
    1.8143   -3.8017   -1.7098 H   0  0  0  0  0  0  0  0  0  0  0  0
    1.8299   -4.1163    0.0420 H   0  0  0  0  0  0  0  0  0  0  0  0
   -4.7668    0.1701    2.4032 H   0  0  0  0  0  0  0  0  0  0  0  0
   -4.2615    1.4209    1.2420 H   0  0  0  0  0  0  0  0  0  0  0  0
   -4.2372   -0.2714   -0.5703 H   0  0  0  0  0  0  0  0  0  0  0  0
   -4.7425   -1.5222    0.5909 H   0  0  0  0  0  0  0  0  0  0  0  0
   -6.9468   -0.1686    0.9496 H   0  0  0  0  0  0  0  0  0  0  0  0
   -5.4290   -0.2692   -2.6553 H   0  0  0  0  0  0  0  0  0  0  0  0
   -6.0202    1.4038   -2.7965 H   0  0  0  0  0  0  0  0  0  0  0  0
   -4.7000    1.0189   -1.6665 H   0  0  0  0  0  0  0  0  0  0  0  0
   -8.2406    1.7071   -1.5115 H   0  0  0  0  0  0  0  0  0  0  0  0
   -8.4415    0.0404   -2.1030 H   0  0  0  0  0  0  0  0  0  0  0  0
   -9.7978    0.4737   -0.1851 H   0  0  0  0  0  0  0  0  0  0  0  0
  1  2  1  0  0  0  0
  2  3  2  0  0  0  0
  3  4  1  0  0  0  0
  4  5  1  0  0  0  0
  5  6  1  0  0  0  0
  6  7  2  0  0  0  0
  7  8  1  0  0  0  0
  8  9  2  0  0  0  0
  9 10  1  0  0  0  0
 10 11  2  0  0  0  0
 11 12  1  0  0  0  0
 12 13  2  0  0  0  0
 12 14  1  0  0  0  0
 14 15  1  0  0  0  0
  9 15  1  0  0  0  0
 15 16  2  0  0  0  0
  6 16  1  0  0  0  0
 16 17  1  0  0  0  0
 17 18  1  0  0  0  0
  7 19  1  0  0  0  0
 19 20  1  0  0  0  0
  2 21  1  0  0  0  0
 21 22  1  0  0  0  0
 22 23  1  0  0  0  0
 23 24  2  0  0  0  0
 24 25  1  0  0  0  0
 24 26  1  0  0  0  0
 26 27  1  0  0  0  0
  1 28  1  0  0  0  0
  1 29  1  0  0  0  0
  1 30  1  0  0  0  0
  3 31  1  0  0  0  0
  4 32  1  0  0  0  0
  4 33  1  0  0  0  0
  8 34  1  0  0  0  0
 10 35  1  0  0  0  0
 11 36  1  0  0  0  0
 18 37  1  0  0  0  0
 18 38  1  0  0  0  0
 18 39  1  0  0  0  0
 20 40  1  0  0  0  0
 20 41  1  0  0  0  0
 20 42  1  0  0  0  0
 21 43  1  0  0  0  0
 21 44  1  0  0  0  0
 22 45  1  0  0  0  0
 22 46  1  0  0  0  0
 23 47  1  0  0  0  0
 25 48  1  0  0  0  0
 25 49  1  0  0  0  0
 25 50  1  0  0  0  0
 26 51  1  0  0  0  0
 26 52  1  0  0  0  0
 27 53  1  0  0  0  0
M  END
$$$$
