C7H14O2
APtclcactv06211804473D 0   0.00000     0.00000
 
 23 22  0  0  0  0  0  0  0  0999 V2000
    4.4087   -0.2521   -0.0000 C   0  0  0  0  0  0  0  0  0  0  0  0
    3.1828    0.6633    0.0000 C   0  0  0  0  0  0  0  0  0  0  0  0
    1.9111   -0.1873   -0.0000 C   0  0  0  0  0  0  0  0  0  0  0  0
    0.6852    0.7282    0.0000 C   0  0  0  0  0  0  0  0  0  0  0  0
   -0.5675   -0.1096   -0.0000 C   0  0  0  0  0  0  0  0  0  0  0  0
   -0.4879   -1.3152   -0.0000 O   0  0  0  0  0  0  0  0  0  0  0  0
   -1.7716    0.4835    0.0000 O   0  0  0  0  0  0  0  0  0  0  0  0
   -2.9346   -0.3858    0.0000 C   0  0  0  0  0  0  0  0  0  0  0  0
   -4.2067    0.4643   -0.0000 C   0  0  0  0  0  0  0  0  0  0  0  0
    4.3924   -0.8812    0.8900 H   0  0  0  0  0  0  0  0  0  0  0  0
    4.3924   -0.8812   -0.8900 H   0  0  0  0  0  0  0  0  0  0  0  0
    5.3147    0.3538    0.0000 H   0  0  0  0  0  0  0  0  0  0  0  0
    3.1992    1.2924    0.8900 H   0  0  0  0  0  0  0  0  0  0  0  0
    3.1992    1.2924   -0.8900 H   0  0  0  0  0  0  0  0  0  0  0  0
    1.8947   -0.8164   -0.8900 H   0  0  0  0  0  0  0  0  0  0  0  0
    1.8947   -0.8164    0.8900 H   0  0  0  0  0  0  0  0  0  0  0  0
    0.7015    1.3573    0.8900 H   0  0  0  0  0  0  0  0  0  0  0  0
    0.7015    1.3573   -0.8900 H   0  0  0  0  0  0  0  0  0  0  0  0
   -2.9180   -1.0149   -0.8900 H   0  0  0  0  0  0  0  0  0  0  0  0
   -2.9180   -1.0149    0.8900 H   0  0  0  0  0  0  0  0  0  0  0  0
   -5.0798   -0.1883    0.0000 H   0  0  0  0  0  0  0  0  0  0  0  0
   -4.2233    1.0934    0.8900 H   0  0  0  0  0  0  0  0  0  0  0  0
   -4.2233    1.0934   -0.8900 H   0  0  0  0  0  0  0  0  0  0  0  0
  1  2  1  0  0  0  0
  2  3  1  0  0  0  0
  3  4  1  0  0  0  0
  4  5  1  0  0  0  0
  5  6  2  0  0  0  0
  5  7  1  0  0  0  0
  7  8  1  0  0  0  0
  8  9  1  0  0  0  0
  1 10  1  0  0  0  0
  1 11  1  0  0  0  0
  1 12  1  0  0  0  0
  2 13  1  0  0  0  0
  2 14  1  0  0  0  0
  3 15  1  0  0  0  0
  3 16  1  0  0  0  0
  4 17  1  0  0  0  0
  4 18  1  0  0  0  0
  8 19  1  0  0  0  0
  8 20  1  0  0  0  0
  9 21  1  0  0  0  0
  9 22  1  0  0  0  0
  9 23  1  0  0  0  0
M  END
$$$$
