C22H31NO3
APtclcactv06281817303D 0   0.00000     0.00000
 
 57 58  0  0  0  0  0  0  0  0999 V2000
   11.8796    0.9923   -0.2478 C   0  0  0  0  0  0  0  0  0  0  0  0
   10.4568    1.3256    0.2053 C   0  0  0  0  0  0  0  0  0  0  0  0
   10.0276    2.6621   -0.4034 C   0  0  0  0  0  0  0  0  0  0  0  0
    9.5023    0.2237   -0.2592 C   0  0  0  0  0  0  0  0  0  0  0  0
    8.1627    0.4807    0.2753 N   0  0  0  0  0  0  0  0  0  0  0  0
    7.1516   -0.3651   -0.0053 C   0  0  0  0  0  0  0  0  0  0  0  0
    7.3514   -1.3424   -0.7027 O   0  0  0  0  0  0  0  0  0  0  0  0
    5.8142   -0.1086    0.5284 C   0  0  0  0  0  0  0  0  0  0  0  0
    4.8000   -0.9569    0.2470 C   0  0  0  0  0  0  0  0  0  0  0  0
    3.4619   -0.7002    0.7810 C   0  0  0  0  0  0  0  0  0  0  0  0
    2.4610   -1.5374    0.5033 C   0  0  0  0  0  0  0  0  0  0  0  0
    1.0830   -1.2731    1.0531 C   0  0  0  0  0  0  0  0  0  0  0  0
    0.0741   -1.2338   -0.0965 C   0  0  0  0  0  0  0  0  0  0  0  0
   -1.3249   -0.9655    0.4618 C   0  0  0  0  0  0  0  0  0  0  0  0
   -2.3338   -0.9261   -0.6878 C   0  0  0  0  0  0  0  0  0  0  0  0
   -3.7328   -0.6578   -0.1295 C   0  0  0  0  0  0  0  0  0  0  0  0
   -4.7417   -0.6185   -1.2791 C   0  0  0  0  0  0  0  0  0  0  0  0
   -6.1197   -0.3542   -0.7292 C   0  0  0  0  0  0  0  0  0  0  0  0
   -6.5710    0.9455   -0.5947 C   0  0  0  0  0  0  0  0  0  0  0  0
   -7.8376    1.1909   -0.0898 C   0  0  0  0  0  0  0  0  0  0  0  0
   -8.6538    0.1252    0.2813 C   0  0  0  0  0  0  0  0  0  0  0  0
   -8.1946   -1.1747    0.1443 C   0  0  0  0  0  0  0  0  0  0  0  0
   -6.9320   -1.4122   -0.3658 C   0  0  0  0  0  0  0  0  0  0  0  0
   -9.8381    0.6229    0.7429 O   0  0  0  0  0  0  0  0  0  0  0  0
   -9.8948    1.9816    0.2696 C   0  0  0  0  0  0  0  0  0  0  0  0
   -8.5106    2.3562    0.1392 O   0  0  0  0  0  0  0  0  0  0  0  0
   12.5596    1.7773    0.0831 H   0  0  0  0  0  0  0  0  0  0  0  0
   12.1854    0.0402    0.1858 H   0  0  0  0  0  0  0  0  0  0  0  0
   11.9076    0.9220   -1.3352 H   0  0  0  0  0  0  0  0  0  0  0  0
   10.4288    1.3959    1.2927 H   0  0  0  0  0  0  0  0  0  0  0  0
   10.0555    2.5918   -1.4907 H   0  0  0  0  0  0  0  0  0  0  0  0
    9.0139    2.8996   -0.0805 H   0  0  0  0  0  0  0  0  0  0  0  0
   10.7075    3.4471   -0.0724 H   0  0  0  0  0  0  0  0  0  0  0  0
    9.4629    0.2126   -1.3484 H   0  0  0  0  0  0  0  0  0  0  0  0
    9.8585   -0.7413    0.1014 H   0  0  0  0  0  0  0  0  0  0  0  0
    8.0035    1.2595    0.8312 H   0  0  0  0  0  0  0  0  0  0  0  0
    5.6369    0.7586    1.1473 H   0  0  0  0  0  0  0  0  0  0  0  0
    4.9773   -1.8240   -0.3719 H   0  0  0  0  0  0  0  0  0  0  0  0
    3.2846    0.1669    1.3998 H   0  0  0  0  0  0  0  0  0  0  0  0
    2.6383   -2.4046   -0.1156 H   0  0  0  0  0  0  0  0  0  0  0  0
    0.8108   -2.0672    1.7484 H   0  0  0  0  0  0  0  0  0  0  0  0
    1.0773   -0.3159    1.5745 H   0  0  0  0  0  0  0  0  0  0  0  0
    0.3463   -0.4397   -0.7918 H   0  0  0  0  0  0  0  0  0  0  0  0
    0.0799   -2.1910   -0.6178 H   0  0  0  0  0  0  0  0  0  0  0  0
   -1.5971   -1.7595    1.1571 H   0  0  0  0  0  0  0  0  0  0  0  0
   -1.3306   -0.0082    0.9831 H   0  0  0  0  0  0  0  0  0  0  0  0
   -2.0616   -0.1321   -1.3831 H   0  0  0  0  0  0  0  0  0  0  0  0
   -2.3281   -1.8833   -1.2091 H   0  0  0  0  0  0  0  0  0  0  0  0
   -4.0050   -1.4519    0.5658 H   0  0  0  0  0  0  0  0  0  0  0  0
   -3.7385    0.2994    0.3918 H   0  0  0  0  0  0  0  0  0  0  0  0
   -4.4695    0.1756   -1.9744 H   0  0  0  0  0  0  0  0  0  0  0  0
   -4.7360   -1.5757   -1.8004 H   0  0  0  0  0  0  0  0  0  0  0  0
   -5.9358    1.7700   -0.8829 H   0  0  0  0  0  0  0  0  0  0  0  0
   -8.8255   -2.0030    0.4313 H   0  0  0  0  0  0  0  0  0  0  0  0
   -6.5758   -2.4263   -0.4722 H   0  0  0  0  0  0  0  0  0  0  0  0
  -10.3973    2.0300   -0.6964 H   0  0  0  0  0  0  0  0  0  0  0  0
  -10.3974    2.6197    0.9964 H   0  0  0  0  0  0  0  0  0  0  0  0
  1  2  1  0  0  0  0
  2  3  1  0  0  0  0
  2  4  1  0  0  0  0
  4  5  1  0  0  0  0
  5  6  1  0  0  0  0
  6  7  2  0  0  0  0
  6  8  1  0  0  0  0
  8  9  2  0  0  0  0
  9 10  1  0  0  0  0
 10 11  2  0  0  0  0
 11 12  1  0  0  0  0
 12 13  1  0  0  0  0
 13 14  1  0  0  0  0
 14 15  1  0  0  0  0
 15 16  1  0  0  0  0
 16 17  1  0  0  0  0
 17 18  1  0  0  0  0
 18 19  2  0  0  0  0
 19 20  1  0  0  0  0
 20 21  2  0  0  0  0
 21 22  1  0  0  0  0
 22 23  2  0  0  0  0
 18 23  1  0  0  0  0
 21 24  1  0  0  0  0
 24 25  1  0  0  0  0
 25 26  1  0  0  0  0
 20 26  1  0  0  0  0
  1 27  1  0  0  0  0
  1 28  1  0  0  0  0
  1 29  1  0  0  0  0
  2 30  1  0  0  0  0
  3 31  1  0  0  0  0
  3 32  1  0  0  0  0
  3 33  1  0  0  0  0
  4 34  1  0  0  0  0
  4 35  1  0  0  0  0
  5 36  1  0  0  0  0
  8 37  1  0  0  0  0
  9 38  1  0  0  0  0
 10 39  1  0  0  0  0
 11 40  1  0  0  0  0
 12 41  1  0  0  0  0
 12 42  1  0  0  0  0
 13 43  1  0  0  0  0
 13 44  1  0  0  0  0
 14 45  1  0  0  0  0
 14 46  1  0  0  0  0
 15 47  1  0  0  0  0
 15 48  1  0  0  0  0
 16 49  1  0  0  0  0
 16 50  1  0  0  0  0
 17 51  1  0  0  0  0
 17 52  1  0  0  0  0
 19 53  1  0  0  0  0
 22 54  1  0  0  0  0
 23 55  1  0  0  0  0
 25 56  1  0  0  0  0
 25 57  1  0  0  0  0
M  END
$$$$
