C20H20O7
APtclcactv06281817303D 0   0.00000     0.00000
 
 47 49  0  0  0  0  0  0  0  0999 V2000
   -4.8776    3.1008    1.5927 C   0  0  0  0  0  0  0  0  0  0  0  0
   -4.6466    2.2713    0.3280 C   0  0  0  0  0  0  0  0  0  0  0  0
   -4.0315    3.1569   -0.7575 C   0  0  0  0  0  0  0  0  0  0  0  0
   -3.6951    1.1153    0.6430 C   0  0  0  0  0  0  0  0  0  0  0  0
   -3.3656    0.3602   -0.6463 C   0  0  0  0  0  0  0  0  0  0  0  0
   -2.4283   -0.7783   -0.3360 C   0  0  0  0  0  0  0  0  0  0  0  0
   -2.9386   -2.0243   -0.0101 C   0  0  0  0  0  0  0  0  0  0  0  0
   -2.0896   -3.0880    0.2782 C   0  0  0  0  0  0  0  0  0  0  0  0
   -0.7192   -2.9085    0.2451 C   0  0  0  0  0  0  0  0  0  0  0  0
   -0.1975   -1.6496   -0.0768 C   0  0  0  0  0  0  0  0  0  0  0  0
   -1.0553   -0.5778   -0.3830 C   0  0  0  0  0  0  0  0  0  0  0  0
   -0.5528    0.6270   -0.7138 O   0  0  0  0  0  0  0  0  0  0  0  0
    0.7189    0.9402   -0.4620 C   0  0  0  0  0  0  0  0  0  0  0  0
    1.6653    0.0133   -0.1641 C   0  0  0  0  0  0  0  0  0  0  0  0
    1.2545   -1.4047   -0.1040 C   0  0  0  0  0  0  0  0  0  0  0  0
    2.0667   -2.3135   -0.0711 O   0  0  0  0  0  0  0  0  0  0  0  0
    3.0712    0.4124    0.0889 C   0  0  0  0  0  0  0  0  0  0  0  0
    3.8985    0.7795   -0.9770 C   0  0  0  0  0  0  0  0  0  0  0  0
    5.2099    1.1510   -0.7345 C   0  0  0  0  0  0  0  0  0  0  0  0
    5.7005    1.1581    0.5628 C   0  0  0  0  0  0  0  0  0  0  0  0
    4.8795    0.7937    1.6218 C   0  0  0  0  0  0  0  0  0  0  0  0
    3.5696    0.4281    1.3897 C   0  0  0  0  0  0  0  0  0  0  0  0
    6.9885    1.5223    0.7982 O   0  0  0  0  0  0  0  0  0  0  0  0
    3.4167    0.7711   -2.2475 O   0  0  0  0  0  0  0  0  0  0  0  0
    0.1132   -3.9436    0.5228 O   0  0  0  0  0  0  0  0  0  0  0  0
   -4.2828   -2.2094    0.0290 O   0  0  0  0  0  0  0  0  0  0  0  0
   -5.8941    1.7491   -0.1336 O   0  0  0  0  0  0  0  0  0  0  0  0
   -5.5555    3.9243    1.3683 H   0  0  0  0  0  0  0  0  0  0  0  0
   -5.3159    2.4699    2.3660 H   0  0  0  0  0  0  0  0  0  0  0  0
   -3.9261    3.4991    1.9448 H   0  0  0  0  0  0  0  0  0  0  0  0
   -3.0799    3.5552   -0.4054 H   0  0  0  0  0  0  0  0  0  0  0  0
   -3.8669    2.5660   -1.6585 H   0  0  0  0  0  0  0  0  0  0  0  0
   -4.7094    3.9804   -0.9819 H   0  0  0  0  0  0  0  0  0  0  0  0
   -2.7766    1.5091    1.0783 H   0  0  0  0  0  0  0  0  0  0  0  0
   -4.1704    0.4360    1.3506 H   0  0  0  0  0  0  0  0  0  0  0  0
   -4.2840   -0.0335   -1.0816 H   0  0  0  0  0  0  0  0  0  0  0  0
   -2.8903    1.0396   -1.3539 H   0  0  0  0  0  0  0  0  0  0  0  0
   -2.5014   -4.0546    0.5283 H   0  0  0  0  0  0  0  0  0  0  0  0
    1.0097    1.9797   -0.4971 H   0  0  0  0  0  0  0  0  0  0  0  0
    5.8513    1.4350   -1.5558 H   0  0  0  0  0  0  0  0  0  0  0  0
    5.2661    0.8008    2.6302 H   0  0  0  0  0  0  0  0  0  0  0  0
    2.9333    0.1455    2.2154 H   0  0  0  0  0  0  0  0  0  0  0  0
    7.1067    2.4686    0.9580 H   0  0  0  0  0  0  0  0  0  0  0  0
    3.0219    1.6095   -2.5240 H   0  0  0  0  0  0  0  0  0  0  0  0
    0.3631   -4.4660   -0.2516 H   0  0  0  0  0  0  0  0  0  0  0  0
   -4.6659   -2.4890   -0.8137 H   0  0  0  0  0  0  0  0  0  0  0  0
   -6.3415    1.1771    0.5049 H   0  0  0  0  0  0  0  0  0  0  0  0
  1  2  1  0  0  0  0
  2  3  1  0  0  0  0
  2  4  1  0  0  0  0
  4  5  1  0  0  0  0
  5  6  1  0  0  0  0
  6  7  2  0  0  0  0
  7  8  1  0  0  0  0
  8  9  2  0  0  0  0
  9 10  1  0  0  0  0
 10 11  2  0  0  0  0
  6 11  1  0  0  0  0
 11 12  1  0  0  0  0
 12 13  1  0  0  0  0
 13 14  2  0  0  0  0
 14 15  1  0  0  0  0
 10 15  1  0  0  0  0
 15 16  2  0  0  0  0
 14 17  1  0  0  0  0
 17 18  2  0  0  0  0
 18 19  1  0  0  0  0
 19 20  2  0  0  0  0
 20 21  1  0  0  0  0
 21 22  2  0  0  0  0
 17 22  1  0  0  0  0
 20 23  1  0  0  0  0
 18 24  1  0  0  0  0
  9 25  1  0  0  0  0
  7 26  1  0  0  0  0
  2 27  1  0  0  0  0
  1 28  1  0  0  0  0
  1 29  1  0  0  0  0
  1 30  1  0  0  0  0
  3 31  1  0  0  0  0
  3 32  1  0  0  0  0
  3 33  1  0  0  0  0
  4 34  1  0  0  0  0
  4 35  1  0  0  0  0
  5 36  1  0  0  0  0
  5 37  1  0  0  0  0
  8 38  1  0  0  0  0
 13 39  1  0  0  0  0
 19 40  1  0  0  0  0
 21 41  1  0  0  0  0
 22 42  1  0  0  0  0
 23 43  1  0  0  0  0
 24 44  1  0  0  0  0
 25 45  1  0  0  0  0
 26 46  1  0  0  0  0
 27 47  1  0  0  0  0
M  END
$$$$
