C9H7NOS
APtclcactv06281817303D 0   0.00000     0.00000
 
 19 20  0  0  0  0  0  0  0  0999 V2000
   -3.2567    0.9094    0.0134 C   0  0  0  0  0  0  0  0  0  0  0  0
   -3.4933   -0.4560    0.0068 C   0  0  0  0  0  0  0  0  0  0  0  0
   -2.4433   -1.3507   -0.0034 C   0  0  0  0  0  0  0  0  0  0  0  0
   -1.1339   -0.8851   -0.0072 C   0  0  0  0  0  0  0  0  0  0  0  0
   -0.8965    0.4975   -0.0005 C   0  0  0  0  0  0  0  0  0  0  0  0
   -1.9639    1.3901    0.0098 C   0  0  0  0  0  0  0  0  0  0  0  0
    0.5714    0.6631   -0.0068 C   0  0  0  0  0  0  0  0  0  0  0  0
    1.1071   -0.6259   -0.0168 C   0  0  0  0  0  0  0  0  0  0  0  0
    0.0920   -1.5301   -0.0169 N   0  0  0  0  0  0  0  0  0  0  0  0
    2.8248   -1.0184   -0.0275 S   0  0  0  0  0  0  0  0  0  0  0  0
    1.2846    1.8739   -0.0041 C   0  0  0  0  0  0  0  0  0  0  0  0
    2.5001    1.8633   -0.0101 O   0  0  0  0  0  0  0  0  0  0  0  0
   -4.0875    1.5995    0.0170 H   0  0  0  0  0  0  0  0  0  0  0  0
   -4.5090   -0.8231    0.0101 H   0  0  0  0  0  0  0  0  0  0  0  0
   -2.6389   -2.4129   -0.0081 H   0  0  0  0  0  0  0  0  0  0  0  0
   -1.7809    2.4545    0.0146 H   0  0  0  0  0  0  0  0  0  0  0  0
    0.2097   -2.4929   -0.0227 H   0  0  0  0  0  0  0  0  0  0  0  0
    3.0703   -1.0809    1.3596 H   0  0  0  0  0  0  0  0  0  0  0  0
    0.7527    2.8138    0.0032 H   0  0  0  0  0  0  0  0  0  0  0  0
  1  2  2  0  0  0  0
  2  3  1  0  0  0  0
  3  4  2  0  0  0  0
  4  5  1  0  0  0  0
  5  6  2  0  0  0  0
  1  6  1  0  0  0  0
  5  7  1  0  0  0  0
  7  8  2  0  0  0  0
  8  9  1  0  0  0  0
  4  9  1  0  0  0  0
  8 10  1  0  0  0  0
  7 11  1  0  0  0  0
 11 12  2  0  0  0  0
  1 13  1  0  0  0  0
  2 14  1  0  0  0  0
  3 15  1  0  0  0  0
  6 16  1  0  0  0  0
  9 17  1  0  0  0  0
 10 18  1  0  0  0  0
 11 19  1  0  0  0  0
M  END
$$$$
