C18H30O4
APtclcactv06281817303D 0   0.00000     0.00000
 
 52 52  0  0  0  0  0  0  0  0999 V2000
   -8.9883    3.1747    0.9147 C   0  0  0  0  0  0  0  0  0  0  0  0
   -9.1193    1.9534    0.0026 C   0  0  0  0  0  0  0  0  0  0  0  0
   -7.7888    1.6634   -0.6429 C   0  0  0  0  0  0  0  0  0  0  0  0
   -7.2487    0.4757   -0.5255 C   0  0  0  0  0  0  0  0  0  0  0  0
   -5.9181    0.1858   -1.1710 C   0  0  0  0  0  0  0  0  0  0  0  0
   -4.9423   -0.3376   -0.1152 C   0  0  0  0  0  0  0  0  0  0  0  0
   -3.5638   -0.8040   -0.5874 C   0  0  0  0  0  0  0  0  0  0  0  0
   -3.7544    0.4189    0.1269 O   0  0  0  0  0  0  0  0  0  0  0  0
   -2.9120   -1.9706    0.1577 C   0  0  0  0  0  0  0  0  0  0  0  0
   -1.5205   -2.1931   -0.3764 C   0  0  0  0  0  0  0  0  0  0  0  0
   -0.4969   -2.1901    0.4411 C   0  0  0  0  0  0  0  0  0  0  0  0
    0.8946   -2.4126   -0.0930 C   0  0  0  0  0  0  0  0  0  0  0  0
    1.7956   -1.2511    0.3314 C   0  0  0  0  0  0  0  0  0  0  0  0
    3.2083   -1.4770   -0.2108 C   0  0  0  0  0  0  0  0  0  0  0  0
    4.1093   -0.3155    0.2136 C   0  0  0  0  0  0  0  0  0  0  0  0
    5.5220   -0.5414   -0.3286 C   0  0  0  0  0  0  0  0  0  0  0  0
    6.4230    0.6201    0.0958 C   0  0  0  0  0  0  0  0  0  0  0  0
    7.8357    0.3942   -0.4464 C   0  0  0  0  0  0  0  0  0  0  0  0
    8.7231    1.5382   -0.0284 C   0  0  0  0  0  0  0  0  0  0  0  0
    8.2719    2.4415    0.6352 O   0  0  0  0  0  0  0  0  0  0  0  0
   10.0148    1.5537   -0.3932 O   0  0  0  0  0  0  0  0  0  0  0  0
   -2.8440   -1.6666    1.5523 O   0  0  0  0  0  0  0  0  0  0  0  0
   -8.6749    4.0364    0.3253 H   0  0  0  0  0  0  0  0  0  0  0  0
   -9.9506    3.3844    1.3816 H   0  0  0  0  0  0  0  0  0  0  0  0
   -8.2459    2.9735    1.6870 H   0  0  0  0  0  0  0  0  0  0  0  0
   -9.4326    1.0917    0.5920 H   0  0  0  0  0  0  0  0  0  0  0  0
   -9.8616    2.1546   -0.7698 H   0  0  0  0  0  0  0  0  0  0  0  0
   -7.2805    2.4348   -1.2024 H   0  0  0  0  0  0  0  0  0  0  0  0
   -7.7570   -0.2957    0.0340 H   0  0  0  0  0  0  0  0  0  0  0  0
   -6.0482   -0.5656   -1.9498 H   0  0  0  0  0  0  0  0  0  0  0  0
   -5.5209    1.1004   -1.6112 H   0  0  0  0  0  0  0  0  0  0  0  0
   -5.3937   -0.8597    0.7285 H   0  0  0  0  0  0  0  0  0  0  0  0
   -3.3437   -0.7407   -1.6531 H   0  0  0  0  0  0  0  0  0  0  0  0
   -3.5060   -2.8727    0.0110 H   0  0  0  0  0  0  0  0  0  0  0  0
   -1.3672   -2.3550   -1.4331 H   0  0  0  0  0  0  0  0  0  0  0  0
   -0.6502   -2.0281    1.4978 H   0  0  0  0  0  0  0  0  0  0  0  0
    1.2922   -3.3456    0.3064 H   0  0  0  0  0  0  0  0  0  0  0  0
    0.8616   -2.4680   -1.1811 H   0  0  0  0  0  0  0  0  0  0  0  0
    1.3980   -0.3181   -0.0680 H   0  0  0  0  0  0  0  0  0  0  0  0
    1.8286   -1.1957    1.4195 H   0  0  0  0  0  0  0  0  0  0  0  0
    3.6059   -2.4100    0.1886 H   0  0  0  0  0  0  0  0  0  0  0  0
    3.1753   -1.5324   -1.2989 H   0  0  0  0  0  0  0  0  0  0  0  0
    3.7117    0.6175   -0.1858 H   0  0  0  0  0  0  0  0  0  0  0  0
    4.1423   -0.2601    1.3017 H   0  0  0  0  0  0  0  0  0  0  0  0
    5.9196   -1.4744    0.0708 H   0  0  0  0  0  0  0  0  0  0  0  0
    5.4890   -0.5968   -1.4167 H   0  0  0  0  0  0  0  0  0  0  0  0
    6.0253    1.5531   -0.3036 H   0  0  0  0  0  0  0  0  0  0  0  0
    6.4560    0.6755    1.1839 H   0  0  0  0  0  0  0  0  0  0  0  0
    8.2333   -0.5388   -0.0470 H   0  0  0  0  0  0  0  0  0  0  0  0
    7.8027    0.3388   -1.5345 H   0  0  0  0  0  0  0  0  0  0  0  0
   10.5444    2.3083   -0.1013 H   0  0  0  0  0  0  0  0  0  0  0  0
   -2.3295   -0.8740    1.7575 H   0  0  0  0  0  0  0  0  0  0  0  0
  1  2  1  0  0  0  0
  2  3  1  0  0  0  0
  3  4  2  0  0  0  0
  4  5  1  0  0  0  0
  5  6  1  0  0  0  0
  6  7  1  0  0  0  0
  7  8  1  0  0  0  0
  6  8  1  0  0  0  0
  7  9  1  0  0  0  0
  9 10  1  0  0  0  0
 10 11  2  0  0  0  0
 11 12  1  0  0  0  0
 12 13  1  0  0  0  0
 13 14  1  0  0  0  0
 14 15  1  0  0  0  0
 15 16  1  0  0  0  0
 16 17  1  0  0  0  0
 17 18  1  0  0  0  0
 18 19  1  0  0  0  0
 19 20  2  0  0  0  0
 19 21  1  0  0  0  0
  9 22  1  0  0  0  0
  1 23  1  0  0  0  0
  1 24  1  0  0  0  0
  1 25  1  0  0  0  0
  2 26  1  0  0  0  0
  2 27  1  0  0  0  0
  3 28  1  0  0  0  0
  4 29  1  0  0  0  0
  5 30  1  0  0  0  0
  5 31  1  0  0  0  0
  6 32  1  0  0  0  0
  7 33  1  0  0  0  0
  9 34  1  0  0  0  0
 10 35  1  0  0  0  0
 11 36  1  0  0  0  0
 12 37  1  0  0  0  0
 12 38  1  0  0  0  0
 13 39  1  0  0  0  0
 13 40  1  0  0  0  0
 14 41  1  0  0  0  0
 14 42  1  0  0  0  0
 15 43  1  0  0  0  0
 15 44  1  0  0  0  0
 16 45  1  0  0  0  0
 16 46  1  0  0  0  0
 17 47  1  0  0  0  0
 17 48  1  0  0  0  0
 18 49  1  0  0  0  0
 18 50  1  0  0  0  0
 21 51  1  0  0  0  0
 22 52  1  0  0  0  0
M  END
$$$$
