C22H24O5
APtclcactv06281817303D 0   0.00000     0.00000
 
 51 52  0  0  0  0  0  0  0  0999 V2000
    2.9746   -4.0939   -1.2558 C   0  0  0  0  0  0  0  0  0  0  0  0
    3.0147   -3.6613    0.1872 C   0  0  0  0  0  0  0  0  0  0  0  0
    3.4077   -2.4507    0.4975 C   0  0  0  0  0  0  0  0  0  0  0  0
    3.7064   -1.4532   -0.5919 C   0  0  0  0  0  0  0  0  0  0  0  0
    2.9106   -0.1958   -0.3536 C   0  0  0  0  0  0  0  0  0  0  0  0
    3.4486    0.8294    0.4134 C   0  0  0  0  0  0  0  0  0  0  0  0
    2.7235    1.9927    0.6388 C   0  0  0  0  0  0  0  0  0  0  0  0
    1.4586    2.1387    0.1001 C   0  0  0  0  0  0  0  0  0  0  0  0
    0.9071    1.1068   -0.6767 C   0  0  0  0  0  0  0  0  0  0  0  0
    1.6488   -0.0636   -0.9040 C   0  0  0  0  0  0  0  0  0  0  0  0
    1.1250   -1.0662   -1.6531 O   0  0  0  0  0  0  0  0  0  0  0  0
   -0.4387    1.2534   -1.2536 C   0  0  0  0  0  0  0  0  0  0  0  0
   -0.5857    1.8249   -2.3196 O   0  0  0  0  0  0  0  0  0  0  0  0
   -1.6001    0.7132   -0.5471 C   0  0  0  0  0  0  0  0  0  0  0  0
   -2.8213    0.7571   -1.1227 C   0  0  0  0  0  0  0  0  0  0  0  0
   -3.9880    0.2143   -0.4130 C   0  0  0  0  0  0  0  0  0  0  0  0
   -5.2549    0.2585   -1.0073 C   0  0  0  0  0  0  0  0  0  0  0  0
   -6.3445   -0.2512   -0.3382 C   0  0  0  0  0  0  0  0  0  0  0  0
   -6.1886   -0.8092    0.9257 C   0  0  0  0  0  0  0  0  0  0  0  0
   -4.9328   -0.8551    1.5206 C   0  0  0  0  0  0  0  0  0  0  0  0
   -3.8357   -0.3538    0.8575 C   0  0  0  0  0  0  0  0  0  0  0  0
   -7.2663   -1.3104    1.5813 O   0  0  0  0  0  0  0  0  0  0  0  0
    0.7519    3.2754    0.3217 O   0  0  0  0  0  0  0  0  0  0  0  0
    1.3760    4.2818    1.1215 C   0  0  0  0  0  0  0  0  0  0  0  0
    4.6895    0.6937    0.9462 O   0  0  0  0  0  0  0  0  0  0  0  0
    5.1840    1.7851    1.7249 C   0  0  0  0  0  0  0  0  0  0  0  0
    2.6028   -4.6213    1.2734 C   0  0  0  0  0  0  0  0  0  0  0  0
    3.9539   -3.9392   -1.7088 H   0  0  0  0  0  0  0  0  0  0  0  0
    2.7114   -5.1502   -1.3113 H   0  0  0  0  0  0  0  0  0  0  0  0
    2.2296   -3.5052   -1.7910 H   0  0  0  0  0  0  0  0  0  0  0  0
    3.5176   -2.1676    1.5339 H   0  0  0  0  0  0  0  0  0  0  0  0
    4.7703   -1.2164   -0.5859 H   0  0  0  0  0  0  0  0  0  0  0  0
    3.4341   -1.8778   -1.5581 H   0  0  0  0  0  0  0  0  0  0  0  0
    3.1489    2.7851    1.2367 H   0  0  0  0  0  0  0  0  0  0  0  0
    1.3208   -0.9953   -2.5974 H   0  0  0  0  0  0  0  0  0  0  0  0
   -1.4811    0.2793    0.4347 H   0  0  0  0  0  0  0  0  0  0  0  0
   -2.9402    1.1909   -2.1045 H   0  0  0  0  0  0  0  0  0  0  0  0
   -5.3771    0.6920   -1.9889 H   0  0  0  0  0  0  0  0  0  0  0  0
   -7.3222   -0.2173   -0.7956 H   0  0  0  0  0  0  0  0  0  0  0  0
   -4.8172   -1.2893    2.5027 H   0  0  0  0  0  0  0  0  0  0  0  0
   -2.8606   -0.3900    1.3205 H   0  0  0  0  0  0  0  0  0  0  0  0
   -7.4340   -2.2462    1.4044 H   0  0  0  0  0  0  0  0  0  0  0  0
    1.5958    3.8765    2.1092 H   0  0  0  0  0  0  0  0  0  0  0  0
    2.3029    4.6014    0.6453 H   0  0  0  0  0  0  0  0  0  0  0  0
    0.7052    5.1353    1.2202 H   0  0  0  0  0  0  0  0  0  0  0  0
    6.1831    1.5474    2.0903 H   0  0  0  0  0  0  0  0  0  0  0  0
    5.2269    2.6821    1.1072 H   0  0  0  0  0  0  0  0  0  0  0  0
    4.5193    1.9582    2.5712 H   0  0  0  0  0  0  0  0  0  0  0  0
    2.3097   -5.5714    0.8266 H   0  0  0  0  0  0  0  0  0  0  0  0
    3.4398   -4.7822    1.9528 H   0  0  0  0  0  0  0  0  0  0  0  0
    1.7609   -4.2048    1.8264 H   0  0  0  0  0  0  0  0  0  0  0  0
  1  2  1  0  0  0  0
  2  3  2  0  0  0  0
  3  4  1  0  0  0  0
  4  5  1  0  0  0  0
  5  6  2  0  0  0  0
  6  7  1  0  0  0  0
  7  8  2  0  0  0  0
  8  9  1  0  0  0  0
  9 10  2  0  0  0  0
  5 10  1  0  0  0  0
 10 11  1  0  0  0  0
  9 12  1  0  0  0  0
 12 13  2  0  0  0  0
 12 14  1  0  0  0  0
 14 15  2  0  0  0  0
 15 16  1  0  0  0  0
 16 17  2  0  0  0  0
 17 18  1  0  0  0  0
 18 19  2  0  0  0  0
 19 20  1  0  0  0  0
 20 21  2  0  0  0  0
 16 21  1  0  0  0  0
 19 22  1  0  0  0  0
  8 23  1  0  0  0  0
 23 24  1  0  0  0  0
  6 25  1  0  0  0  0
 25 26  1  0  0  0  0
  2 27  1  0  0  0  0
  1 28  1  0  0  0  0
  1 29  1  0  0  0  0
  1 30  1  0  0  0  0
  3 31  1  0  0  0  0
  4 32  1  0  0  0  0
  4 33  1  0  0  0  0
  7 34  1  0  0  0  0
 11 35  1  0  0  0  0
 14 36  1  0  0  0  0
 15 37  1  0  0  0  0
 17 38  1  0  0  0  0
 18 39  1  0  0  0  0
 20 40  1  0  0  0  0
 21 41  1  0  0  0  0
 22 42  1  0  0  0  0
 24 43  1  0  0  0  0
 24 44  1  0  0  0  0
 24 45  1  0  0  0  0
 26 46  1  0  0  0  0
 26 47  1  0  0  0  0
 26 48  1  0  0  0  0
 27 49  1  0  0  0  0
 27 50  1  0  0  0  0
 27 51  1  0  0  0  0
M  END
$$$$
