C18H23NO3
APtclcactv06281817303D 0   0.00000     0.00000
 
 45 47  0  0  0  0  0  0  0  0999 V2000
   -7.4393    1.9990    0.7885 C   0  0  0  0  0  0  0  0  0  0  0  0
   -8.3977    0.8689    0.3282 C   0  0  0  0  0  0  0  0  0  0  0  0
   -7.4635   -0.3548    0.2223 C   0  0  0  0  0  0  0  0  0  0  0  0
   -6.0937    0.1543    0.0612 N   0  0  0  0  0  0  0  0  0  0  0  0
   -6.1369    1.6277    0.0364 C   0  0  0  0  0  0  0  0  0  0  0  0
   -4.9825   -0.6008   -0.0453 C   0  0  0  0  0  0  0  0  0  0  0  0
   -5.0656   -1.8103   -0.0111 O   0  0  0  0  0  0  0  0  0  0  0  0
   -3.6366    0.0577   -0.2070 C   0  0  0  0  0  0  0  0  0  0  0  0
   -2.5516   -1.0166   -0.3040 C   0  0  0  0  0  0  0  0  0  0  0  0
   -1.1852   -0.3481   -0.4681 C   0  0  0  0  0  0  0  0  0  0  0  0
   -0.1001   -1.4224   -0.5651 C   0  0  0  0  0  0  0  0  0  0  0  0
    1.2457   -0.7640   -0.7267 C   0  0  0  0  0  0  0  0  0  0  0  0
    2.2281   -1.0471    0.1177 C   0  0  0  0  0  0  0  0  0  0  0  0
    3.5478   -0.4014   -0.0409 C   0  0  0  0  0  0  0  0  0  0  0  0
    4.5828   -0.6982    0.8468 C   0  0  0  0  0  0  0  0  0  0  0  0
    5.8163   -0.0920    0.6954 C   0  0  0  0  0  0  0  0  0  0  0  0
    6.0240    0.8144   -0.3434 C   0  0  0  0  0  0  0  0  0  0  0  0
    4.9943    1.1087   -1.2250 C   0  0  0  0  0  0  0  0  0  0  0  0
    3.7637    0.5024   -1.0822 C   0  0  0  0  0  0  0  0  0  0  0  0
    7.3102    1.2670   -0.2754 O   0  0  0  0  0  0  0  0  0  0  0  0
    8.0060    0.3245    0.5615 C   0  0  0  0  0  0  0  0  0  0  0  0
    6.9727   -0.2060    1.4122 O   0  0  0  0  0  0  0  0  0  0  0  0
   -7.8073    2.9756    0.4740 H   0  0  0  0  0  0  0  0  0  0  0  0
   -7.2894    1.9687    1.8677 H   0  0  0  0  0  0  0  0  0  0  0  0
   -9.1761    0.6968    1.0716 H   0  0  0  0  0  0  0  0  0  0  0  0
   -8.8350    1.1054   -0.6418 H   0  0  0  0  0  0  0  0  0  0  0  0
   -7.5321   -0.9532    1.1308 H   0  0  0  0  0  0  0  0  0  0  0  0
   -7.7391   -0.9578   -0.6429 H   0  0  0  0  0  0  0  0  0  0  0  0
   -6.1762    1.9889   -0.9913 H   0  0  0  0  0  0  0  0  0  0  0  0
   -5.2701    2.0414    0.5519 H   0  0  0  0  0  0  0  0  0  0  0  0
   -3.6337    0.6601   -1.1154 H   0  0  0  0  0  0  0  0  0  0  0  0
   -3.4392    0.6969    0.6535 H   0  0  0  0  0  0  0  0  0  0  0  0
   -2.5545   -1.6191    0.6044 H   0  0  0  0  0  0  0  0  0  0  0  0
   -2.7490   -1.6559   -1.1645 H   0  0  0  0  0  0  0  0  0  0  0  0
   -1.1822    0.2543   -1.3765 H   0  0  0  0  0  0  0  0  0  0  0  0
   -0.9877    0.2911    0.3924 H   0  0  0  0  0  0  0  0  0  0  0  0
   -0.1031   -2.0249    0.3433 H   0  0  0  0  0  0  0  0  0  0  0  0
   -0.2976   -2.0616   -1.4256 H   0  0  0  0  0  0  0  0  0  0  0  0
    1.4101   -0.0614   -1.5303 H   0  0  0  0  0  0  0  0  0  0  0  0
    2.0637   -1.7497    0.9213 H   0  0  0  0  0  0  0  0  0  0  0  0
    4.4204   -1.4002    1.6513 H   0  0  0  0  0  0  0  0  0  0  0  0
    5.1580    1.8115   -2.0286 H   0  0  0  0  0  0  0  0  0  0  0  0
    2.9645    0.7338   -1.7707 H   0  0  0  0  0  0  0  0  0  0  0  0
    8.4501   -0.4677   -0.0412 H   0  0  0  0  0  0  0  0  0  0  0  0
    8.7687    0.8292    1.1545 H   0  0  0  0  0  0  0  0  0  0  0  0
  1  2  1  0  0  0  0
  2  3  1  0  0  0  0
  3  4  1  0  0  0  0
  4  5  1  0  0  0  0
  1  5  1  0  0  0  0
  4  6  1  0  0  0  0
  6  7  2  0  0  0  0
  6  8  1  0  0  0  0
  8  9  1  0  0  0  0
  9 10  1  0  0  0  0
 10 11  1  0  0  0  0
 11 12  1  0  0  0  0
 12 13  2  0  0  0  0
 13 14  1  0  0  0  0
 14 15  2  0  0  0  0
 15 16  1  0  0  0  0
 16 17  2  0  0  0  0
 17 18  1  0  0  0  0
 18 19  2  0  0  0  0
 14 19  1  0  0  0  0
 17 20  1  0  0  0  0
 20 21  1  0  0  0  0
 21 22  1  0  0  0  0
 16 22  1  0  0  0  0
  1 23  1  0  0  0  0
  1 24  1  0  0  0  0
  2 25  1  0  0  0  0
  2 26  1  0  0  0  0
  3 27  1  0  0  0  0
  3 28  1  0  0  0  0
  5 29  1  0  0  0  0
  5 30  1  0  0  0  0
  8 31  1  0  0  0  0
  8 32  1  0  0  0  0
  9 33  1  0  0  0  0
  9 34  1  0  0  0  0
 10 35  1  0  0  0  0
 10 36  1  0  0  0  0
 11 37  1  0  0  0  0
 11 38  1  0  0  0  0
 12 39  1  0  0  0  0
 13 40  1  0  0  0  0
 15 41  1  0  0  0  0
 18 42  1  0  0  0  0
 19 43  1  0  0  0  0
 21 44  1  0  0  0  0
 21 45  1  0  0  0  0
M  END
$$$$
