C7H16O
APtclcactv06211804483D 0   0.00000     0.00000
 
 24 23  0  0  0  0  0  0  0  0999 V2000
    4.1289   -0.1915    0.2118 C   0  0  0  0  0  0  0  0  0  0  0  0
    2.8276    0.4380   -0.2895 C   0  0  0  0  0  0  0  0  0  0  0  0
    1.6395   -0.4029    0.1822 C   0  0  0  0  0  0  0  0  0  0  0  0
    0.3382    0.2266   -0.3191 C   0  0  0  0  0  0  0  0  0  0  0  0
   -0.8498   -0.6142    0.1525 C   0  0  0  0  0  0  0  0  0  0  0  0
   -2.1511    0.0153   -0.3487 C   0  0  0  0  0  0  0  0  0  0  0  0
   -3.3292   -0.8905    0.0155 C   0  0  0  0  0  0  0  0  0  0  0  0
   -2.3275    1.2950    0.2622 O   0  0  0  0  0  0  0  0  0  0  0  0
    4.9753    0.4075   -0.1242 H   0  0  0  0  0  0  0  0  0  0  0  0
    4.1190   -0.2276    1.3012 H   0  0  0  0  0  0  0  0  0  0  0  0
    4.2195   -1.2029   -0.1845 H   0  0  0  0  0  0  0  0  0  0  0  0
    2.7370    1.4494    0.1068 H   0  0  0  0  0  0  0  0  0  0  0  0
    2.8375    0.4741   -1.3788 H   0  0  0  0  0  0  0  0  0  0  0  0
    1.7301   -1.4142   -0.2141 H   0  0  0  0  0  0  0  0  0  0  0  0
    1.6296   -0.4390    1.2715 H   0  0  0  0  0  0  0  0  0  0  0  0
    0.2476    1.2380    0.0772 H   0  0  0  0  0  0  0  0  0  0  0  0
    0.3481    0.2627   -1.4085 H   0  0  0  0  0  0  0  0  0  0  0  0
   -0.7592   -1.6256   -0.2437 H   0  0  0  0  0  0  0  0  0  0  0  0
   -0.8597   -0.6503    1.2419 H   0  0  0  0  0  0  0  0  0  0  0  0
   -2.1044    0.1328   -1.4314 H   0  0  0  0  0  0  0  0  0  0  0  0
   -3.3759   -1.0081    1.0982 H   0  0  0  0  0  0  0  0  0  0  0  0
   -4.2563   -0.4420   -0.3416 H   0  0  0  0  0  0  0  0  0  0  0  0
   -3.1947   -1.8666   -0.4505 H   0  0  0  0  0  0  0  0  0  0  0  0
   -2.3776    1.2664    1.2275 H   0  0  0  0  0  0  0  0  0  0  0  0
  1  2  1  0  0  0  0
  2  3  1  0  0  0  0
  3  4  1  0  0  0  0
  4  5  1  0  0  0  0
  5  6  1  0  0  0  0
  6  7  1  0  0  0  0
  6  8  1  0  0  0  0
  1  9  1  0  0  0  0
  1 10  1  0  0  0  0
  1 11  1  0  0  0  0
  2 12  1  0  0  0  0
  2 13  1  0  0  0  0
  3 14  1  0  0  0  0
  3 15  1  0  0  0  0
  4 16  1  0  0  0  0
  4 17  1  0  0  0  0
  5 18  1  0  0  0  0
  5 19  1  0  0  0  0
  6 20  1  0  0  0  0
  7 21  1  0  0  0  0
  7 22  1  0  0  0  0
  7 23  1  0  0  0  0
  8 24  1  0  0  0  0
M  END
$$$$
