C10H18O
APtclcactv06211804483D 0   0.00000     0.00000
 
 29 28  0  0  0  0  0  0  0  0999 V2000
    3.6479    0.0245   -0.7951 C   0  0  0  0  0  0  0  0  0  0  0  0
    2.3718   -0.0346    0.0469 C   0  0  0  0  0  0  0  0  0  0  0  0
    2.4111    1.0648    1.1102 C   0  0  0  0  0  0  0  0  0  0  0  0
    1.1546    0.1728   -0.8565 C   0  0  0  0  0  0  0  0  0  0  0  0
   -0.1113    0.2382    0.0004 C   0  0  0  0  0  0  0  0  0  0  0  0
   -1.3285    0.4457   -0.9030 C   0  0  0  0  0  0  0  0  0  0  0  0
   -2.5753    0.5101   -0.0590 C   0  0  0  0  0  0  0  0  0  0  0  0
   -3.0572    1.6871    0.3254 C   0  0  0  0  0  0  0  0  0  0  0  0
   -3.2589   -0.7303    0.3393 C   0  0  0  0  0  0  0  0  0  0  0  0
   -2.7770   -1.9073   -0.0451 C   0  0  0  0  0  0  0  0  0  0  0  0
    2.2803   -1.3105    0.6840 O   0  0  0  0  0  0  0  0  0  0  0  0
    4.5151   -0.1233   -0.1515 H   0  0  0  0  0  0  0  0  0  0  0  0
    3.6200   -0.7587   -1.5527 H   0  0  0  0  0  0  0  0  0  0  0  0
    3.7178    0.9977   -1.2811 H   0  0  0  0  0  0  0  0  0  0  0  0
    2.4809    2.0379    0.6243 H   0  0  0  0  0  0  0  0  0  0  0  0
    1.5020    1.0227    1.7101 H   0  0  0  0  0  0  0  0  0  0  0  0
    3.2783    0.9170    1.7538 H   0  0  0  0  0  0  0  0  0  0  0  0
    1.2674    1.1052   -1.4097 H   0  0  0  0  0  0  0  0  0  0  0  0
    1.0764   -0.6583   -1.5573 H   0  0  0  0  0  0  0  0  0  0  0  0
   -0.2241   -0.6941    0.5537 H   0  0  0  0  0  0  0  0  0  0  0  0
   -0.0330    1.0694    0.7012 H   0  0  0  0  0  0  0  0  0  0  0  0
   -1.2157    1.3780   -1.4563 H   0  0  0  0  0  0  0  0  0  0  0  0
   -1.4067   -0.3855   -1.6038 H   0  0  0  0  0  0  0  0  0  0  0  0
   -3.9508    1.7333    0.9303 H   0  0  0  0  0  0  0  0  0  0  0  0
   -2.5554    2.5977    0.0331 H   0  0  0  0  0  0  0  0  0  0  0  0
   -4.1524   -0.6841    0.9442 H   0  0  0  0  0  0  0  0  0  0  0  0
   -1.8835   -1.9535   -0.6500 H   0  0  0  0  0  0  0  0  0  0  0  0
   -3.2788   -2.8178    0.2472 H   0  0  0  0  0  0  0  0  0  0  0  0
    3.0206   -1.5098    1.2734 H   0  0  0  0  0  0  0  0  0  0  0  0
  1  2  1  0  0  0  0
  2  3  1  0  0  0  0
  2  4  1  0  0  0  0
  4  5  1  0  0  0  0
  5  6  1  0  0  0  0
  6  7  1  0  0  0  0
  7  8  2  0  0  0  0
  7  9  1  0  0  0  0
  9 10  2  0  0  0  0
  2 11  1  0  0  0  0
  1 12  1  0  0  0  0
  1 13  1  0  0  0  0
  1 14  1  0  0  0  0
  3 15  1  0  0  0  0
  3 16  1  0  0  0  0
  3 17  1  0  0  0  0
  4 18  1  0  0  0  0
  4 19  1  0  0  0  0
  5 20  1  0  0  0  0
  5 21  1  0  0  0  0
  6 22  1  0  0  0  0
  6 23  1  0  0  0  0
  8 24  1  0  0  0  0
  8 25  1  0  0  0  0
  9 26  1  0  0  0  0
 10 27  1  0  0  0  0
 10 28  1  0  0  0  0
 11 29  1  0  0  0  0
M  END
$$$$
