C6H13N3
APtclcactv06211804483D 0   0.00000     0.00000
 
 22 21  0  0  0  0  0  0  0  0999 V2000
   -2.7005    1.0991    0.7526 C   0  0  0  0  0  0  0  0  0  0  0  0
   -2.3385   -0.1111   -0.0692 C   0  0  0  0  0  0  0  0  0  0  0  0
   -1.1047   -0.2823   -0.4746 C   0  0  0  0  0  0  0  0  0  0  0  0
   -0.0240    0.6647   -0.0204 C   0  0  0  0  0  0  0  0  0  0  0  0
    1.0608   -0.0960    0.6047 N   0  0  0  0  0  0  0  0  0  0  0  0
    2.2545   -0.0788    0.0815 C   0  0  0  0  0  0  0  0  0  0  0  0
    2.5283    0.7523   -0.9789 N   0  0  0  0  0  0  0  0  0  0  0  0
    3.2397   -0.8917    0.5900 N   0  0  0  0  0  0  0  0  0  0  0  0
   -3.3960   -1.1243   -0.4247 C   0  0  0  0  0  0  0  0  0  0  0  0
   -2.3999    2.0022    0.2215 H   0  0  0  0  0  0  0  0  0  0  0  0
   -3.7777    1.1167    0.9185 H   0  0  0  0  0  0  0  0  0  0  0  0
   -2.1858    1.0538    1.7124 H   0  0  0  0  0  0  0  0  0  0  0  0
   -0.8619   -1.1022   -1.1344 H   0  0  0  0  0  0  0  0  0  0  0  0
    0.3641    1.2120   -0.8794 H   0  0  0  0  0  0  0  0  0  0  0  0
   -0.4376    1.3683    0.7021 H   0  0  0  0  0  0  0  0  0  0  0  0
    1.8828    1.4247   -1.2474 H   0  0  0  0  0  0  0  0  0  0  0  0
    3.3671    0.6663   -1.4585 H   0  0  0  0  0  0  0  0  0  0  0  0
    3.0466   -1.4781    1.3382 H   0  0  0  0  0  0  0  0  0  0  0  0
    4.1281   -0.8789    0.2006 H   0  0  0  0  0  0  0  0  0  0  0  0
   -3.8612   -0.8472   -1.3707 H   0  0  0  0  0  0  0  0  0  0  0  0
   -2.9384   -2.1090   -0.5195 H   0  0  0  0  0  0  0  0  0  0  0  0
   -4.1531   -1.1494    0.3590 H   0  0  0  0  0  0  0  0  0  0  0  0
  1  2  1  0  0  0  0
  2  3  2  0  0  0  0
  3  4  1  0  0  0  0
  4  5  1  0  0  0  0
  5  6  2  0  0  0  0
  6  7  1  0  0  0  0
  6  8  1  0  0  0  0
  2  9  1  0  0  0  0
  1 10  1  0  0  0  0
  1 11  1  0  0  0  0
  1 12  1  0  0  0  0
  3 13  1  0  0  0  0
  4 14  1  0  0  0  0
  4 15  1  0  0  0  0
  7 16  1  0  0  0  0
  7 17  1  0  0  0  0
  8 18  1  0  0  0  0
  8 19  1  0  0  0  0
  9 20  1  0  0  0  0
  9 21  1  0  0  0  0
  9 22  1  0  0  0  0
M  END
$$$$
