C16H27NO
APtclcactv06281817303D 0   0.00000     0.00000
 
 45 45  0  0  0  0  0  0  0  0999 V2000
    9.3788   -0.9132   -0.5489 C   0  0  0  0  0  0  0  0  0  0  0  0
    8.0647   -0.2892   -1.0230 C   0  0  0  0  0  0  0  0  0  0  0  0
    6.9884   -0.4939    0.0449 C   0  0  0  0  0  0  0  0  0  0  0  0
    5.6743    0.1300   -0.4292 C   0  0  0  0  0  0  0  0  0  0  0  0
    4.5980   -0.0747    0.6387 C   0  0  0  0  0  0  0  0  0  0  0  0
    3.2839    0.5493    0.1646 C   0  0  0  0  0  0  0  0  0  0  0  0
    2.2076    0.3446    1.2326 C   0  0  0  0  0  0  0  0  0  0  0  0
    0.9133    0.9592    0.7656 C   0  0  0  0  0  0  0  0  0  0  0  0
   -0.1970    0.2210    0.7187 C   0  0  0  0  0  0  0  0  0  0  0  0
   -1.4539    0.8178    0.2652 C   0  0  0  0  0  0  0  0  0  0  0  0
   -2.5788    0.0699    0.2178 C   0  0  0  0  0  0  0  0  0  0  0  0
   -3.8350    0.6664   -0.2355 C   0  0  0  0  0  0  0  0  0  0  0  0
   -3.8675    1.8362   -0.5699 O   0  0  0  0  0  0  0  0  0  0  0  0
   -4.9567   -0.0794   -0.2828 N   0  0  0  0  0  0  0  0  0  0  0  0
   -6.2806    0.3908   -0.7161 C   0  0  0  0  0  0  0  0  0  0  0  0
   -7.2562   -0.7970   -0.5786 C   0  0  0  0  0  0  0  0  0  0  0  0
   -6.5495   -1.7089    0.4588 C   0  0  0  0  0  0  0  0  0  0  0  0
   -5.0579   -1.5033    0.0854 C   0  0  0  0  0  0  0  0  0  0  0  0
    9.6930   -0.4367    0.3797 H   0  0  0  0  0  0  0  0  0  0  0  0
    9.2339   -1.9801   -0.3789 H   0  0  0  0  0  0  0  0  0  0  0  0
   10.1456   -0.7674   -1.3097 H   0  0  0  0  0  0  0  0  0  0  0  0
    8.2096    0.7776   -1.1930 H   0  0  0  0  0  0  0  0  0  0  0  0
    7.7505   -0.7657   -1.9516 H   0  0  0  0  0  0  0  0  0  0  0  0
    6.8435   -1.5608    0.2149 H   0  0  0  0  0  0  0  0  0  0  0  0
    7.3026   -0.0174    0.9735 H   0  0  0  0  0  0  0  0  0  0  0  0
    5.8192    1.1969   -0.5992 H   0  0  0  0  0  0  0  0  0  0  0  0
    5.3601   -0.3465   -1.3578 H   0  0  0  0  0  0  0  0  0  0  0  0
    4.4531   -1.1415    0.8087 H   0  0  0  0  0  0  0  0  0  0  0  0
    4.9122    0.4018    1.5673 H   0  0  0  0  0  0  0  0  0  0  0  0
    3.4288    1.6162   -0.0054 H   0  0  0  0  0  0  0  0  0  0  0  0
    2.9697    0.0728   -0.7640 H   0  0  0  0  0  0  0  0  0  0  0  0
    2.0627   -0.7223    1.4026 H   0  0  0  0  0  0  0  0  0  0  0  0
    2.5218    0.8211    2.1612 H   0  0  0  0  0  0  0  0  0  0  0  0
    0.8845    1.9972    0.4688 H   0  0  0  0  0  0  0  0  0  0  0  0
   -0.1682   -0.8170    1.0155 H   0  0  0  0  0  0  0  0  0  0  0  0
   -1.4826    1.8559   -0.0315 H   0  0  0  0  0  0  0  0  0  0  0  0
   -2.5501   -0.9682    0.5146 H   0  0  0  0  0  0  0  0  0  0  0  0
   -6.6075    1.2144   -0.0815 H   0  0  0  0  0  0  0  0  0  0  0  0
   -6.2365    0.7159   -1.7556 H   0  0  0  0  0  0  0  0  0  0  0  0
   -8.2223   -0.4609   -0.2019 H   0  0  0  0  0  0  0  0  0  0  0  0
   -7.3713   -1.3139   -1.5313 H   0  0  0  0  0  0  0  0  0  0  0  0
   -6.7510   -1.3727    1.4759 H   0  0  0  0  0  0  0  0  0  0  0  0
   -6.8432   -2.7504    0.3278 H   0  0  0  0  0  0  0  0  0  0  0  0
   -4.7868   -2.1388   -0.7577 H   0  0  0  0  0  0  0  0  0  0  0  0
   -4.4194   -1.7163    0.9427 H   0  0  0  0  0  0  0  0  0  0  0  0
  1  2  1  0  0  0  0
  2  3  1  0  0  0  0
  3  4  1  0  0  0  0
  4  5  1  0  0  0  0
  5  6  1  0  0  0  0
  6  7  1  0  0  0  0
  7  8  1  0  0  0  0
  8  9  2  0  0  0  0
  9 10  1  0  0  0  0
 10 11  2  0  0  0  0
 11 12  1  0  0  0  0
 12 13  2  0  0  0  0
 12 14  1  0  0  0  0
 14 15  1  0  0  0  0
 15 16  1  0  0  0  0
 16 17  1  0  0  0  0
 17 18  1  0  0  0  0
 14 18  1  0  0  0  0
  1 19  1  0  0  0  0
  1 20  1  0  0  0  0
  1 21  1  0  0  0  0
  2 22  1  0  0  0  0
  2 23  1  0  0  0  0
  3 24  1  0  0  0  0
  3 25  1  0  0  0  0
  4 26  1  0  0  0  0
  4 27  1  0  0  0  0
  5 28  1  0  0  0  0
  5 29  1  0  0  0  0
  6 30  1  0  0  0  0
  6 31  1  0  0  0  0
  7 32  1  0  0  0  0
  7 33  1  0  0  0  0
  8 34  1  0  0  0  0
  9 35  1  0  0  0  0
 10 36  1  0  0  0  0
 11 37  1  0  0  0  0
 15 38  1  0  0  0  0
 15 39  1  0  0  0  0
 16 40  1  0  0  0  0
 16 41  1  0  0  0  0
 17 42  1  0  0  0  0
 17 43  1  0  0  0  0
 18 44  1  0  0  0  0
 18 45  1  0  0  0  0
M  END
$$$$
