C14H28O2
APtclcactv06211804483D 0   0.00000     0.00000
 
 44 43  0  0  0  0  0  0  0  0999 V2000
    9.2770    0.2596    0.0000 C   0  0  0  0  0  0  0  0  0  0  0  0
    8.0017   -0.5856   -0.0000 C   0  0  0  0  0  0  0  0  0  0  0  0
    6.7797    0.3350    0.0000 C   0  0  0  0  0  0  0  0  0  0  0  0
    5.5044   -0.5102   -0.0000 C   0  0  0  0  0  0  0  0  0  0  0  0
    4.2823    0.4104    0.0000 C   0  0  0  0  0  0  0  0  0  0  0  0
    3.0070   -0.4349   -0.0000 C   0  0  0  0  0  0  0  0  0  0  0  0
    1.7850    0.4858    0.0000 C   0  0  0  0  0  0  0  0  0  0  0  0
    0.5097   -0.3595   -0.0000 C   0  0  0  0  0  0  0  0  0  0  0  0
   -0.7123    0.5611    0.0000 C   0  0  0  0  0  0  0  0  0  0  0  0
   -1.9877   -0.2841   -0.0000 C   0  0  0  0  0  0  0  0  0  0  0  0
   -3.2097    0.6365   -0.0000 C   0  0  0  0  0  0  0  0  0  0  0  0
   -4.4850   -0.2088    0.0000 C   0  0  0  0  0  0  0  0  0  0  0  0
   -5.7070    0.7119   -0.0000 C   0  0  0  0  0  0  0  0  0  0  0  0
   -6.9632   -0.1207    0.0000 C   0  0  0  0  0  0  0  0  0  0  0  0
   -6.8887   -1.3266    0.0000 O   0  0  0  0  0  0  0  0  0  0  0  0
   -8.1648    0.4775    0.0000 O   0  0  0  0  0  0  0  0  0  0  0  0
    9.2960    0.8887    0.8900 H   0  0  0  0  0  0  0  0  0  0  0  0
   10.1476   -0.3962   -0.0000 H   0  0  0  0  0  0  0  0  0  0  0  0
    9.2960    0.8887   -0.8900 H   0  0  0  0  0  0  0  0  0  0  0  0
    7.9827   -1.2146   -0.8900 H   0  0  0  0  0  0  0  0  0  0  0  0
    7.9827   -1.2146    0.8900 H   0  0  0  0  0  0  0  0  0  0  0  0
    6.7987    0.9640    0.8900 H   0  0  0  0  0  0  0  0  0  0  0  0
    6.7987    0.9640   -0.8900 H   0  0  0  0  0  0  0  0  0  0  0  0
    5.4854   -1.1393   -0.8900 H   0  0  0  0  0  0  0  0  0  0  0  0
    5.4854   -1.1393    0.8900 H   0  0  0  0  0  0  0  0  0  0  0  0
    4.3013    1.0394    0.8900 H   0  0  0  0  0  0  0  0  0  0  0  0
    4.3013    1.0394   -0.8900 H   0  0  0  0  0  0  0  0  0  0  0  0
    2.9880   -1.0639   -0.8900 H   0  0  0  0  0  0  0  0  0  0  0  0
    2.9880   -1.0639    0.8900 H   0  0  0  0  0  0  0  0  0  0  0  0
    1.8040    1.1148    0.8900 H   0  0  0  0  0  0  0  0  0  0  0  0
    1.8040    1.1148   -0.8900 H   0  0  0  0  0  0  0  0  0  0  0  0
    0.4907   -0.9885   -0.8900 H   0  0  0  0  0  0  0  0  0  0  0  0
    0.4907   -0.9885    0.8900 H   0  0  0  0  0  0  0  0  0  0  0  0
   -0.6934    1.1901    0.8900 H   0  0  0  0  0  0  0  0  0  0  0  0
   -0.6934    1.1901   -0.8900 H   0  0  0  0  0  0  0  0  0  0  0  0
   -2.0067   -0.9132   -0.8900 H   0  0  0  0  0  0  0  0  0  0  0  0
   -2.0067   -0.9132    0.8900 H   0  0  0  0  0  0  0  0  0  0  0  0
   -3.1907    1.2655    0.8900 H   0  0  0  0  0  0  0  0  0  0  0  0
   -3.1907    1.2655   -0.8900 H   0  0  0  0  0  0  0  0  0  0  0  0
   -4.5040   -0.8378   -0.8900 H   0  0  0  0  0  0  0  0  0  0  0  0
   -4.5040   -0.8378    0.8900 H   0  0  0  0  0  0  0  0  0  0  0  0
   -5.6880    1.3409    0.8900 H   0  0  0  0  0  0  0  0  0  0  0  0
   -5.6880    1.3409   -0.8900 H   0  0  0  0  0  0  0  0  0  0  0  0
   -8.9418   -0.0982    0.0000 H   0  0  0  0  0  0  0  0  0  0  0  0
  1  2  1  0  0  0  0
  2  3  1  0  0  0  0
  3  4  1  0  0  0  0
  4  5  1  0  0  0  0
  5  6  1  0  0  0  0
  6  7  1  0  0  0  0
  7  8  1  0  0  0  0
  8  9  1  0  0  0  0
  9 10  1  0  0  0  0
 10 11  1  0  0  0  0
 11 12  1  0  0  0  0
 12 13  1  0  0  0  0
 13 14  1  0  0  0  0
 14 15  2  0  0  0  0
 14 16  1  0  0  0  0
  1 17  1  0  0  0  0
  1 18  1  0  0  0  0
  1 19  1  0  0  0  0
  2 20  1  0  0  0  0
  2 21  1  0  0  0  0
  3 22  1  0  0  0  0
  3 23  1  0  0  0  0
  4 24  1  0  0  0  0
  4 25  1  0  0  0  0
  5 26  1  0  0  0  0
  5 27  1  0  0  0  0
  6 28  1  0  0  0  0
  6 29  1  0  0  0  0
  7 30  1  0  0  0  0
  7 31  1  0  0  0  0
  8 32  1  0  0  0  0
  8 33  1  0  0  0  0
  9 34  1  0  0  0  0
  9 35  1  0  0  0  0
 10 36  1  0  0  0  0
 10 37  1  0  0  0  0
 11 38  1  0  0  0  0
 11 39  1  0  0  0  0
 12 40  1  0  0  0  0
 12 41  1  0  0  0  0
 13 42  1  0  0  0  0
 13 43  1  0  0  0  0
 16 44  1  0  0  0  0
M  END
$$$$
