C14H13NO
APtclcactv06281817313D 0   0.00000     0.00000
 
 29 31  0  0  0  0  0  0  0  0999 V2000
    3.0118    2.3825   -0.0007 C   0  0  0  0  0  0  0  0  0  0  0  0
    2.0138    1.2533   -0.0008 C   0  0  0  0  0  0  0  0  0  0  0  0
    2.4579   -0.0649   -0.0003 C   0  0  0  0  0  0  0  0  0  0  0  0
    1.5517   -1.1101    0.0001 C   0  0  0  0  0  0  0  0  0  0  0  0
    0.1863   -0.8465   -0.0000 C   0  0  0  0  0  0  0  0  0  0  0  0
   -0.2573    0.4848   -0.0005 C   0  0  0  0  0  0  0  0  0  0  0  0
    0.6642    1.5294    0.0044 C   0  0  0  0  0  0  0  0  0  0  0  0
   -1.7312    0.4345   -0.0005 C   0  0  0  0  0  0  0  0  0  0  0  0
   -2.7226    1.4123   -0.0009 C   0  0  0  0  0  0  0  0  0  0  0  0
   -4.0504    1.0412   -0.0008 C   0  0  0  0  0  0  0  0  0  0  0  0
   -4.4001   -0.3000   -0.0002 C   0  0  0  0  0  0  0  0  0  0  0  0
   -3.4284   -1.2781    0.0006 C   0  0  0  0  0  0  0  0  0  0  0  0
   -2.0833   -0.9235    0.0000 C   0  0  0  0  0  0  0  0  0  0  0  0
   -0.9214   -1.6756    0.0003 N   0  0  0  0  0  0  0  0  0  0  0  0
    3.7913   -0.3278   -0.0006 O   0  0  0  0  0  0  0  0  0  0  0  0
    4.1815   -1.7025   -0.0001 C   0  0  0  0  0  0  0  0  0  0  0  0
    3.2528    2.6545   -1.0284 H   0  0  0  0  0  0  0  0  0  0  0  0
    2.5853    3.2443    0.5127 H   0  0  0  0  0  0  0  0  0  0  0  0
    3.9190    2.0655    0.5135 H   0  0  0  0  0  0  0  0  0  0  0  0
    1.9046   -2.1308    0.0002 H   0  0  0  0  0  0  0  0  0  0  0  0
    0.3214    2.5535    0.0040 H   0  0  0  0  0  0  0  0  0  0  0  0
   -2.4523    2.4580   -0.0009 H   0  0  0  0  0  0  0  0  0  0  0  0
   -4.8207    1.7982   -0.0007 H   0  0  0  0  0  0  0  0  0  0  0  0
   -5.4429   -0.5812   -0.0001 H   0  0  0  0  0  0  0  0  0  0  0  0
   -3.7118   -2.3203    0.0014 H   0  0  0  0  0  0  0  0  0  0  0  0
   -0.8884   -2.6450    0.0007 H   0  0  0  0  0  0  0  0  0  0  0  0
    3.7867   -2.1919    0.8903 H   0  0  0  0  0  0  0  0  0  0  0  0
    3.7861   -2.1928   -0.8897 H   0  0  0  0  0  0  0  0  0  0  0  0
    5.2693   -1.7714   -0.0004 H   0  0  0  0  0  0  0  0  0  0  0  0
  1  2  1  0  0  0  0
  2  3  2  0  0  0  0
  3  4  1  0  0  0  0
  4  5  2  0  0  0  0
  5  6  1  0  0  0  0
  6  7  2  0  0  0  0
  2  7  1  0  0  0  0
  6  8  1  0  0  0  0
  8  9  2  0  0  0  0
  9 10  1  0  0  0  0
 10 11  2  0  0  0  0
 11 12  1  0  0  0  0
 12 13  2  0  0  0  0
  8 13  1  0  0  0  0
 13 14  1  0  0  0  0
  5 14  1  0  0  0  0
  3 15  1  0  0  0  0
 15 16  1  0  0  0  0
  1 17  1  0  0  0  0
  1 18  1  0  0  0  0
  1 19  1  0  0  0  0
  4 20  1  0  0  0  0
  7 21  1  0  0  0  0
  9 22  1  0  0  0  0
 10 23  1  0  0  0  0
 11 24  1  0  0  0  0
 12 25  1  0  0  0  0
 14 26  1  0  0  0  0
 16 27  1  0  0  0  0
 16 28  1  0  0  0  0
 16 29  1  0  0  0  0
M  END
$$$$
