C18H12O4
APtclcactv06211804483D 0   0.00000     0.00000
 
 34 36  0  0  0  0  0  0  0  0999 V2000
   -5.6972    0.0669    0.0004 C   0  0  0  0  0  0  0  0  0  0  0  0
   -4.9983    0.5585    1.0890 C   0  0  0  0  0  0  0  0  0  0  0  0
   -3.6192    0.5330    1.0958 C   0  0  0  0  0  0  0  0  0  0  0  0
   -2.9284    0.0096    0.0009 C   0  0  0  0  0  0  0  0  0  0  0  0
   -3.6398   -0.4847   -1.0942 C   0  0  0  0  0  0  0  0  0  0  0  0
   -5.0187   -0.4532   -1.0880 C   0  0  0  0  0  0  0  0  0  0  0  0
   -1.4499   -0.0205    0.0010 C   0  0  0  0  0  0  0  0  0  0  0  0
   -0.7935   -1.2129   -0.0002 C   0  0  0  0  0  0  0  0  0  0  0  0
    0.6854   -1.2431   -0.0001 C   0  0  0  0  0  0  0  0  0  0  0  0
    1.2712   -2.3073   -0.0007 O   0  0  0  0  0  0  0  0  0  0  0  0
    1.4499    0.0210    0.0004 C   0  0  0  0  0  0  0  0  0  0  0  0
    0.7935    1.2134    0.0012 C   0  0  0  0  0  0  0  0  0  0  0  0
   -0.6854    1.2435   -0.0037 C   0  0  0  0  0  0  0  0  0  0  0  0
   -1.2712    2.3078   -0.0030 O   0  0  0  0  0  0  0  0  0  0  0  0
    1.4943    2.3721    0.0021 O   0  0  0  0  0  0  0  0  0  0  0  0
    2.9284   -0.0092    0.0006 C   0  0  0  0  0  0  0  0  0  0  0  0
    3.6190   -0.5340    1.0948 C   0  0  0  0  0  0  0  0  0  0  0  0
    4.9981   -0.5595    1.0882 C   0  0  0  0  0  0  0  0  0  0  0  0
    5.6972   -0.0665    0.0004 C   0  0  0  0  0  0  0  0  0  0  0  0
    5.0190    0.4550   -1.0873 C   0  0  0  0  0  0  0  0  0  0  0  0
    3.6399    0.4818   -1.0960 C   0  0  0  0  0  0  0  0  0  0  0  0
   -1.4943   -2.3716   -0.0011 O   0  0  0  0  0  0  0  0  0  0  0  0
   -6.7770    0.0852    0.0020 H   0  0  0  0  0  0  0  0  0  0  0  0
   -5.5338    0.9633    1.9349 H   0  0  0  0  0  0  0  0  0  0  0  0
   -3.0749    0.9172    1.9458 H   0  0  0  0  0  0  0  0  0  0  0  0
   -3.1115   -0.8905   -1.9443 H   0  0  0  0  0  0  0  0  0  0  0  0
   -5.5702   -0.8355   -1.9342 H   0  0  0  0  0  0  0  0  0  0  0  0
    0.9420    3.1659    0.0026 H   0  0  0  0  0  0  0  0  0  0  0  0
    3.0746   -0.9188    1.9445 H   0  0  0  0  0  0  0  0  0  0  0  0
    5.5335   -0.9648    1.9341 H   0  0  0  0  0  0  0  0  0  0  0  0
    6.7769   -0.0885    0.0005 H   0  0  0  0  0  0  0  0  0  0  0  0
    5.5706    0.8385   -1.9329 H   0  0  0  0  0  0  0  0  0  0  0  0
    3.1118    0.8887   -1.9456 H   0  0  0  0  0  0  0  0  0  0  0  0
   -0.9420   -3.1654   -0.0019 H   0  0  0  0  0  0  0  0  0  0  0  0
  1  2  2  0  0  0  0
  2  3  1  0  0  0  0
  3  4  2  0  0  0  0
  4  5  1  0  0  0  0
  5  6  2  0  0  0  0
  1  6  1  0  0  0  0
  4  7  1  0  0  0  0
  7  8  2  0  0  0  0
  8  9  1  0  0  0  0
  9 10  2  0  0  0  0
  9 11  1  0  0  0  0
 11 12  2  0  0  0  0
 12 13  1  0  0  0  0
  7 13  1  0  0  0  0
 13 14  2  0  0  0  0
 12 15  1  0  0  0  0
 11 16  1  0  0  0  0
 16 17  2  0  0  0  0
 17 18  1  0  0  0  0
 18 19  2  0  0  0  0
 19 20  1  0  0  0  0
 20 21  2  0  0  0  0
 16 21  1  0  0  0  0
  8 22  1  0  0  0  0
  1 23  1  0  0  0  0
  2 24  1  0  0  0  0
  3 25  1  0  0  0  0
  5 26  1  0  0  0  0
  6 27  1  0  0  0  0
 15 28  1  0  0  0  0
 17 29  1  0  0  0  0
 18 30  1  0  0  0  0
 19 31  1  0  0  0  0
 20 32  1  0  0  0  0
 21 33  1  0  0  0  0
 22 34  1  0  0  0  0
M  END
$$$$
