C10H16
APtclcactv06281817303D 0   0.00000     0.00000
 
 26 27  0  0  0  0  0  0  0  0999 V2000
    2.0266   -1.1918   -1.0821 C   0  0  0  0  0  0  0  0  0  0  0  0
    1.9121   -0.2374    0.1082 C   0  0  0  0  0  0  0  0  0  0  0  0
    2.4478    1.1396   -0.2888 C   0  0  0  0  0  0  0  0  0  0  0  0
    0.4447   -0.1135    0.5232 C   0  0  0  0  0  0  0  0  0  0  0  0
   -0.3802   -1.4150    0.6255 C   0  0  0  0  0  0  0  0  0  0  0  0
   -1.8479   -0.9194    0.6188 C   0  0  0  0  0  0  0  0  0  0  0  0
   -1.8128    0.2382   -0.3731 C   0  0  0  0  0  0  0  0  0  0  0  0
   -2.7260    0.5630   -1.2544 C   0  0  0  0  0  0  0  0  0  0  0  0
   -0.4874    0.9322   -0.1144 C   0  0  0  0  0  0  0  0  0  0  0  0
   -0.0009    1.0863    1.3623 C   0  0  0  0  0  0  0  0  0  0  0  0
    3.0721   -1.2801   -1.3778 H   0  0  0  0  0  0  0  0  0  0  0  0
    1.6450   -2.1729   -0.7992 H   0  0  0  0  0  0  0  0  0  0  0  0
    1.4445   -0.8025   -1.9173 H   0  0  0  0  0  0  0  0  0  0  0  0
    2.4943   -0.6268    0.9434 H   0  0  0  0  0  0  0  0  0  0  0  0
    2.3662    1.8196    0.5592 H   0  0  0  0  0  0  0  0  0  0  0  0
    3.4932    1.0514   -0.5845 H   0  0  0  0  0  0  0  0  0  0  0  0
    1.8656    1.5290   -1.1241 H   0  0  0  0  0  0  0  0  0  0  0  0
   -0.1890   -2.0584   -0.2333 H   0  0  0  0  0  0  0  0  0  0  0  0
   -0.1567   -1.9383    1.5552 H   0  0  0  0  0  0  0  0  0  0  0  0
   -2.5186   -1.7050    0.2710 H   0  0  0  0  0  0  0  0  0  0  0  0
   -2.1416   -0.5703    1.6087 H   0  0  0  0  0  0  0  0  0  0  0  0
   -3.6309   -0.0210   -1.3346 H   0  0  0  0  0  0  0  0  0  0  0  0
   -2.5738    1.4146   -1.9009 H   0  0  0  0  0  0  0  0  0  0  0  0
   -0.1232    1.6148   -0.8822 H   0  0  0  0  0  0  0  0  0  0  0  0
   -0.7281    0.9015    2.1530 H   0  0  0  0  0  0  0  0  0  0  0  0
    0.7320    1.8656    1.5713 H   0  0  0  0  0  0  0  0  0  0  0  0
  1  2  1  0  0  0  0
  2  3  1  0  0  0  0
  2  4  1  0  0  0  0
  4  5  1  0  0  0  0
  5  6  1  0  0  0  0
  6  7  1  0  0  0  0
  7  8  2  0  0  0  0
  7  9  1  0  0  0  0
  4  9  1  0  0  0  0
  9 10  1  0  0  0  0
  4 10  1  0  0  0  0
  1 11  1  0  0  0  0
  1 12  1  0  0  0  0
  1 13  1  0  0  0  0
  2 14  1  0  0  0  0
  3 15  1  0  0  0  0
  3 16  1  0  0  0  0
  3 17  1  0  0  0  0
  5 18  1  0  0  0  0
  5 19  1  0  0  0  0
  6 20  1  0  0  0  0
  6 21  1  0  0  0  0
  8 22  1  0  0  0  0
  8 23  1  0  0  0  0
  9 24  1  0  0  0  0
 10 25  1  0  0  0  0
 10 26  1  0  0  0  0
M  END
$$$$
