C21H28O6
APtclcactv06281817313D 0   0.00000     0.00000
 
 55 56  0  0  0  0  0  0  0  0999 V2000
    6.9360    2.6411    1.1603 C   0  0  0  0  0  0  0  0  0  0  0  0
    7.4498    1.3228    1.3608 O   0  0  0  0  0  0  0  0  0  0  0  0
    6.7771    0.3010    0.7668 C   0  0  0  0  0  0  0  0  0  0  0  0
    7.2217   -1.0087    0.9199 C   0  0  0  0  0  0  0  0  0  0  0  0
    6.5326   -2.0464    0.3131 C   0  0  0  0  0  0  0  0  0  0  0  0
    5.4060   -1.7795   -0.4424 C   0  0  0  0  0  0  0  0  0  0  0  0
    4.9646   -0.4782   -0.5948 C   0  0  0  0  0  0  0  0  0  0  0  0
    5.6442    0.5611    0.0126 C   0  0  0  0  0  0  0  0  0  0  0  0
    3.7365   -0.1928   -1.4202 C   0  0  0  0  0  0  0  0  0  0  0  0
    2.4975   -0.2377   -0.5236 C   0  0  0  0  0  0  0  0  0  0  0  0
    1.2507    0.0521   -1.3616 C   0  0  0  0  0  0  0  0  0  0  0  0
    0.0023   -0.1151   -0.4930 C   0  0  0  0  0  0  0  0  0  0  0  0
   -1.2478    0.0521   -1.3593 C   0  0  0  0  0  0  0  0  0  0  0  0
   -2.4931   -0.2377   -0.5189 C   0  0  0  0  0  0  0  0  0  0  0  0
   -3.7336   -0.1928   -1.4133 C   0  0  0  0  0  0  0  0  0  0  0  0
   -4.9602   -0.4783   -0.5856 C   0  0  0  0  0  0  0  0  0  0  0  0
   -5.6418    0.5616    0.0188 C   0  0  0  0  0  0  0  0  0  0  0  0
   -6.7698    0.3008    0.7801 C   0  0  0  0  0  0  0  0  0  0  0  0
   -7.2138   -1.0089    0.9344 C   0  0  0  0  0  0  0  0  0  0  0  0
   -6.5260   -2.0466    0.3259 C   0  0  0  0  0  0  0  0  0  0  0  0
   -5.4046   -1.7790   -0.4370 C   0  0  0  0  0  0  0  0  0  0  0  0
   -8.3200   -1.2700    1.6810 O   0  0  0  0  0  0  0  0  0  0  0  0
   -7.4411    1.3226    1.3757 O   0  0  0  0  0  0  0  0  0  0  0  0
   -6.9277    2.6408    1.1742 C   0  0  0  0  0  0  0  0  0  0  0  0
   -1.3084    1.3911   -1.8546 O   0  0  0  0  0  0  0  0  0  0  0  0
    1.3104    1.3911   -1.8570 O   0  0  0  0  0  0  0  0  0  0  0  0
    8.3304   -1.2696    1.6630 O   0  0  0  0  0  0  0  0  0  0  0  0
    7.5641    3.3598    1.6865 H   0  0  0  0  0  0  0  0  0  0  0  0
    6.9336    2.8720    0.0951 H   0  0  0  0  0  0  0  0  0  0  0  0
    5.9182    2.6969    1.5464 H   0  0  0  0  0  0  0  0  0  0  0  0
    6.8757   -3.0638    0.4300 H   0  0  0  0  0  0  0  0  0  0  0  0
    4.8698   -2.5892   -0.9148 H   0  0  0  0  0  0  0  0  0  0  0  0
    5.2970    1.5767   -0.1077 H   0  0  0  0  0  0  0  0  0  0  0  0
    3.8232    0.7960   -1.8707 H   0  0  0  0  0  0  0  0  0  0  0  0
    3.6440   -0.9430   -2.2055 H   0  0  0  0  0  0  0  0  0  0  0  0
    2.4108   -1.2264   -0.0730 H   0  0  0  0  0  0  0  0  0  0  0  0
    2.5900    0.5125    0.2617 H   0  0  0  0  0  0  0  0  0  0  0  0
    1.2063   -0.6437   -2.1995 H   0  0  0  0  0  0  0  0  0  0  0  0
    0.0027   -1.1081   -0.0436 H   0  0  0  0  0  0  0  0  0  0  0  0
    0.0030    0.6396    0.2934 H   0  0  0  0  0  0  0  0  0  0  0  0
   -1.2049   -0.6437   -2.1972 H   0  0  0  0  0  0  0  0  0  0  0  0
   -2.4055   -1.2265   -0.0686 H   0  0  0  0  0  0  0  0  0  0  0  0
   -2.5841    0.5125    0.2665 H   0  0  0  0  0  0  0  0  0  0  0  0
   -3.8213    0.7959   -1.8636 H   0  0  0  0  0  0  0  0  0  0  0  0
   -3.6427   -0.9431   -2.1987 H   0  0  0  0  0  0  0  0  0  0  0  0
   -5.2949    1.5772   -0.1022 H   0  0  0  0  0  0  0  0  0  0  0  0
   -6.8683   -3.0641    0.4444 H   0  0  0  0  0  0  0  0  0  0  0  0
   -4.8694   -2.5886   -0.9107 H   0  0  0  0  0  0  0  0  0  0  0  0
   -9.1458   -1.2587    1.1779 H   0  0  0  0  0  0  0  0  0  0  0  0
   -5.9090    2.6966    1.5581 H   0  0  0  0  0  0  0  0  0  0  0  0
   -6.9277    2.8719    0.1090 H   0  0  0  0  0  0  0  0  0  0  0  0
   -7.5546    3.3595    1.7019 H   0  0  0  0  0  0  0  0  0  0  0  0
   -1.3487    2.0651   -1.1623 H   0  0  0  0  0  0  0  0  0  0  0  0
    1.3520    2.0651   -1.1648 H   0  0  0  0  0  0  0  0  0  0  0  0
    8.1476   -1.4317    2.5986 H   0  0  0  0  0  0  0  0  0  0  0  0
  1  2  1  0  0  0  0
  2  3  1  0  0  0  0
  3  4  2  0  0  0  0
  4  5  1  0  0  0  0
  5  6  2  0  0  0  0
  6  7  1  0  0  0  0
  7  8  2  0  0  0  0
  3  8  1  0  0  0  0
  7  9  1  0  0  0  0
  9 10  1  0  0  0  0
 10 11  1  0  0  0  0
 11 12  1  0  0  0  0
 12 13  1  0  0  0  0
 13 14  1  0  0  0  0
 14 15  1  0  0  0  0
 15 16  1  0  0  0  0
 16 17  2  0  0  0  0
 17 18  1  0  0  0  0
 18 19  2  0  0  0  0
 19 20  1  0  0  0  0
 20 21  2  0  0  0  0
 16 21  1  0  0  0  0
 19 22  1  0  0  0  0
 18 23  1  0  0  0  0
 23 24  1  0  0  0  0
 13 25  1  0  0  0  0
 11 26  1  0  0  0  0
  4 27  1  0  0  0  0
  1 28  1  0  0  0  0
  1 29  1  0  0  0  0
  1 30  1  0  0  0  0
  5 31  1  0  0  0  0
  6 32  1  0  0  0  0
  8 33  1  0  0  0  0
  9 34  1  0  0  0  0
  9 35  1  0  0  0  0
 10 36  1  0  0  0  0
 10 37  1  0  0  0  0
 11 38  1  0  0  0  0
 12 39  1  0  0  0  0
 12 40  1  0  0  0  0
 13 41  1  0  0  0  0
 14 42  1  0  0  0  0
 14 43  1  0  0  0  0
 15 44  1  0  0  0  0
 15 45  1  0  0  0  0
 17 46  1  0  0  0  0
 20 47  1  0  0  0  0
 21 48  1  0  0  0  0
 22 49  1  0  0  0  0
 24 50  1  0  0  0  0
 24 51  1  0  0  0  0
 24 52  1  0  0  0  0
 25 53  1  0  0  0  0
 26 54  1  0  0  0  0
 27 55  1  0  0  0  0
M  END
$$$$
