C20H17NO5
APtclcactv06211804483D 0   0.00000     0.00000
 
 43 47  0  0  0  0  0  0  0  0999 V2000
   -6.3217    2.1790   -0.1057 C   0  0  0  0  0  0  0  0  0  0  0  0
   -5.6279    0.9445    0.0865 O   0  0  0  0  0  0  0  0  0  0  0  0
   -4.2696    0.9836    0.0254 C   0  0  0  0  0  0  0  0  0  0  0  0
   -3.5390   -0.1836    0.2042 C   0  0  0  0  0  0  0  0  0  0  0  0
   -2.1424   -0.1371    0.1395 C   0  0  0  0  0  0  0  0  0  0  0  0
   -1.4933    1.0977   -0.1058 C   0  0  0  0  0  0  0  0  0  0  0  0
   -2.2506    2.2573   -0.2820 C   0  0  0  0  0  0  0  0  0  0  0  0
   -3.6253    2.1909   -0.2211 C   0  0  0  0  0  0  0  0  0  0  0  0
   -0.0344    1.1143   -0.1671 C   0  0  0  0  0  0  0  0  0  0  0  0
    0.6577   -0.0384    0.0112 C   0  0  0  0  0  0  0  0  0  0  0  0
    2.1378   -0.0174   -0.0603 C   0  0  0  0  0  0  0  0  0  0  0  0
    2.8371    1.1741    0.1602 C   0  0  0  0  0  0  0  0  0  0  0  0
    4.2194    1.1170    0.0762 C   0  0  0  0  0  0  0  0  0  0  0  0
    4.8846   -0.0854   -0.2173 C   0  0  0  0  0  0  0  0  0  0  0  0
    4.1843   -1.2680   -0.4352 C   0  0  0  0  0  0  0  0  0  0  0  0
    2.8067   -1.2117   -0.3507 C   0  0  0  0  0  0  0  0  0  0  0  0
    1.9752   -2.4545   -0.5748 C   0  0  0  0  0  0  0  0  0  0  0  0
    0.8359   -2.4523    0.4556 C   0  0  0  0  0  0  0  0  0  0  0  0
    0.0223   -1.2417    0.2557 N   0  0  0  0  0  0  0  0  0  0  0  0
   -1.3206   -1.3347    0.3193 C   0  0  0  0  0  0  0  0  0  0  0  0
   -1.8490   -2.4126    0.5259 O   0  0  0  0  0  0  0  0  0  0  0  0
    6.2162    0.1484   -0.2370 O   0  0  0  0  0  0  0  0  0  0  0  0
    6.3965    1.4139    0.4318 C   0  0  0  0  0  0  0  0  0  0  0  0
    5.1394    2.0950    0.2392 O   0  0  0  0  0  0  0  0  0  0  0  0
   -4.1748   -1.3600    0.4402 O   0  0  0  0  0  0  0  0  0  0  0  0
   -4.5295   -2.1458   -0.6994 C   0  0  0  0  0  0  0  0  0  0  0  0
   -6.0842    2.5796   -1.0911 H   0  0  0  0  0  0  0  0  0  0  0  0
   -7.3956    2.0074   -0.0323 H   0  0  0  0  0  0  0  0  0  0  0  0
   -6.0145    2.8914    0.6599 H   0  0  0  0  0  0  0  0  0  0  0  0
   -1.7609    3.2015   -0.4692 H   0  0  0  0  0  0  0  0  0  0  0  0
   -4.2094    3.0889   -0.3584 H   0  0  0  0  0  0  0  0  0  0  0  0
    0.4906    2.0394   -0.3539 H   0  0  0  0  0  0  0  0  0  0  0  0
    2.3230    2.0968    0.3853 H   0  0  0  0  0  0  0  0  0  0  0  0
    4.6966   -2.1916   -0.6606 H   0  0  0  0  0  0  0  0  0  0  0  0
    1.5607   -2.4442   -1.5828 H   0  0  0  0  0  0  0  0  0  0  0  0
    2.5937   -3.3416   -0.4387 H   0  0  0  0  0  0  0  0  0  0  0  0
    0.2150   -3.3372    0.3161 H   0  0  0  0  0  0  0  0  0  0  0  0
    1.2536   -2.4510    1.4624 H   0  0  0  0  0  0  0  0  0  0  0  0
    6.5890    1.2607    1.4937 H   0  0  0  0  0  0  0  0  0  0  0  0
    7.2097    1.9760   -0.0274 H   0  0  0  0  0  0  0  0  0  0  0  0
   -5.2003   -1.5738   -1.3406 H   0  0  0  0  0  0  0  0  0  0  0  0
   -3.6291   -2.4060   -1.2559 H   0  0  0  0  0  0  0  0  0  0  0  0
   -5.0298   -3.0569   -0.3711 H   0  0  0  0  0  0  0  0  0  0  0  0
  1  2  1  0  0  0  0
  2  3  1  0  0  0  0
  3  4  2  0  0  0  0
  4  5  1  0  0  0  0
  5  6  2  0  0  0  0
  6  7  1  0  0  0  0
  7  8  2  0  0  0  0
  3  8  1  0  0  0  0
  6  9  1  0  0  0  0
  9 10  2  0  0  0  0
 10 11  1  0  0  0  0
 11 12  2  0  0  0  0
 12 13  1  0  0  0  0
 13 14  2  0  0  0  0
 14 15  1  0  0  0  0
 15 16  2  0  0  0  0
 11 16  1  0  0  0  0
 16 17  1  0  0  0  0
 17 18  1  0  0  0  0
 18 19  1  0  0  0  0
 10 19  1  0  0  0  0
 19 20  1  0  0  0  0
  5 20  1  0  0  0  0
 20 21  2  0  0  0  0
 14 22  1  0  0  0  0
 22 23  1  0  0  0  0
 23 24  1  0  0  0  0
 13 24  1  0  0  0  0
  4 25  1  0  0  0  0
 25 26  1  0  0  0  0
  1 27  1  0  0  0  0
  1 28  1  0  0  0  0
  1 29  1  0  0  0  0
  7 30  1  0  0  0  0
  8 31  1  0  0  0  0
  9 32  1  0  0  0  0
 12 33  1  0  0  0  0
 15 34  1  0  0  0  0
 17 35  1  0  0  0  0
 17 36  1  0  0  0  0
 18 37  1  0  0  0  0
 18 38  1  0  0  0  0
 23 39  1  0  0  0  0
 23 40  1  0  0  0  0
 26 41  1  0  0  0  0
 26 42  1  0  0  0  0
 26 43  1  0  0  0  0
M  END
$$$$
