C20H20O8
APtclcactv06281817313D 0   0.00000     0.00000
 
 48 50  0  0  0  0  0  0  0  0999 V2000
    7.0993   -1.9239   -0.6379 C   0  0  0  0  0  0  0  0  0  0  0  0
    6.6373   -0.9286    0.2775 O   0  0  0  0  0  0  0  0  0  0  0  0
    5.3182   -0.6101    0.2278 C   0  0  0  0  0  0  0  0  0  0  0  0
    4.8044    0.3500    1.0909 C   0  0  0  0  0  0  0  0  0  0  0  0
    3.4670    0.6763    1.0439 C   0  0  0  0  0  0  0  0  0  0  0  0
    2.6264    0.0402    0.1259 C   0  0  0  0  0  0  0  0  0  0  0  0
    3.1477   -0.9248   -0.7407 C   0  0  0  0  0  0  0  0  0  0  0  0
    4.4874   -1.2412   -0.6900 C   0  0  0  0  0  0  0  0  0  0  0  0
    1.1938    0.3857    0.0722 C   0  0  0  0  0  0  0  0  0  0  0  0
    0.8363    1.7007    0.0519 C   0  0  0  0  0  0  0  0  0  0  0  0
   -0.5375    2.0499    0.0003 C   0  0  0  0  0  0  0  0  0  0  0  0
   -0.8947    3.2171   -0.0197 O   0  0  0  0  0  0  0  0  0  0  0  0
   -1.5157    0.9505   -0.0287 C   0  0  0  0  0  0  0  0  0  0  0  0
   -1.0401   -0.3723   -0.0040 C   0  0  0  0  0  0  0  0  0  0  0  0
    0.2895   -0.6076    0.0397 O   0  0  0  0  0  0  0  0  0  0  0  0
   -1.9470   -1.4253   -0.0306 C   0  0  0  0  0  0  0  0  0  0  0  0
   -3.3097   -1.1668   -0.0811 C   0  0  0  0  0  0  0  0  0  0  0  0
   -3.7822    0.1440   -0.1061 C   0  0  0  0  0  0  0  0  0  0  0  0
   -2.8919    1.2048   -0.0792 C   0  0  0  0  0  0  0  0  0  0  0  0
   -3.3508    2.4839   -0.1037 O   0  0  0  0  0  0  0  0  0  0  0  0
   -5.1217    0.3825   -0.1561 O   0  0  0  0  0  0  0  0  0  0  0  0
   -5.8034    0.5191    1.0924 C   0  0  0  0  0  0  0  0  0  0  0  0
   -4.1913   -2.2014   -0.1068 O   0  0  0  0  0  0  0  0  0  0  0  0
   -4.5881   -2.6837   -1.3921 C   0  0  0  0  0  0  0  0  0  0  0  0
   -1.4984   -2.7107   -0.0075 O   0  0  0  0  0  0  0  0  0  0  0  0
   -1.3591   -3.3263    1.2745 C   0  0  0  0  0  0  0  0  0  0  0  0
    1.7900    2.6712    0.0812 O   0  0  0  0  0  0  0  0  0  0  0  0
    1.9124    3.4957   -1.0795 C   0  0  0  0  0  0  0  0  0  0  0  0
    8.1679   -2.0828   -0.4929 H   0  0  0  0  0  0  0  0  0  0  0  0
    6.5657   -2.8575   -0.4594 H   0  0  0  0  0  0  0  0  0  0  0  0
    6.9168   -1.5907   -1.6595 H   0  0  0  0  0  0  0  0  0  0  0  0
    5.4546    0.8410    1.7998 H   0  0  0  0  0  0  0  0  0  0  0  0
    3.0684    1.4222    1.7157 H   0  0  0  0  0  0  0  0  0  0  0  0
    2.5018   -1.4190   -1.4514 H   0  0  0  0  0  0  0  0  0  0  0  0
    4.8911   -1.9866   -1.3592 H   0  0  0  0  0  0  0  0  0  0  0  0
   -3.5163    2.8592    0.7721 H   0  0  0  0  0  0  0  0  0  0  0  0
   -5.4367    1.4047    1.6115 H   0  0  0  0  0  0  0  0  0  0  0  0
   -6.8737    0.6204    0.9128 H   0  0  0  0  0  0  0  0  0  0  0  0
   -5.6197   -0.3634    1.7052 H   0  0  0  0  0  0  0  0  0  0  0  0
   -5.3511   -3.4528   -1.2719 H   0  0  0  0  0  0  0  0  0  0  0  0
   -4.9922   -1.8599   -1.9805 H   0  0  0  0  0  0  0  0  0  0  0  0
   -3.7238   -3.1063   -1.9043 H   0  0  0  0  0  0  0  0  0  0  0  0
   -0.9156   -4.3150    1.1566 H   0  0  0  0  0  0  0  0  0  0  0  0
   -0.7155   -2.7122    1.9044 H   0  0  0  0  0  0  0  0  0  0  0  0
   -2.3399   -3.4213    1.7405 H   0  0  0  0  0  0  0  0  0  0  0  0
    2.0396    2.8665   -1.9604 H   0  0  0  0  0  0  0  0  0  0  0  0
    1.0127    4.1007   -1.1919 H   0  0  0  0  0  0  0  0  0  0  0  0
    2.7783    4.1489   -0.9714 H   0  0  0  0  0  0  0  0  0  0  0  0
  1  2  1  0  0  0  0
  2  3  1  0  0  0  0
  3  4  2  0  0  0  0
  4  5  1  0  0  0  0
  5  6  2  0  0  0  0
  6  7  1  0  0  0  0
  7  8  2  0  0  0  0
  3  8  1  0  0  0  0
  6  9  1  0  0  0  0
  9 10  2  0  0  0  0
 10 11  1  0  0  0  0
 11 12  2  0  0  0  0
 11 13  1  0  0  0  0
 13 14  2  0  0  0  0
 14 15  1  0  0  0  0
  9 15  1  0  0  0  0
 14 16  1  0  0  0  0
 16 17  2  0  0  0  0
 17 18  1  0  0  0  0
 18 19  2  0  0  0  0
 13 19  1  0  0  0  0
 19 20  1  0  0  0  0
 18 21  1  0  0  0  0
 21 22  1  0  0  0  0
 17 23  1  0  0  0  0
 23 24  1  0  0  0  0
 16 25  1  0  0  0  0
 25 26  1  0  0  0  0
 10 27  1  0  0  0  0
 27 28  1  0  0  0  0
  1 29  1  0  0  0  0
  1 30  1  0  0  0  0
  1 31  1  0  0  0  0
  4 32  1  0  0  0  0
  5 33  1  0  0  0  0
  7 34  1  0  0  0  0
  8 35  1  0  0  0  0
 20 36  1  0  0  0  0
 22 37  1  0  0  0  0
 22 38  1  0  0  0  0
 22 39  1  0  0  0  0
 24 40  1  0  0  0  0
 24 41  1  0  0  0  0
 24 42  1  0  0  0  0
 26 43  1  0  0  0  0
 26 44  1  0  0  0  0
 26 45  1  0  0  0  0
 28 46  1  0  0  0  0
 28 47  1  0  0  0  0
 28 48  1  0  0  0  0
M  END
$$$$
