C14H30
APtclcactv06211806363D 0   0.00000     0.00000
 
 44 43  0  0  0  0  0  0  0  0999 V2000
    7.8452    0.4290    0.1806 C   0  0  0  0  0  0  0  0  0  0  0  0
    6.6133   -0.3917   -0.2063 C   0  0  0  0  0  0  0  0  0  0  0  0
    5.3474    0.3720    0.1876 C   0  0  0  0  0  0  0  0  0  0  0  0
    4.1155   -0.4487   -0.1994 C   0  0  0  0  0  0  0  0  0  0  0  0
    2.8496    0.3150    0.1945 C   0  0  0  0  0  0  0  0  0  0  0  0
    1.6177   -0.5057   -0.1924 C   0  0  0  0  0  0  0  0  0  0  0  0
    0.3518    0.2580    0.2015 C   0  0  0  0  0  0  0  0  0  0  0  0
   -0.8802   -0.5627   -0.1855 C   0  0  0  0  0  0  0  0  0  0  0  0
   -2.1461    0.2010    0.2084 C   0  0  0  0  0  0  0  0  0  0  0  0
   -3.3780   -0.6197   -0.1785 C   0  0  0  0  0  0  0  0  0  0  0  0
   -4.6439    0.1440    0.2154 C   0  0  0  0  0  0  0  0  0  0  0  0
   -4.7400    1.4307   -0.6070 C   0  0  0  0  0  0  0  0  0  0  0  0
   -5.8711   -0.7281   -0.0568 C   0  0  0  0  0  0  0  0  0  0  0  0
   -7.1260   -0.0156    0.4515 C   0  0  0  0  0  0  0  0  0  0  0  0
    7.8443    0.6002    1.2571 H   0  0  0  0  0  0  0  0  0  0  0  0
    8.7471   -0.1151   -0.1000 H   0  0  0  0  0  0  0  0  0  0  0  0
    7.8219    1.3866   -0.3395 H   0  0  0  0  0  0  0  0  0  0  0  0
    6.6142   -0.5628   -1.2828 H   0  0  0  0  0  0  0  0  0  0  0  0
    6.6366   -1.3493    0.3138 H   0  0  0  0  0  0  0  0  0  0  0  0
    5.3465    0.5432    1.2641 H   0  0  0  0  0  0  0  0  0  0  0  0
    5.3241    1.3296   -0.3326 H   0  0  0  0  0  0  0  0  0  0  0  0
    4.1164   -0.6198   -1.2759 H   0  0  0  0  0  0  0  0  0  0  0  0
    4.1388   -1.4063    0.3208 H   0  0  0  0  0  0  0  0  0  0  0  0
    2.8487    0.4862    1.2710 H   0  0  0  0  0  0  0  0  0  0  0  0
    2.8263    1.2726   -0.3256 H   0  0  0  0  0  0  0  0  0  0  0  0
    1.6186   -0.6768   -1.2689 H   0  0  0  0  0  0  0  0  0  0  0  0
    1.6410   -1.4633    0.3277 H   0  0  0  0  0  0  0  0  0  0  0  0
    0.3509    0.4292    1.2780 H   0  0  0  0  0  0  0  0  0  0  0  0
    0.3285    1.2156   -0.3187 H   0  0  0  0  0  0  0  0  0  0  0  0
   -0.8792   -0.7338   -1.2620 H   0  0  0  0  0  0  0  0  0  0  0  0
   -0.8569   -1.5203    0.3347 H   0  0  0  0  0  0  0  0  0  0  0  0
   -2.1470    0.3722    1.2849 H   0  0  0  0  0  0  0  0  0  0  0  0
   -2.1694    1.1586   -0.3117 H   0  0  0  0  0  0  0  0  0  0  0  0
   -3.3771   -0.7908   -1.2550 H   0  0  0  0  0  0  0  0  0  0  0  0
   -3.3547   -1.5772    0.3416 H   0  0  0  0  0  0  0  0  0  0  0  0
   -4.6029    0.3928    1.2758 H   0  0  0  0  0  0  0  0  0  0  0  0
   -3.8657    2.0520   -0.4130 H   0  0  0  0  0  0  0  0  0  0  0  0
   -4.7809    1.1819   -1.6674 H   0  0  0  0  0  0  0  0  0  0  0  0
   -5.6418    1.9747   -0.3263 H   0  0  0  0  0  0  0  0  0  0  0  0
   -5.9619   -0.9032   -1.1288 H   0  0  0  0  0  0  0  0  0  0  0  0
   -5.7607   -1.6819    0.4591 H   0  0  0  0  0  0  0  0  0  0  0  0
   -8.0004   -0.6369    0.2576 H   0  0  0  0  0  0  0  0  0  0  0  0
   -7.0353    0.1595    1.5235 H   0  0  0  0  0  0  0  0  0  0  0  0
   -7.2365    0.9382   -0.0644 H   0  0  0  0  0  0  0  0  0  0  0  0
  1  2  1  0  0  0  0
  2  3  1  0  0  0  0
  3  4  1  0  0  0  0
  4  5  1  0  0  0  0
  5  6  1  0  0  0  0
  6  7  1  0  0  0  0
  7  8  1  0  0  0  0
  8  9  1  0  0  0  0
  9 10  1  0  0  0  0
 10 11  1  0  0  0  0
 11 12  1  0  0  0  0
 11 13  1  0  0  0  0
 13 14  1  0  0  0  0
  1 15  1  0  0  0  0
  1 16  1  0  0  0  0
  1 17  1  0  0  0  0
  2 18  1  0  0  0  0
  2 19  1  0  0  0  0
  3 20  1  0  0  0  0
  3 21  1  0  0  0  0
  4 22  1  0  0  0  0
  4 23  1  0  0  0  0
  5 24  1  0  0  0  0
  5 25  1  0  0  0  0
  6 26  1  0  0  0  0
  6 27  1  0  0  0  0
  7 28  1  0  0  0  0
  7 29  1  0  0  0  0
  8 30  1  0  0  0  0
  8 31  1  0  0  0  0
  9 32  1  0  0  0  0
  9 33  1  0  0  0  0
 10 34  1  0  0  0  0
 10 35  1  0  0  0  0
 11 36  1  0  0  0  0
 12 37  1  0  0  0  0
 12 38  1  0  0  0  0
 12 39  1  0  0  0  0
 13 40  1  0  0  0  0
 13 41  1  0  0  0  0
 14 42  1  0  0  0  0
 14 43  1  0  0  0  0
 14 44  1  0  0  0  0
M  END
$$$$
