C9H10O3
APtclcactv06211804483D 0   0.00000     0.00000
 
 22 22  0  0  0  0  0  0  0  0999 V2000
    2.9142    1.8837    0.0061 C   0  0  0  0  0  0  0  0  0  0  0  0
    2.3802    0.4745   -0.0052 C   0  0  0  0  0  0  0  0  0  0  0  0
    3.1478   -0.4651   -0.0142 O   0  0  0  0  0  0  0  0  0  0  0  0
    0.9343    0.2391   -0.0053 C   0  0  0  0  0  0  0  0  0  0  0  0
    0.4321   -1.0746   -0.0159 C   0  0  0  0  0  0  0  0  0  0  0  0
   -0.9363   -1.2835   -0.0154 C   0  0  0  0  0  0  0  0  0  0  0  0
   -1.8021   -0.1995   -0.0046 C   0  0  0  0  0  0  0  0  0  0  0  0
   -1.3018    1.1003    0.0054 C   0  0  0  0  0  0  0  0  0  0  0  0
    0.0444    1.3220    0.0109 C   0  0  0  0  0  0  0  0  0  0  0  0
   -3.1428   -0.4066   -0.0042 O   0  0  0  0  0  0  0  0  0  0  0  0
   -3.9784    0.7526    0.0073 C   0  0  0  0  0  0  0  0  0  0  0  0
    1.2833   -2.1302   -0.0269 O   0  0  0  0  0  0  0  0  0  0  0  0
    3.0416    2.2322   -1.0188 H   0  0  0  0  0  0  0  0  0  0  0  0
    2.2113    2.5344    0.5264 H   0  0  0  0  0  0  0  0  0  0  0  0
    3.8758    1.9037    0.5189 H   0  0  0  0  0  0  0  0  0  0  0  0
   -1.3295   -2.2894   -0.0239 H   0  0  0  0  0  0  0  0  0  0  0  0
   -1.9836    1.9378    0.0134 H   0  0  0  0  0  0  0  0  0  0  0  0
    0.4247    2.3328    0.0187 H   0  0  0  0  0  0  0  0  0  0  0  0
   -3.7725    1.3401    0.9020 H   0  0  0  0  0  0  0  0  0  0  0  0
   -3.7754    1.3555   -0.8779 H   0  0  0  0  0  0  0  0  0  0  0  0
   -5.0245    0.4466    0.0064 H   0  0  0  0  0  0  0  0  0  0  0  0
    1.5319   -2.4441    0.8533 H   0  0  0  0  0  0  0  0  0  0  0  0
  1  2  1  0  0  0  0
  2  3  2  0  0  0  0
  2  4  1  0  0  0  0
  4  5  2  0  0  0  0
  5  6  1  0  0  0  0
  6  7  2  0  0  0  0
  7  8  1  0  0  0  0
  8  9  2  0  0  0  0
  4  9  1  0  0  0  0
  7 10  1  0  0  0  0
 10 11  1  0  0  0  0
  5 12  1  0  0  0  0
  1 13  1  0  0  0  0
  1 14  1  0  0  0  0
  1 15  1  0  0  0  0
  6 16  1  0  0  0  0
  8 17  1  0  0  0  0
  9 18  1  0  0  0  0
 11 19  1  0  0  0  0
 11 20  1  0  0  0  0
 11 21  1  0  0  0  0
 12 22  1  0  0  0  0
M  END
$$$$
