C9H15NO
APtclcactv06211806003D 0   0.00000     0.00000
 
 26 27  0  0  0  0  0  0  0  0999 V2000
    2.6240    0.0008   -0.5976 C   0  0  0  0  0  0  0  0  0  0  0  0
    1.1803    0.0009   -0.8691 N   0  0  0  0  0  0  0  0  0  0  0  0
    0.5500    1.2204   -0.3577 C   0  0  0  0  0  0  0  0  0  0  0  0
    0.6016    1.2449    1.1692 C   0  0  0  0  0  0  0  0  0  0  0  0
   -0.0955   -0.0017    1.7215 C   0  0  0  0  0  0  0  0  0  0  0  0
    0.6022   -1.2470    1.1669 C   0  0  0  0  0  0  0  0  0  0  0  0
    0.5503   -1.2197   -0.3599 C   0  0  0  0  0  0  0  0  0  0  0  0
   -0.9048   -1.2947   -0.8305 C   0  0  0  0  0  0  0  0  0  0  0  0
   -1.5944    0.0004   -0.4557 C   0  0  0  0  0  0  0  0  0  0  0  0
   -2.6559   -0.0002    0.1202 O   0  0  0  0  0  0  0  0  0  0  0  0
   -0.9050    1.2961   -0.8284 C   0  0  0  0  0  0  0  0  0  0  0  0
    2.7914    0.0561    0.4781 H   0  0  0  0  0  0  0  0  0  0  0  0
    3.0670   -0.9156   -0.9876 H   0  0  0  0  0  0  0  0  0  0  0  0
    3.0848    0.8618   -1.0817 H   0  0  0  0  0  0  0  0  0  0  0  0
    1.0860    2.0868   -0.7452 H   0  0  0  0  0  0  0  0  0  0  0  0
    1.6408    1.2559    1.4977 H   0  0  0  0  0  0  0  0  0  0  0  0
    0.0946    2.1374    1.5358 H   0  0  0  0  0  0  0  0  0  0  0  0
   -0.0334   -0.0027    2.8097 H   0  0  0  0  0  0  0  0  0  0  0  0
   -1.1412   -0.0017    1.4138 H   0  0  0  0  0  0  0  0  0  0  0  0
    1.6415   -1.2581    1.4952 H   0  0  0  0  0  0  0  0  0  0  0  0
    0.0957   -2.1405    1.5320 H   0  0  0  0  0  0  0  0  0  0  0  0
    1.0863   -2.0853   -0.7492 H   0  0  0  0  0  0  0  0  0  0  0  0
   -0.9347   -1.4270   -1.9120 H   0  0  0  0  0  0  0  0  0  0  0  0
   -1.4055   -2.1316   -0.3437 H   0  0  0  0  0  0  0  0  0  0  0  0
   -1.4059    2.1322   -0.3403 H   0  0  0  0  0  0  0  0  0  0  0  0
   -0.9347    1.4301   -1.9097 H   0  0  0  0  0  0  0  0  0  0  0  0
  1  2  1  0  0  0  0
  2  3  1  0  0  0  0
  3  4  1  0  0  0  0
  4  5  1  0  0  0  0
  5  6  1  0  0  0  0
  6  7  1  0  0  0  0
  2  7  1  0  0  0  0
  7  8  1  0  0  0  0
  8  9  1  0  0  0  0
  9 10  2  0  0  0  0
  9 11  1  0  0  0  0
  3 11  1  0  0  0  0
  1 12  1  0  0  0  0
  1 13  1  0  0  0  0
  1 14  1  0  0  0  0
  3 15  1  0  0  0  0
  4 16  1  0  0  0  0
  4 17  1  0  0  0  0
  5 18  1  0  0  0  0
  5 19  1  0  0  0  0
  6 20  1  0  0  0  0
  6 21  1  0  0  0  0
  7 22  1  0  0  0  0
  8 23  1  0  0  0  0
  8 24  1  0  0  0  0
 11 25  1  0  0  0  0
 11 26  1  0  0  0  0
M  END
$$$$
