C4H6O4
APtclcactv06201809503D 0   0.00000     0.00000
 
 14 13  0  0  0  0  0  0  0  0999 V2000
    0.5223    0.5589    0.0000 C   0  0  0  0  0  0  0  0  0  0  0  0
   -0.5223   -0.5589    0.0000 C   0  0  0  0  0  0  0  0  0  0  0  0
   -1.9034    0.0442    0.0000 C   0  0  0  0  0  0  0  0  0  0  0  0
   -2.0383    1.2449   -0.0000 O   0  0  0  0  0  0  0  0  0  0  0  0
   -2.9837   -0.7526   -0.0000 O   0  0  0  0  0  0  0  0  0  0  0  0
    1.9034   -0.0442    0.0000 C   0  0  0  0  0  0  0  0  0  0  0  0
    2.0383   -1.2449   -0.0000 O   0  0  0  0  0  0  0  0  0  0  0  0
    2.9837    0.7526   -0.0000 O   0  0  0  0  0  0  0  0  0  0  0  0
    0.3950    1.1752   -0.8900 H   0  0  0  0  0  0  0  0  0  0  0  0
    0.3950    1.1752    0.8900 H   0  0  0  0  0  0  0  0  0  0  0  0
   -0.3950   -1.1752   -0.8900 H   0  0  0  0  0  0  0  0  0  0  0  0
   -0.3950   -1.1752    0.8900 H   0  0  0  0  0  0  0  0  0  0  0  0
   -3.8484   -0.3197   -0.0000 H   0  0  0  0  0  0  0  0  0  0  0  0
    3.8484    0.3197   -0.0000 H   0  0  0  0  0  0  0  0  0  0  0  0
  1  2  1  0  0  0  0
  2  3  1  0  0  0  0
  3  4  2  0  0  0  0
  3  5  1  0  0  0  0
  1  6  1  0  0  0  0
  6  7  2  0  0  0  0
  6  8  1  0  0  0  0
  1  9  1  0  0  0  0
  1 10  1  0  0  0  0
  2 11  1  0  0  0  0
  2 12  1  0  0  0  0
  5 13  1  0  0  0  0
  8 14  1  0  0  0  0
M  END
$$$$
