C25H34O2
APtclcactv06281817313D 0   0.00000     0.00000
 
 61 61  0  0  0  0  0  0  0  0999 V2000
   -4.2562   -1.6498   -1.5307 C   0  0  0  0  0  0  0  0  0  0  0  0
   -5.3609   -1.0645   -0.6891 C   0  0  0  0  0  0  0  0  0  0  0  0
   -5.1474    0.1016   -0.1024 C   0  0  0  0  0  0  0  0  0  0  0  0
   -6.1622    0.8007    0.7548 C   0  0  0  0  0  0  0  0  0  0  0  0
   -7.2518   -0.1821    1.1883 C   0  0  0  0  0  0  0  0  0  0  0  0
   -7.7591   -0.9261   -0.0530 C   0  0  0  0  0  0  0  0  0  0  0  0
   -6.6435   -1.8349   -0.5687 C   0  0  0  0  0  0  0  0  0  0  0  0
   -8.9004   -1.7135    0.2924 O   0  0  0  0  0  0  0  0  0  0  0  0
   -5.4716    1.3717    1.9950 C   0  0  0  0  0  0  0  0  0  0  0  0
   -6.7969    1.9434   -0.0402 C   0  0  0  0  0  0  0  0  0  0  0  0
   -3.8896    0.7261   -0.2935 C   0  0  0  0  0  0  0  0  0  0  0  0
   -2.7472    0.0721    0.0468 C   0  0  0  0  0  0  0  0  0  0  0  0
   -1.4971    0.6336   -0.2637 C   0  0  0  0  0  0  0  0  0  0  0  0
   -0.3495   -0.0234    0.0782 C   0  0  0  0  0  0  0  0  0  0  0  0
    0.8967    0.5362   -0.2313 C   0  0  0  0  0  0  0  0  0  0  0  0
    2.0548   -0.1268    0.1138 C   0  0  0  0  0  0  0  0  0  0  0  0
    3.2989    0.4319   -0.1953 C   0  0  0  0  0  0  0  0  0  0  0  0
    4.4585   -0.2319    0.1502 C   0  0  0  0  0  0  0  0  0  0  0  0
    5.7015    0.3263   -0.1586 C   0  0  0  0  0  0  0  0  0  0  0  0
    6.8618   -0.3380    0.1872 C   0  0  0  0  0  0  0  0  0  0  0  0
    8.1042    0.2199   -0.1214 C   0  0  0  0  0  0  0  0  0  0  0  0
    9.2650   -0.4446    0.2245 C   0  0  0  0  0  0  0  0  0  0  0  0
    9.1905   -1.7716    0.9348 C   0  0  0  0  0  0  0  0  0  0  0  0
   10.5070    0.1131   -0.0841 C   0  0  0  0  0  0  0  0  0  0  0  0
   11.5292   -0.4721    0.2205 O   0  0  0  0  0  0  0  0  0  0  0  0
    3.3735    1.7589   -0.9057 C   0  0  0  0  0  0  0  0  0  0  0  0
   -1.4225    1.9605   -0.9741 C   0  0  0  0  0  0  0  0  0  0  0  0
   -3.5645   -2.1987   -0.8917 H   0  0  0  0  0  0  0  0  0  0  0  0
   -4.6830   -2.3272   -2.2704 H   0  0  0  0  0  0  0  0  0  0  0  0
   -3.7222   -0.8469   -2.0388 H   0  0  0  0  0  0  0  0  0  0  0  0
   -6.8383   -0.8967    1.8999 H   0  0  0  0  0  0  0  0  0  0  0  0
   -8.0747    0.3638    1.6497 H   0  0  0  0  0  0  0  0  0  0  0  0
   -8.0276   -0.2068   -0.8267 H   0  0  0  0  0  0  0  0  0  0  0  0
   -6.9238   -2.2333   -1.5438 H   0  0  0  0  0  0  0  0  0  0  0  0
   -6.4984   -2.6601    0.1284 H   0  0  0  0  0  0  0  0  0  0  0  0
   -9.2732   -2.2117   -0.4479 H   0  0  0  0  0  0  0  0  0  0  0  0
   -4.7666    2.1466    1.6938 H   0  0  0  0  0  0  0  0  0  0  0  0
   -6.2193    1.8001    2.6623 H   0  0  0  0  0  0  0  0  0  0  0  0
   -4.9368    0.5750    2.5122 H   0  0  0  0  0  0  0  0  0  0  0  0
   -7.2850    1.5412   -0.9279 H   0  0  0  0  0  0  0  0  0  0  0  0
   -7.5342    2.4523    0.5807 H   0  0  0  0  0  0  0  0  0  0  0  0
   -6.0237    2.6509   -0.3398 H   0  0  0  0  0  0  0  0  0  0  0  0
   -3.8385    1.7214   -0.7096 H   0  0  0  0  0  0  0  0  0  0  0  0
   -2.8006   -0.8788    0.5559 H   0  0  0  0  0  0  0  0  0  0  0  0
   -0.4029   -0.9744    0.5873 H   0  0  0  0  0  0  0  0  0  0  0  0
    0.9501    1.4872   -0.7404 H   0  0  0  0  0  0  0  0  0  0  0  0
    2.0014   -1.0778    0.6229 H   0  0  0  0  0  0  0  0  0  0  0  0
    4.4051   -1.1829    0.6593 H   0  0  0  0  0  0  0  0  0  0  0  0
    5.7549    1.2773   -0.6677 H   0  0  0  0  0  0  0  0  0  0  0  0
    6.8084   -1.2890    0.6963 H   0  0  0  0  0  0  0  0  0  0  0  0
    8.1576    1.1709   -0.6305 H   0  0  0  0  0  0  0  0  0  0  0  0
    9.1650   -2.5762    0.2000 H   0  0  0  0  0  0  0  0  0  0  0  0
   10.0651   -1.8910    1.5743 H   0  0  0  0  0  0  0  0  0  0  0  0
    8.2874   -1.8073    1.5441 H   0  0  0  0  0  0  0  0  0  0  0  0
   10.5604    1.0641   -0.5932 H   0  0  0  0  0  0  0  0  0  0  0  0
    3.3989    2.5635   -0.1708 H   0  0  0  0  0  0  0  0  0  0  0  0
    4.2766    1.7946   -1.5150 H   0  0  0  0  0  0  0  0  0  0  0  0
    2.4988    1.8783   -1.5451 H   0  0  0  0  0  0  0  0  0  0  0  0
   -1.3971    2.7651   -0.2392 H   0  0  0  0  0  0  0  0  0  0  0  0
   -0.5194    1.9963   -1.5834 H   0  0  0  0  0  0  0  0  0  0  0  0
   -2.2972    2.0800   -1.6135 H   0  0  0  0  0  0  0  0  0  0  0  0
  1  2  1  0  0  0  0
  2  3  2  0  0  0  0
  3  4  1  0  0  0  0
  4  5  1  0  0  0  0
  5  6  1  0  0  0  0
  6  7  1  0  0  0  0
  2  7  1  0  0  0  0
  6  8  1  0  0  0  0
  4  9  1  0  0  0  0
  4 10  1  0  0  0  0
  3 11  1  0  0  0  0
 11 12  2  0  0  0  0
 12 13  1  0  0  0  0
 13 14  2  0  0  0  0
 14 15  1  0  0  0  0
 15 16  2  0  0  0  0
 16 17  1  0  0  0  0
 17 18  2  0  0  0  0
 18 19  1  0  0  0  0
 19 20  2  0  0  0  0
 20 21  1  0  0  0  0
 21 22  2  0  0  0  0
 22 23  1  0  0  0  0
 22 24  1  0  0  0  0
 24 25  2  0  0  0  0
 17 26  1  0  0  0  0
 13 27  1  0  0  0  0
  1 28  1  0  0  0  0
  1 29  1  0  0  0  0
  1 30  1  0  0  0  0
  5 31  1  0  0  0  0
  5 32  1  0  0  0  0
  6 33  1  0  0  0  0
  7 34  1  0  0  0  0
  7 35  1  0  0  0  0
  8 36  1  0  0  0  0
  9 37  1  0  0  0  0
  9 38  1  0  0  0  0
  9 39  1  0  0  0  0
 10 40  1  0  0  0  0
 10 41  1  0  0  0  0
 10 42  1  0  0  0  0
 11 43  1  0  0  0  0
 12 44  1  0  0  0  0
 14 45  1  0  0  0  0
 15 46  1  0  0  0  0
 16 47  1  0  0  0  0
 18 48  1  0  0  0  0
 19 49  1  0  0  0  0
 20 50  1  0  0  0  0
 21 51  1  0  0  0  0
 23 52  1  0  0  0  0
 23 53  1  0  0  0  0
 23 54  1  0  0  0  0
 24 55  1  0  0  0  0
 26 56  1  0  0  0  0
 26 57  1  0  0  0  0
 26 58  1  0  0  0  0
 27 59  1  0  0  0  0
 27 60  1  0  0  0  0
 27 61  1  0  0  0  0
M  END
$$$$
