C15H24
APtclcactv06281817313D 0   0.00000     0.00000
 
 39 41  0  0  0  0  0  0  0  0999 V2000
    2.9430    1.7056    0.1446 C   0  0  0  0  0  0  0  0  0  0  0  0
    2.2659    0.4897   -0.4910 C   0  0  0  0  0  0  0  0  0  0  0  0
    2.8035   -0.8115    0.1485 C   0  0  0  0  0  0  0  0  0  0  0  0
    1.5563   -1.7272    0.2601 C   0  0  0  0  0  0  0  0  0  0  0  0
    0.4351   -0.7313    0.6387 C   0  0  0  0  0  0  0  0  0  0  0  0
    0.7708    0.5202   -0.2127 C   0  0  0  0  0  0  0  0  0  0  0  0
    0.2957    1.7733    0.5082 C   0  0  0  0  0  0  0  0  0  0  0  0
   -1.1470    1.5489    0.9864 C   0  0  0  0  0  0  0  0  0  0  0  0
   -1.9704    0.9700   -0.1429 C   0  0  0  0  0  0  0  0  0  0  0  0
   -3.1481    1.4613   -0.4389 C   0  0  0  0  0  0  0  0  0  0  0  0
   -1.3895   -0.2015   -0.9268 C   0  0  0  0  0  0  0  0  0  0  0  0
   -0.0466    0.3327   -1.5075 C   0  0  0  0  0  0  0  0  0  0  0  0
   -0.9205   -1.2401    0.1243 C   0  0  0  0  0  0  0  0  0  0  0  0
   -0.7556   -2.6141   -0.5283 C   0  0  0  0  0  0  0  0  0  0  0  0
   -1.9262   -1.3183    1.2746 C   0  0  0  0  0  0  0  0  0  0  0  0
    4.0168    1.6599   -0.0372 H   0  0  0  0  0  0  0  0  0  0  0  0
    2.5387    2.6176   -0.2946 H   0  0  0  0  0  0  0  0  0  0  0  0
    2.7560    1.7056    1.2184 H   0  0  0  0  0  0  0  0  0  0  0  0
    2.4469    0.4807   -1.5659 H   0  0  0  0  0  0  0  0  0  0  0  0
    3.5561   -1.2691   -0.4937 H   0  0  0  0  0  0  0  0  0  0  0  0
    3.2168   -0.6082    1.1364 H   0  0  0  0  0  0  0  0  0  0  0  0
    1.3415   -2.2057   -0.6954 H   0  0  0  0  0  0  0  0  0  0  0  0
    1.6926   -2.4718    1.0443 H   0  0  0  0  0  0  0  0  0  0  0  0
    0.4261   -0.5121    1.7064 H   0  0  0  0  0  0  0  0  0  0  0  0
    0.9393    1.9677    1.3661 H   0  0  0  0  0  0  0  0  0  0  0  0
    0.3267    2.6221   -0.1750 H   0  0  0  0  0  0  0  0  0  0  0  0
   -1.1469    0.8561    1.8278 H   0  0  0  0  0  0  0  0  0  0  0  0
   -1.5778    2.4999    1.2994 H   0  0  0  0  0  0  0  0  0  0  0  0
   -3.5444    2.2918    0.1266 H   0  0  0  0  0  0  0  0  0  0  0  0
   -3.7228    1.0360   -1.2484 H   0  0  0  0  0  0  0  0  0  0  0  0
   -2.0671   -0.5984   -1.6827 H   0  0  0  0  0  0  0  0  0  0  0  0
   -0.1907    1.2822   -2.0231 H   0  0  0  0  0  0  0  0  0  0  0  0
    0.4187   -0.4028   -2.1637 H   0  0  0  0  0  0  0  0  0  0  0  0
   -0.1256   -2.5228   -1.4131 H   0  0  0  0  0  0  0  0  0  0  0  0
   -0.2900   -3.2993    0.1801 H   0  0  0  0  0  0  0  0  0  0  0  0
   -1.7336   -2.9991   -0.8168 H   0  0  0  0  0  0  0  0  0  0  0  0
   -2.8551   -1.7614    0.9156 H   0  0  0  0  0  0  0  0  0  0  0  0
   -1.5156   -1.9338    2.0750 H   0  0  0  0  0  0  0  0  0  0  0  0
   -2.1244   -0.3154    1.6527 H   0  0  0  0  0  0  0  0  0  0  0  0
  1  2  1  0  0  0  0
  2  3  1  0  0  0  0
  3  4  1  0  0  0  0
  4  5  1  0  0  0  0
  5  6  1  0  0  0  0
  2  6  1  0  0  0  0
  6  7  1  0  0  0  0
  7  8  1  0  0  0  0
  8  9  1  0  0  0  0
  9 10  2  0  0  0  0
  9 11  1  0  0  0  0
 11 12  1  0  0  0  0
  6 12  1  0  0  0  0
 11 13  1  0  0  0  0
  5 13  1  0  0  0  0
 13 14  1  0  0  0  0
 13 15  1  0  0  0  0
  1 16  1  0  0  0  0
  1 17  1  0  0  0  0
  1 18  1  0  0  0  0
  2 19  1  0  0  0  0
  3 20  1  0  0  0  0
  3 21  1  0  0  0  0
  4 22  1  0  0  0  0
  4 23  1  0  0  0  0
  5 24  1  0  0  0  0
  7 25  1  0  0  0  0
  7 26  1  0  0  0  0
  8 27  1  0  0  0  0
  8 28  1  0  0  0  0
 10 29  1  0  0  0  0
 10 30  1  0  0  0  0
 11 31  1  0  0  0  0
 12 32  1  0  0  0  0
 12 33  1  0  0  0  0
 14 34  1  0  0  0  0
 14 35  1  0  0  0  0
 14 36  1  0  0  0  0
 15 37  1  0  0  0  0
 15 38  1  0  0  0  0
 15 39  1  0  0  0  0
M  END
$$$$
