C5H6S
APtclcactv06211806003D 0   0.00000     0.00000
 
 12 12  0  0  0  0  0  0  0  0999 V2000
    2.3347    0.0800    0.0010 C   0  0  0  0  0  0  0  0  0  0  0  0
    0.8321    0.1950    0.0016 C   0  0  0  0  0  0  0  0  0  0  0  0
    0.1486    1.3404   -0.0015 C   0  0  0  0  0  0  0  0  0  0  0  0
   -1.2283    1.1981   -0.0007 C   0  0  0  0  0  0  0  0  0  0  0  0
   -1.6629   -0.0630    0.0030 C   0  0  0  0  0  0  0  0  0  0  0  0
   -0.2886   -1.1606   -0.0013 S   0  0  0  0  0  0  0  0  0  0  0  0
    2.6976    0.0553    1.0285 H   0  0  0  0  0  0  0  0  0  0  0  0
    2.6287   -0.8367   -0.5102 H   0  0  0  0  0  0  0  0  0  0  0  0
    2.7646    0.9380   -0.5157 H   0  0  0  0  0  0  0  0  0  0  0  0
    0.6328    2.3058   -0.0040 H   0  0  0  0  0  0  0  0  0  0  0  0
   -1.8998    2.0439   -0.0026 H   0  0  0  0  0  0  0  0  0  0  0  0
   -2.7001   -0.3641    0.0047 H   0  0  0  0  0  0  0  0  0  0  0  0
  1  2  1  0  0  0  0
  2  3  2  0  0  0  0
  3  4  1  0  0  0  0
  4  5  2  0  0  0  0
  5  6  1  0  0  0  0
  2  6  1  0  0  0  0
  1  7  1  0  0  0  0
  1  8  1  0  0  0  0
  1  9  1  0  0  0  0
  3 10  1  0  0  0  0
  4 11  1  0  0  0  0
  5 12  1  0  0  0  0
M  END
$$$$
