C13H20O2
APtclcactv06281817313D 0   0.00000     0.00000
 
 35 35  0  0  0  0  0  0  0  0999 V2000
    0.4316   -2.2432   -0.4932 C   0  0  0  0  0  0  0  0  0  0  0  0
   -0.5957   -1.1773   -0.2111 C   0  0  0  0  0  0  0  0  0  0  0  0
   -0.1953    0.0819   -0.1799 C   0  0  0  0  0  0  0  0  0  0  0  0
   -1.1123    1.2414    0.0803 C   0  0  0  0  0  0  0  0  0  0  0  0
   -2.4185    0.7494    0.7071 C   0  0  0  0  0  0  0  0  0  0  0  0
   -2.9583   -0.4104   -0.1386 C   0  0  0  0  0  0  0  0  0  0  0  0
   -2.0170   -1.6053    0.0124 C   0  0  0  0  0  0  0  0  0  0  0  0
   -4.2656   -0.7673    0.3149 O   0  0  0  0  0  0  0  0  0  0  0  0
   -0.4301    2.2234    1.0348 C   0  0  0  0  0  0  0  0  0  0  0  0
   -1.4191    1.9517   -1.2396 C   0  0  0  0  0  0  0  0  0  0  0  0
    1.2201    0.3610   -0.4113 C   0  0  0  0  0  0  0  0  0  0  0  0
    2.1632   -0.2146    0.3773 C   0  0  0  0  0  0  0  0  0  0  0  0
    3.5286   -0.0494    0.0767 C   0  0  0  0  0  0  0  0  0  0  0  0
    3.8628    0.6083   -0.8883 O   0  0  0  0  0  0  0  0  0  0  0  0
    4.5756   -0.6884    0.9522 C   0  0  0  0  0  0  0  0  0  0  0  0
    0.9333   -2.5189    0.4345 H   0  0  0  0  0  0  0  0  0  0  0  0
   -0.0605   -3.1198   -0.9145 H   0  0  0  0  0  0  0  0  0  0  0  0
    1.1652   -1.8619   -1.2035 H   0  0  0  0  0  0  0  0  0  0  0  0
   -2.2296    0.4043    1.7237 H   0  0  0  0  0  0  0  0  0  0  0  0
   -3.1459    1.5610    0.7222 H   0  0  0  0  0  0  0  0  0  0  0  0
   -3.0000   -0.1114   -1.1860 H   0  0  0  0  0  0  0  0  0  0  0  0
   -2.2864   -2.3717   -0.7143 H   0  0  0  0  0  0  0  0  0  0  0  0
   -2.1113   -2.0147    1.0182 H   0  0  0  0  0  0  0  0  0  0  0  0
   -4.6673   -1.4962   -0.1775 H   0  0  0  0  0  0  0  0  0  0  0  0
    0.4460    2.6531    0.5490 H   0  0  0  0  0  0  0  0  0  0  0  0
   -1.1273    3.0193    1.2968 H   0  0  0  0  0  0  0  0  0  0  0  0
   -0.1228    1.6975    1.9388 H   0  0  0  0  0  0  0  0  0  0  0  0
   -1.9000    1.2534   -1.9247 H   0  0  0  0  0  0  0  0  0  0  0  0
   -2.0850    2.7941   -1.0527 H   0  0  0  0  0  0  0  0  0  0  0  0
   -0.4909    2.3134   -1.6819 H   0  0  0  0  0  0  0  0  0  0  0  0
    1.5160    1.0253   -1.2098 H   0  0  0  0  0  0  0  0  0  0  0  0
    1.8661   -0.7993    1.2353 H   0  0  0  0  0  0  0  0  0  0  0  0
    4.8015   -1.6871    0.5785 H   0  0  0  0  0  0  0  0  0  0  0  0
    5.4810   -0.0817    0.9378 H   0  0  0  0  0  0  0  0  0  0  0  0
    4.2016   -0.7587    1.9736 H   0  0  0  0  0  0  0  0  0  0  0  0
  1  2  1  0  0  0  0
  2  3  2  0  0  0  0
  3  4  1  0  0  0  0
  4  5  1  0  0  0  0
  5  6  1  0  0  0  0
  6  7  1  0  0  0  0
  2  7  1  0  0  0  0
  6  8  1  0  0  0  0
  4  9  1  0  0  0  0
  4 10  1  0  0  0  0
  3 11  1  0  0  0  0
 11 12  2  0  0  0  0
 12 13  1  0  0  0  0
 13 14  2  0  0  0  0
 13 15  1  0  0  0  0
  1 16  1  0  0  0  0
  1 17  1  0  0  0  0
  1 18  1  0  0  0  0
  5 19  1  0  0  0  0
  5 20  1  0  0  0  0
  6 21  1  0  0  0  0
  7 22  1  0  0  0  0
  7 23  1  0  0  0  0
  8 24  1  0  0  0  0
  9 25  1  0  0  0  0
  9 26  1  0  0  0  0
  9 27  1  0  0  0  0
 10 28  1  0  0  0  0
 10 29  1  0  0  0  0
 10 30  1  0  0  0  0
 11 31  1  0  0  0  0
 12 32  1  0  0  0  0
 15 33  1  0  0  0  0
 15 34  1  0  0  0  0
 15 35  1  0  0  0  0
M  END
$$$$
