C57H110O6
APtclcactv06211806003D 0   0.00000     0.00000
 
173172  0  0  0  0  0  0  0  0999 V2000
   26.2478    0.7051    0.5923 C   0  0  0  0  0  0  0  0  0  0  0  0
   25.0646    1.5706    0.1546 C   0  0  0  0  0  0  0  0  0  0  0  0
   23.7559    0.8773    0.5387 C   0  0  0  0  0  0  0  0  0  0  0  0
   22.5726    1.7428    0.1009 C   0  0  0  0  0  0  0  0  0  0  0  0
   21.2639    1.0495    0.4850 C   0  0  0  0  0  0  0  0  0  0  0  0
   20.0807    1.9150    0.0472 C   0  0  0  0  0  0  0  0  0  0  0  0
   18.7720    1.2217    0.4313 C   0  0  0  0  0  0  0  0  0  0  0  0
   17.5887    2.0873   -0.0064 C   0  0  0  0  0  0  0  0  0  0  0  0
   16.2800    1.3939    0.3776 C   0  0  0  0  0  0  0  0  0  0  0  0
   15.0967    2.2595   -0.0601 C   0  0  0  0  0  0  0  0  0  0  0  0
   13.7880    1.5661    0.3240 C   0  0  0  0  0  0  0  0  0  0  0  0
   12.6048    2.4317   -0.1138 C   0  0  0  0  0  0  0  0  0  0  0  0
   11.2961    1.7383    0.2703 C   0  0  0  0  0  0  0  0  0  0  0  0
   10.1128    2.6039   -0.1675 C   0  0  0  0  0  0  0  0  0  0  0  0
    8.8041    1.9105    0.2166 C   0  0  0  0  0  0  0  0  0  0  0  0
    7.6209    2.7761   -0.2211 C   0  0  0  0  0  0  0  0  0  0  0  0
    6.3122    2.0827    0.1630 C   0  0  0  0  0  0  0  0  0  0  0  0
    5.1467    2.9353   -0.2682 C   0  0  0  0  0  0  0  0  0  0  0  0
    5.3427    3.9893   -0.8255 O   0  0  0  0  0  0  0  0  0  0  0  0
    3.8909    2.5237   -0.0331 O   0  0  0  0  0  0  0  0  0  0  0  0
    2.8176    3.3957   -0.4759 C   0  0  0  0  0  0  0  0  0  0  0  0
    1.4693    2.7642   -0.1238 C   0  0  0  0  0  0  0  0  0  0  0  0
    0.3426    3.7373   -0.4769 C   0  0  0  0  0  0  0  0  0  0  0  0
   -0.9270    3.1886   -0.0350 O   0  0  0  0  0  0  0  0  0  0  0  0
   -2.0243    3.9249   -0.2710 C   0  0  0  0  0  0  0  0  0  0  0  0
   -1.9270    4.9925   -0.8283 O   0  0  0  0  0  0  0  0  0  0  0  0
   -3.3774    3.4200    0.1592 C   0  0  0  0  0  0  0  0  0  0  0  0
   -4.4491    4.4418   -0.2257 C   0  0  0  0  0  0  0  0  0  0  0  0
   -5.8229    3.9292    0.2110 C   0  0  0  0  0  0  0  0  0  0  0  0
   -6.8946    4.9510   -0.1740 C   0  0  0  0  0  0  0  0  0  0  0  0
   -8.2684    4.4384    0.2628 C   0  0  0  0  0  0  0  0  0  0  0  0
   -9.3401    5.4602   -0.1222 C   0  0  0  0  0  0  0  0  0  0  0  0
  -10.7139    4.9476    0.3146 C   0  0  0  0  0  0  0  0  0  0  0  0
  -11.7856    5.9694   -0.0704 C   0  0  0  0  0  0  0  0  0  0  0  0
  -13.1594    5.4568    0.3664 C   0  0  0  0  0  0  0  0  0  0  0  0
  -14.2311    6.4786   -0.0186 C   0  0  0  0  0  0  0  0  0  0  0  0
  -15.6049    5.9660    0.4182 C   0  0  0  0  0  0  0  0  0  0  0  0
  -16.6766    6.9879    0.0332 C   0  0  0  0  0  0  0  0  0  0  0  0
  -18.0504    6.4752    0.4699 C   0  0  0  0  0  0  0  0  0  0  0  0
  -19.1221    7.4971    0.0850 C   0  0  0  0  0  0  0  0  0  0  0  0
  -20.4959    6.9844    0.5217 C   0  0  0  0  0  0  0  0  0  0  0  0
  -21.5676    8.0063    0.1367 C   0  0  0  0  0  0  0  0  0  0  0  0
  -22.9414    7.4936    0.5735 C   0  0  0  0  0  0  0  0  0  0  0  0
    1.2998    1.5340   -0.8761 O   0  0  0  0  0  0  0  0  0  0  0  0
    0.5625    0.5678   -0.3062 C   0  0  0  0  0  0  0  0  0  0  0  0
    0.0750    0.7442    0.7851 O   0  0  0  0  0  0  0  0  0  0  0  0
    0.3429   -0.7370   -1.0276 C   0  0  0  0  0  0  0  0  0  0  0  0
   -0.5248   -1.6564   -0.1659 C   0  0  0  0  0  0  0  0  0  0  0  0
   -0.7478   -2.9811   -0.8983 C   0  0  0  0  0  0  0  0  0  0  0  0
   -1.6156   -3.9005   -0.0366 C   0  0  0  0  0  0  0  0  0  0  0  0
   -1.8385   -5.2252   -0.7690 C   0  0  0  0  0  0  0  0  0  0  0  0
   -2.7063   -6.1446    0.0928 C   0  0  0  0  0  0  0  0  0  0  0  0
   -2.9293   -7.4693   -0.6396 C   0  0  0  0  0  0  0  0  0  0  0  0
   -3.7970   -8.3887    0.2221 C   0  0  0  0  0  0  0  0  0  0  0  0
   -4.0200   -9.7134   -0.5103 C   0  0  0  0  0  0  0  0  0  0  0  0
   -4.8878  -10.6328    0.3514 C   0  0  0  0  0  0  0  0  0  0  0  0
   -5.1107  -11.9575   -0.3810 C   0  0  0  0  0  0  0  0  0  0  0  0
   -5.9785  -12.8769    0.4807 C   0  0  0  0  0  0  0  0  0  0  0  0
   -6.2014  -14.2016   -0.2517 C   0  0  0  0  0  0  0  0  0  0  0  0
   -7.0692  -15.1210    0.6101 C   0  0  0  0  0  0  0  0  0  0  0  0
   -7.2922  -16.4457   -0.1223 C   0  0  0  0  0  0  0  0  0  0  0  0
   -8.1600  -17.3651    0.7394 C   0  0  0  0  0  0  0  0  0  0  0  0
   -8.3829  -18.6898    0.0070 C   0  0  0  0  0  0  0  0  0  0  0  0
   26.2148    0.5641    1.6727 H   0  0  0  0  0  0  0  0  0  0  0  0
   26.1915   -0.2645    0.0975 H   0  0  0  0  0  0  0  0  0  0  0  0
   27.1802    1.1990    0.3187 H   0  0  0  0  0  0  0  0  0  0  0  0
   25.1209    2.5402    0.6494 H   0  0  0  0  0  0  0  0  0  0  0  0
   25.0976    1.7116   -0.9257 H   0  0  0  0  0  0  0  0  0  0  0  0
   23.6995   -0.0923    0.0438 H   0  0  0  0  0  0  0  0  0  0  0  0
   23.7229    0.7363    1.6190 H   0  0  0  0  0  0  0  0  0  0  0  0
   22.6290    2.7124    0.5958 H   0  0  0  0  0  0  0  0  0  0  0  0
   22.6056    1.8838   -0.9794 H   0  0  0  0  0  0  0  0  0  0  0  0
   21.2076    0.0799   -0.0099 H   0  0  0  0  0  0  0  0  0  0  0  0
   21.2309    0.9085    1.5653 H   0  0  0  0  0  0  0  0  0  0  0  0
   20.1370    2.8846    0.5421 H   0  0  0  0  0  0  0  0  0  0  0  0
   20.1137    2.0560   -1.0331 H   0  0  0  0  0  0  0  0  0  0  0  0
   18.7156    0.2522   -0.0635 H   0  0  0  0  0  0  0  0  0  0  0  0
   18.7390    1.0807    1.5117 H   0  0  0  0  0  0  0  0  0  0  0  0
   17.6450    3.0568    0.4884 H   0  0  0  0  0  0  0  0  0  0  0  0
   17.6217    2.2283   -1.0868 H   0  0  0  0  0  0  0  0  0  0  0  0
   16.2237    0.4244   -0.1172 H   0  0  0  0  0  0  0  0  0  0  0  0
   16.2470    1.2529    1.4580 H   0  0  0  0  0  0  0  0  0  0  0  0
   15.1531    3.2290    0.4347 H   0  0  0  0  0  0  0  0  0  0  0  0
   15.1298    2.4005   -1.1404 H   0  0  0  0  0  0  0  0  0  0  0  0
   13.7317    0.5966   -0.1709 H   0  0  0  0  0  0  0  0  0  0  0  0
   13.7550    1.4251    1.4043 H   0  0  0  0  0  0  0  0  0  0  0  0
   12.6611    3.4012    0.3811 H   0  0  0  0  0  0  0  0  0  0  0  0
   12.6378    2.5727   -1.1941 H   0  0  0  0  0  0  0  0  0  0  0  0
   11.2397    0.7688   -0.2245 H   0  0  0  0  0  0  0  0  0  0  0  0
   11.2631    1.5973    1.3506 H   0  0  0  0  0  0  0  0  0  0  0  0
   10.1692    3.5734    0.3274 H   0  0  0  0  0  0  0  0  0  0  0  0
   10.1458    2.7449   -1.2478 H   0  0  0  0  0  0  0  0  0  0  0  0
    8.7478    0.9410   -0.2782 H   0  0  0  0  0  0  0  0  0  0  0  0
    8.7711    1.7695    1.2970 H   0  0  0  0  0  0  0  0  0  0  0  0
    7.6772    3.7456    0.2737 H   0  0  0  0  0  0  0  0  0  0  0  0
    7.6539    2.9171   -1.3015 H   0  0  0  0  0  0  0  0  0  0  0  0
    6.2558    1.1132   -0.3319 H   0  0  0  0  0  0  0  0  0  0  0  0
    6.2792    1.9417    1.2433 H   0  0  0  0  0  0  0  0  0  0  0  0
    2.9068    4.3623    0.0200 H   0  0  0  0  0  0  0  0  0  0  0  0
    2.8834    3.5337   -1.5552 H   0  0  0  0  0  0  0  0  0  0  0  0
    1.4385    2.5446    0.9434 H   0  0  0  0  0  0  0  0  0  0  0  0
    0.5182    4.6919    0.0191 H   0  0  0  0  0  0  0  0  0  0  0  0
    0.3174    3.8878   -1.5561 H   0  0  0  0  0  0  0  0  0  0  0  0
   -3.5854    2.4714   -0.3357 H   0  0  0  0  0  0  0  0  0  0  0  0
   -3.3846    3.2754    1.2396 H   0  0  0  0  0  0  0  0  0  0  0  0
   -4.2411    5.3905    0.2692 H   0  0  0  0  0  0  0  0  0  0  0  0
   -4.4419    4.5864   -1.3061 H   0  0  0  0  0  0  0  0  0  0  0  0
   -6.0309    2.9806   -0.2839 H   0  0  0  0  0  0  0  0  0  0  0  0
   -5.8301    3.7846    1.2914 H   0  0  0  0  0  0  0  0  0  0  0  0
   -6.6866    5.8997    0.3209 H   0  0  0  0  0  0  0  0  0  0  0  0
   -6.8874    5.0956   -1.2543 H   0  0  0  0  0  0  0  0  0  0  0  0
   -8.4764    3.4898   -0.2321 H   0  0  0  0  0  0  0  0  0  0  0  0
   -8.2756    4.2938    1.3432 H   0  0  0  0  0  0  0  0  0  0  0  0
   -9.1321    6.4089    0.3727 H   0  0  0  0  0  0  0  0  0  0  0  0
   -9.3329    5.6048   -1.2025 H   0  0  0  0  0  0  0  0  0  0  0  0
  -10.9219    3.9990   -0.1803 H   0  0  0  0  0  0  0  0  0  0  0  0
  -10.7211    4.8030    1.3949 H   0  0  0  0  0  0  0  0  0  0  0  0
  -11.5776    6.9181    0.4245 H   0  0  0  0  0  0  0  0  0  0  0  0
  -11.7784    6.1140   -1.1507 H   0  0  0  0  0  0  0  0  0  0  0  0
  -13.3674    4.5082   -0.1285 H   0  0  0  0  0  0  0  0  0  0  0  0
  -13.1666    5.3122    1.4467 H   0  0  0  0  0  0  0  0  0  0  0  0
  -14.0231    7.4273    0.4763 H   0  0  0  0  0  0  0  0  0  0  0  0
  -14.2239    6.6232   -1.0990 H   0  0  0  0  0  0  0  0  0  0  0  0
  -15.8129    5.0174   -0.0767 H   0  0  0  0  0  0  0  0  0  0  0  0
  -15.6121    5.8215    1.4985 H   0  0  0  0  0  0  0  0  0  0  0  0
  -16.4686    7.9365    0.5281 H   0  0  0  0  0  0  0  0  0  0  0  0
  -16.6693    7.1324   -1.0472 H   0  0  0  0  0  0  0  0  0  0  0  0
  -18.2584    5.5266   -0.0250 H   0  0  0  0  0  0  0  0  0  0  0  0
  -18.0576    6.3307    1.5503 H   0  0  0  0  0  0  0  0  0  0  0  0
  -18.9141    8.4457    0.5799 H   0  0  0  0  0  0  0  0  0  0  0  0
  -19.1148    7.6416   -0.9954 H   0  0  0  0  0  0  0  0  0  0  0  0
  -20.7039    6.0358    0.0268 H   0  0  0  0  0  0  0  0  0  0  0  0
  -20.5031    6.8399    1.6021 H   0  0  0  0  0  0  0  0  0  0  0  0
  -21.3596    8.9549    0.6316 H   0  0  0  0  0  0  0  0  0  0  0  0
  -21.5603    8.1508   -0.9436 H   0  0  0  0  0  0  0  0  0  0  0  0
  -23.1494    6.5450    0.0786 H   0  0  0  0  0  0  0  0  0  0  0  0
  -22.9486    7.3491    1.6539 H   0  0  0  0  0  0  0  0  0  0  0  0
  -23.7049    8.2216    0.2992 H   0  0  0  0  0  0  0  0  0  0  0  0
   -0.1592   -0.5476   -1.9763 H   0  0  0  0  0  0  0  0  0  0  0  0
    1.3045   -1.2151   -1.2146 H   0  0  0  0  0  0  0  0  0  0  0  0
   -0.0227   -1.8458    0.7828 H   0  0  0  0  0  0  0  0  0  0  0  0
   -1.4864   -1.1783    0.0210 H   0  0  0  0  0  0  0  0  0  0  0  0
   -1.2500   -2.7917   -1.8470 H   0  0  0  0  0  0  0  0  0  0  0  0
    0.2137   -3.4592   -1.0852 H   0  0  0  0  0  0  0  0  0  0  0  0
   -1.1134   -4.0899    0.9121 H   0  0  0  0  0  0  0  0  0  0  0  0
   -2.5771   -3.4224    0.1504 H   0  0  0  0  0  0  0  0  0  0  0  0
   -2.3407   -5.0358   -1.7177 H   0  0  0  0  0  0  0  0  0  0  0  0
   -0.8770   -5.7033   -0.9559 H   0  0  0  0  0  0  0  0  0  0  0  0
   -2.2042   -6.3340    1.0415 H   0  0  0  0  0  0  0  0  0  0  0  0
   -3.6678   -5.6665    0.2797 H   0  0  0  0  0  0  0  0  0  0  0  0
   -3.4314   -7.2799   -1.5884 H   0  0  0  0  0  0  0  0  0  0  0  0
   -1.9677   -7.9474   -0.8266 H   0  0  0  0  0  0  0  0  0  0  0  0
   -3.2949   -8.5781    1.1708 H   0  0  0  0  0  0  0  0  0  0  0  0
   -4.7586   -7.9106    0.4090 H   0  0  0  0  0  0  0  0  0  0  0  0
   -4.5221   -9.5240   -1.4590 H   0  0  0  0  0  0  0  0  0  0  0  0
   -3.0585  -10.1915   -0.6972 H   0  0  0  0  0  0  0  0  0  0  0  0
   -4.3856  -10.8222    1.3001 H   0  0  0  0  0  0  0  0  0  0  0  0
   -5.8493  -10.1547    0.5384 H   0  0  0  0  0  0  0  0  0  0  0  0
   -5.6129  -11.7681   -1.3297 H   0  0  0  0  0  0  0  0  0  0  0  0
   -4.1492  -12.4356   -0.5679 H   0  0  0  0  0  0  0  0  0  0  0  0
   -5.4763  -13.0663    1.4295 H   0  0  0  0  0  0  0  0  0  0  0  0
   -6.9400  -12.3988    0.6677 H   0  0  0  0  0  0  0  0  0  0  0  0
   -6.7036  -14.0122   -1.2004 H   0  0  0  0  0  0  0  0  0  0  0  0
   -5.2399  -14.6797   -0.4386 H   0  0  0  0  0  0  0  0  0  0  0  0
   -6.5671  -15.3104    1.5588 H   0  0  0  0  0  0  0  0  0  0  0  0
   -8.0308  -14.6429    0.7970 H   0  0  0  0  0  0  0  0  0  0  0  0
   -7.7943  -16.2563   -1.0710 H   0  0  0  0  0  0  0  0  0  0  0  0
   -6.3306  -16.9238   -0.3093 H   0  0  0  0  0  0  0  0  0  0  0  0
   -7.6578  -17.5545    1.6881 H   0  0  0  0  0  0  0  0  0  0  0  0
   -9.1215  -16.8870    0.9263 H   0  0  0  0  0  0  0  0  0  0  0  0
   -9.0011  -19.3448    0.6209 H   0  0  0  0  0  0  0  0  0  0  0  0
   -8.8851  -18.5004   -0.9417 H   0  0  0  0  0  0  0  0  0  0  0  0
   -7.4214  -19.1679   -0.1799 H   0  0  0  0  0  0  0  0  0  0  0  0
  1  2  1  0  0  0  0
  2  3  1  0  0  0  0
  3  4  1  0  0  0  0
  4  5  1  0  0  0  0
  5  6  1  0  0  0  0
  6  7  1  0  0  0  0
  7  8  1  0  0  0  0
  8  9  1  0  0  0  0
  9 10  1  0  0  0  0
 10 11  1  0  0  0  0
 11 12  1  0  0  0  0
 12 13  1  0  0  0  0
 13 14  1  0  0  0  0
 14 15  1  0  0  0  0
 15 16  1  0  0  0  0
 16 17  1  0  0  0  0
 17 18  1  0  0  0  0
 18 19  2  0  0  0  0
 18 20  1  0  0  0  0
 20 21  1  0  0  0  0
 21 22  1  0  0  0  0
 22 23  1  0  0  0  0
 23 24  1  0  0  0  0
 24 25  1  0  0  0  0
 25 26  2  0  0  0  0
 25 27  1  0  0  0  0
 27 28  1  0  0  0  0
 28 29  1  0  0  0  0
 29 30  1  0  0  0  0
 30 31  1  0  0  0  0
 31 32  1  0  0  0  0
 32 33  1  0  0  0  0
 33 34  1  0  0  0  0
 34 35  1  0  0  0  0
 35 36  1  0  0  0  0
 36 37  1  0  0  0  0
 37 38  1  0  0  0  0
 38 39  1  0  0  0  0
 39 40  1  0  0  0  0
 40 41  1  0  0  0  0
 41 42  1  0  0  0  0
 42 43  1  0  0  0  0
 22 44  1  0  0  0  0
 44 45  1  0  0  0  0
 45 46  2  0  0  0  0
 45 47  1  0  0  0  0
 47 48  1  0  0  0  0
 48 49  1  0  0  0  0
 49 50  1  0  0  0  0
 50 51  1  0  0  0  0
 51 52  1  0  0  0  0
 52 53  1  0  0  0  0
 53 54  1  0  0  0  0
 54 55  1  0  0  0  0
 55 56  1  0  0  0  0
 56 57  1  0  0  0  0
 57 58  1  0  0  0  0
 58 59  1  0  0  0  0
 59 60  1  0  0  0  0
 60 61  1  0  0  0  0
 61 62  1  0  0  0  0
 62 63  1  0  0  0  0
  1 64  1  0  0  0  0
  1 65  1  0  0  0  0
  1 66  1  0  0  0  0
  2 67  1  0  0  0  0
  2 68  1  0  0  0  0
  3 69  1  0  0  0  0
  3 70  1  0  0  0  0
  4 71  1  0  0  0  0
  4 72  1  0  0  0  0
  5 73  1  0  0  0  0
  5 74  1  0  0  0  0
  6 75  1  0  0  0  0
  6 76  1  0  0  0  0
  7 77  1  0  0  0  0
  7 78  1  0  0  0  0
  8 79  1  0  0  0  0
  8 80  1  0  0  0  0
  9 81  1  0  0  0  0
  9 82  1  0  0  0  0
 10 83  1  0  0  0  0
 10 84  1  0  0  0  0
 11 85  1  0  0  0  0
 11 86  1  0  0  0  0
 12 87  1  0  0  0  0
 12 88  1  0  0  0  0
 13 89  1  0  0  0  0
 13 90  1  0  0  0  0
 14 91  1  0  0  0  0
 14 92  1  0  0  0  0
 15 93  1  0  0  0  0
 15 94  1  0  0  0  0
 16 95  1  0  0  0  0
 16 96  1  0  0  0  0
 17 97  1  0  0  0  0
 17 98  1  0  0  0  0
 21 99  1  0  0  0  0
 21100  1  0  0  0  0
 22101  1  0  0  0  0
 23102  1  0  0  0  0
 23103  1  0  0  0  0
 27104  1  0  0  0  0
 27105  1  0  0  0  0
 28106  1  0  0  0  0
 28107  1  0  0  0  0
 29108  1  0  0  0  0
 29109  1  0  0  0  0
 30110  1  0  0  0  0
 30111  1  0  0  0  0
 31112  1  0  0  0  0
 31113  1  0  0  0  0
 32114  1  0  0  0  0
 32115  1  0  0  0  0
 33116  1  0  0  0  0
 33117  1  0  0  0  0
 34118  1  0  0  0  0
 34119  1  0  0  0  0
 35120  1  0  0  0  0
 35121  1  0  0  0  0
 36122  1  0  0  0  0
 36123  1  0  0  0  0
 37124  1  0  0  0  0
 37125  1  0  0  0  0
 38126  1  0  0  0  0
 38127  1  0  0  0  0
 39128  1  0  0  0  0
 39129  1  0  0  0  0
 40130  1  0  0  0  0
 40131  1  0  0  0  0
 41132  1  0  0  0  0
 41133  1  0  0  0  0
 42134  1  0  0  0  0
 42135  1  0  0  0  0
 43136  1  0  0  0  0
 43137  1  0  0  0  0
 43138  1  0  0  0  0
 47139  1  0  0  0  0
 47140  1  0  0  0  0
 48141  1  0  0  0  0
 48142  1  0  0  0  0
 49143  1  0  0  0  0
 49144  1  0  0  0  0
 50145  1  0  0  0  0
 50146  1  0  0  0  0
 51147  1  0  0  0  0
 51148  1  0  0  0  0
 52149  1  0  0  0  0
 52150  1  0  0  0  0
 53151  1  0  0  0  0
 53152  1  0  0  0  0
 54153  1  0  0  0  0
 54154  1  0  0  0  0
 55155  1  0  0  0  0
 55156  1  0  0  0  0
 56157  1  0  0  0  0
 56158  1  0  0  0  0
 57159  1  0  0  0  0
 57160  1  0  0  0  0
 58161  1  0  0  0  0
 58162  1  0  0  0  0
 59163  1  0  0  0  0
 59164  1  0  0  0  0
 60165  1  0  0  0  0
 60166  1  0  0  0  0
 61167  1  0  0  0  0
 61168  1  0  0  0  0
 62169  1  0  0  0  0
 62170  1  0  0  0  0
 63171  1  0  0  0  0
 63172  1  0  0  0  0
 63173  1  0  0  0  0
M  END
$$$$
