C24H24O6
APtclcactv06281817313D 0   0.00000     0.00000
 
 54 58  0  0  0  0  0  0  0  0999 V2000
   -5.3050    1.5149    1.2140 C   0  0  0  0  0  0  0  0  0  0  0  0
   -5.2148    1.2434   -0.2890 C   0  0  0  0  0  0  0  0  0  0  0  0
   -4.1611    2.1640   -0.9183 C   0  0  0  0  0  0  0  0  0  0  0  0
   -2.8400    1.9603   -0.1726 C   0  0  0  0  0  0  0  0  0  0  0  0
   -2.5499    0.4865   -0.0445 C   0  0  0  0  0  0  0  0  0  0  0  0
   -1.2453    0.0744    0.2468 C   0  0  0  0  0  0  0  0  0  0  0  0
   -0.9334   -1.2869    0.3834 C   0  0  0  0  0  0  0  0  0  0  0  0
   -1.9422   -2.2271    0.2164 C   0  0  0  0  0  0  0  0  0  0  0  0
   -3.2290   -1.8174   -0.0770 C   0  0  0  0  0  0  0  0  0  0  0  0
   -3.5378   -0.4572   -0.2102 C   0  0  0  0  0  0  0  0  0  0  0  0
   -4.8180   -0.1105   -0.5105 O   0  0  0  0  0  0  0  0  0  0  0  0
   -4.2071   -2.7454   -0.2386 O   0  0  0  0  0  0  0  0  0  0  0  0
   -3.8315   -4.1163   -0.0911 C   0  0  0  0  0  0  0  0  0  0  0  0
    0.3202   -1.6891    0.6774 O   0  0  0  0  0  0  0  0  0  0  0  0
    1.3819   -0.8694    0.5344 C   0  0  0  0  0  0  0  0  0  0  0  0
    2.6644   -1.4046    0.5038 C   0  0  0  0  0  0  0  0  0  0  0  0
    3.7622   -0.5764    0.3697 C   0  0  0  0  0  0  0  0  0  0  0  0
    3.5946    0.8159    0.2684 C   0  0  0  0  0  0  0  0  0  0  0  0
    4.7982    1.6633    0.1357 C   0  0  0  0  0  0  0  0  0  0  0  0
    5.9398    1.0768   -0.2211 C   0  0  0  0  0  0  0  0  0  0  0  0
    5.9721   -0.4050   -0.4882 C   0  0  0  0  0  0  0  0  0  0  0  0
    5.0208   -1.0837    0.3324 O   0  0  0  0  0  0  0  0  0  0  0  0
    5.6415   -0.6597   -1.9602 C   0  0  0  0  0  0  0  0  0  0  0  0
    7.3727   -0.9417   -0.1863 C   0  0  0  0  0  0  0  0  0  0  0  0
    2.3178    1.3701    0.2918 C   0  0  0  0  0  0  0  0  0  0  0  0
    1.2106    0.5222    0.4141 C   0  0  0  0  0  0  0  0  0  0  0  0
   -0.1606    1.0644    0.4109 C   0  0  0  0  0  0  0  0  0  0  0  0
   -0.3853    2.2550    0.5361 O   0  0  0  0  0  0  0  0  0  0  0  0
    2.1491    2.7122    0.1978 O   0  0  0  0  0  0  0  0  0  0  0  0
   -6.5756    1.4960   -0.9411 C   0  0  0  0  0  0  0  0  0  0  0  0
   -5.5884    2.5544    1.3791 H   0  0  0  0  0  0  0  0  0  0  0  0
   -6.0544    0.8592    1.6573 H   0  0  0  0  0  0  0  0  0  0  0  0
   -4.3365    1.3246    1.6764 H   0  0  0  0  0  0  0  0  0  0  0  0
   -4.0322    1.9099   -1.9704 H   0  0  0  0  0  0  0  0  0  0  0  0
   -4.4786    3.2026   -0.8267 H   0  0  0  0  0  0  0  0  0  0  0  0
   -2.0336    2.4419   -0.7256 H   0  0  0  0  0  0  0  0  0  0  0  0
   -2.9124    2.4032    0.8207 H   0  0  0  0  0  0  0  0  0  0  0  0
   -1.7206   -3.2795    0.3155 H   0  0  0  0  0  0  0  0  0  0  0  0
   -3.4364   -4.2789    0.9117 H   0  0  0  0  0  0  0  0  0  0  0  0
   -4.7044   -4.7507   -0.2450 H   0  0  0  0  0  0  0  0  0  0  0  0
   -3.0673   -4.3649   -0.8275 H   0  0  0  0  0  0  0  0  0  0  0  0
    2.8033   -2.4725    0.5855 H   0  0  0  0  0  0  0  0  0  0  0  0
    4.7534    2.7262    0.3220 H   0  0  0  0  0  0  0  0  0  0  0  0
    6.8414    1.6633   -0.3184 H   0  0  0  0  0  0  0  0  0  0  0  0
    6.3771   -0.1590   -2.5896 H   0  0  0  0  0  0  0  0  0  0  0  0
    5.6639   -1.7315   -2.1574 H   0  0  0  0  0  0  0  0  0  0  0  0
    4.6480   -0.2701   -2.1821 H   0  0  0  0  0  0  0  0  0  0  0  0
    7.6163   -0.7536    0.8594 H   0  0  0  0  0  0  0  0  0  0  0  0
    7.4000   -2.0143   -0.3785 H   0  0  0  0  0  0  0  0  0  0  0  0
    8.0996   -0.4396   -0.8247 H   0  0  0  0  0  0  0  0  0  0  0  0
    2.0548    3.0342   -0.7092 H   0  0  0  0  0  0  0  0  0  0  0  0
   -6.8697    2.5329   -0.7782 H   0  0  0  0  0  0  0  0  0  0  0  0
   -6.5073    1.3016   -2.0114 H   0  0  0  0  0  0  0  0  0  0  0  0
   -7.3193    0.8335   -0.4982 H   0  0  0  0  0  0  0  0  0  0  0  0
  1  2  1  0  0  0  0
  2  3  1  0  0  0  0
  3  4  1  0  0  0  0
  4  5  1  0  0  0  0
  5  6  2  0  0  0  0
  6  7  1  0  0  0  0
  7  8  2  0  0  0  0
  8  9  1  0  0  0  0
  9 10  2  0  0  0  0
  5 10  1  0  0  0  0
 10 11  1  0  0  0  0
  2 11  1  0  0  0  0
  9 12  1  0  0  0  0
 12 13  1  0  0  0  0
  7 14  1  0  0  0  0
 14 15  1  0  0  0  0
 15 16  2  0  0  0  0
 16 17  1  0  0  0  0
 17 18  2  0  0  0  0
 18 19  1  0  0  0  0
 19 20  2  0  0  0  0
 20 21  1  0  0  0  0
 21 22  1  0  0  0  0
 17 22  1  0  0  0  0
 21 23  1  0  0  0  0
 21 24  1  0  0  0  0
 18 25  1  0  0  0  0
 25 26  2  0  0  0  0
 15 26  1  0  0  0  0
 26 27  1  0  0  0  0
  6 27  1  0  0  0  0
 27 28  2  0  0  0  0
 25 29  1  0  0  0  0
  2 30  1  0  0  0  0
  1 31  1  0  0  0  0
  1 32  1  0  0  0  0
  1 33  1  0  0  0  0
  3 34  1  0  0  0  0
  3 35  1  0  0  0  0
  4 36  1  0  0  0  0
  4 37  1  0  0  0  0
  8 38  1  0  0  0  0
 13 39  1  0  0  0  0
 13 40  1  0  0  0  0
 13 41  1  0  0  0  0
 16 42  1  0  0  0  0
 19 43  1  0  0  0  0
 20 44  1  0  0  0  0
 23 45  1  0  0  0  0
 23 46  1  0  0  0  0
 23 47  1  0  0  0  0
 24 48  1  0  0  0  0
 24 49  1  0  0  0  0
 24 50  1  0  0  0  0
 29 51  1  0  0  0  0
 30 52  1  0  0  0  0
 30 53  1  0  0  0  0
 30 54  1  0  0  0  0
M  END
$$$$
