C7H7NO
APtclcactv06211806003D 0   0.00000     0.00000
 
 16 16  0  0  0  0  0  0  0  0999 V2000
    0.4217   -1.0364   -0.0003 C   0  0  0  0  0  0  0  0  0  0  0  0
   -0.9335   -1.2036   -0.0003 C   0  0  0  0  0  0  0  0  0  0  0  0
   -1.7744   -0.0929    0.0001 C   0  0  0  0  0  0  0  0  0  0  0  0
   -1.2372    1.1925    0.0000 C   0  0  0  0  0  0  0  0  0  0  0  0
    0.1168    1.3688   -0.0000 C   0  0  0  0  0  0  0  0  0  0  0  0
    0.9663    0.2545    0.0000 C   0  0  0  0  0  0  0  0  0  0  0  0
    2.4221    0.4390    0.0000 C   0  0  0  0  0  0  0  0  0  0  0  0
    3.1560   -0.5269    0.0001 O   0  0  0  0  0  0  0  0  0  0  0  0
   -3.1522   -0.2675    0.0002 N   0  0  0  0  0  0  0  0  0  0  0  0
    1.0729   -1.8981    0.0039 H   0  0  0  0  0  0  0  0  0  0  0  0
   -1.3541   -2.1983   -0.0009 H   0  0  0  0  0  0  0  0  0  0  0  0
   -1.8927    2.0509   -0.0004 H   0  0  0  0  0  0  0  0  0  0  0  0
    0.5325    2.3656   -0.0005 H   0  0  0  0  0  0  0  0  0  0  0  0
    2.8402    1.4348   -0.0001 H   0  0  0  0  0  0  0  0  0  0  0  0
   -3.5277   -1.1619   -0.0001 H   0  0  0  0  0  0  0  0  0  0  0  0
   -3.7390    0.5049    0.0004 H   0  0  0  0  0  0  0  0  0  0  0  0
  1  2  2  0  0  0  0
  2  3  1  0  0  0  0
  3  4  2  0  0  0  0
  4  5  1  0  0  0  0
  5  6  2  0  0  0  0
  1  6  1  0  0  0  0
  6  7  1  0  0  0  0
  7  8  2  0  0  0  0
  3  9  1  0  0  0  0
  1 10  1  0  0  0  0
  2 11  1  0  0  0  0
  4 12  1  0  0  0  0
  5 13  1  0  0  0  0
  7 14  1  0  0  0  0
  9 15  1  0  0  0  0
  9 16  1  0  0  0  0
M  END
$$$$
