C12H10N2OS
APtclcactv06281817313D 0   0.00000     0.00000
 
 26 28  0  0  0  0  0  0  0  0999 V2000
    4.8772    1.7353   -0.0025 C   0  0  0  0  0  0  0  0  0  0  0  0
    4.4675    0.3663   -0.0010 O   0  0  0  0  0  0  0  0  0  0  0  0
    3.1302    0.1223   -0.0008 C   0  0  0  0  0  0  0  0  0  0  0  0
    2.6710   -1.1814    0.0006 C   0  0  0  0  0  0  0  0  0  0  0  0
    1.3022   -1.4311    0.0008 C   0  0  0  0  0  0  0  0  0  0  0  0
    0.4053   -0.3499   -0.0006 C   0  0  0  0  0  0  0  0  0  0  0  0
    0.8866    0.9582   -0.0020 C   0  0  0  0  0  0  0  0  0  0  0  0
    2.2337    1.1876    0.0036 C   0  0  0  0  0  0  0  0  0  0  0  0
   -0.9442   -0.9418   -0.0005 C   0  0  0  0  0  0  0  0  0  0  0  0
   -0.7774   -2.2895    0.0008 C   0  0  0  0  0  0  0  0  0  0  0  0
    0.5541   -2.5887    0.0016 N   0  0  0  0  0  0  0  0  0  0  0  0
   -2.2271   -0.2121   -0.0017 C   0  0  0  0  0  0  0  0  0  0  0  0
   -3.4095   -0.7606   -0.0016 N   0  0  0  0  0  0  0  0  0  0  0  0
   -4.4436    0.0520   -0.0027 C   0  0  0  0  0  0  0  0  0  0  0  0
   -4.1595    1.3566   -0.0039 C   0  0  0  0  0  0  0  0  0  0  0  0
   -2.4067    1.5405    0.0043 S   0  0  0  0  0  0  0  0  0  0  0  0
    5.9659    1.7888   -0.0025 H   0  0  0  0  0  0  0  0  0  0  0  0
    4.4892    2.2297   -0.8931 H   0  0  0  0  0  0  0  0  0  0  0  0
    4.4890    2.2318    0.8868 H   0  0  0  0  0  0  0  0  0  0  0  0
    3.3719   -2.0030    0.0013 H   0  0  0  0  0  0  0  0  0  0  0  0
    0.1962    1.7887   -0.0034 H   0  0  0  0  0  0  0  0  0  0  0  0
    2.6053    2.2017    0.0024 H   0  0  0  0  0  0  0  0  0  0  0  0
   -1.5776   -3.0149    0.0012 H   0  0  0  0  0  0  0  0  0  0  0  0
    0.9211   -3.4866    0.0019 H   0  0  0  0  0  0  0  0  0  0  0  0
   -5.4599   -0.3134   -0.0031 H   0  0  0  0  0  0  0  0  0  0  0  0
   -4.8800    2.1610   -0.0049 H   0  0  0  0  0  0  0  0  0  0  0  0
  1  2  1  0  0  0  0
  2  3  1  0  0  0  0
  3  4  2  0  0  0  0
  4  5  1  0  0  0  0
  5  6  2  0  0  0  0
  6  7  1  0  0  0  0
  7  8  2  0  0  0  0
  3  8  1  0  0  0  0
  6  9  1  0  0  0  0
  9 10  2  0  0  0  0
 10 11  1  0  0  0  0
  5 11  1  0  0  0  0
  9 12  1  0  0  0  0
 12 13  2  0  0  0  0
 13 14  1  0  0  0  0
 14 15  2  0  0  0  0
 15 16  1  0  0  0  0
 12 16  1  0  0  0  0
  1 17  1  0  0  0  0
  1 18  1  0  0  0  0
  1 19  1  0  0  0  0
  4 20  1  0  0  0  0
  7 21  1  0  0  0  0
  8 22  1  0  0  0  0
 10 23  1  0  0  0  0
 11 24  1  0  0  0  0
 14 25  1  0  0  0  0
 15 26  1  0  0  0  0
M  END
$$$$
