C26H32O11
APtclcactv06281817313D 0   0.00000     0.00000
 
 69 73  0  0  0  0  0  0  0  0999 V2000
    7.0330    3.7198    0.6722 C   0  0  0  0  0  0  0  0  0  0  0  0
    7.7386    2.7331   -0.0831 O   0  0  0  0  0  0  0  0  0  0  0  0
    7.1994    1.4853   -0.1250 C   0  0  0  0  0  0  0  0  0  0  0  0
    7.8336    0.4753   -0.8419 C   0  0  0  0  0  0  0  0  0  0  0  0
    7.2802   -0.7944   -0.8815 C   0  0  0  0  0  0  0  0  0  0  0  0
    6.1005   -1.0555   -0.2098 C   0  0  0  0  0  0  0  0  0  0  0  0
    5.4701   -0.0519    0.5022 C   0  0  0  0  0  0  0  0  0  0  0  0
    6.0202    1.2155    0.5508 C   0  0  0  0  0  0  0  0  0  0  0  0
    4.1841   -0.3418    1.2322 C   0  0  0  0  0  0  0  0  0  0  0  0
    2.9676   -0.0618    0.3192 C   0  0  0  0  0  0  0  0  0  0  0  0
    3.2372   -0.6918   -1.0680 C   0  0  0  0  0  0  0  0  0  0  0  0
    1.9416   -1.1685   -1.4878 O   0  0  0  0  0  0  0  0  0  0  0  0
    1.3073   -1.7327   -0.3287 C   0  0  0  0  0  0  0  0  0  0  0  0
    1.8824   -1.0166    0.9072 C   0  0  0  0  0  0  0  0  0  0  0  0
    2.6866   -2.0288    1.7430 C   0  0  0  0  0  0  0  0  0  0  0  0
    4.0799   -1.7485    1.5332 O   0  0  0  0  0  0  0  0  0  0  0  0
   -0.1816   -1.5116   -0.4016 C   0  0  0  0  0  0  0  0  0  0  0  0
   -1.0455   -2.4564    0.1202 C   0  0  0  0  0  0  0  0  0  0  0  0
   -2.4148   -2.2546    0.0540 C   0  0  0  0  0  0  0  0  0  0  0  0
   -2.9170   -1.1000   -0.5384 C   0  0  0  0  0  0  0  0  0  0  0  0
   -2.0456   -0.1570   -1.0595 C   0  0  0  0  0  0  0  0  0  0  0  0
   -0.6804   -0.3618   -0.9852 C   0  0  0  0  0  0  0  0  0  0  0  0
   -4.2601   -0.8976   -0.6062 O   0  0  0  0  0  0  0  0  0  0  0  0
   -4.7037    0.3100   -1.2282 C   0  0  0  0  0  0  0  0  0  0  0  0
   -6.2316    0.3039   -1.3233 C   0  0  0  0  0  0  0  0  0  0  0  0
   -6.8231    0.2640    0.0891 C   0  0  0  0  0  0  0  0  0  0  0  0
   -6.2950    1.4609    0.8859 C   0  0  0  0  0  0  0  0  0  0  0  0
   -4.7646    1.4223    0.8957 C   0  0  0  0  0  0  0  0  0  0  0  0
   -4.2807    1.4307   -0.4489 O   0  0  0  0  0  0  0  0  0  0  0  0
   -4.2281    2.6474    1.6387 C   0  0  0  0  0  0  0  0  0  0  0  0
   -2.8065    2.5526    1.7494 O   0  0  0  0  0  0  0  0  0  0  0  0
   -6.7382    2.6743    0.2750 O   0  0  0  0  0  0  0  0  0  0  0  0
   -8.2485    0.3321    0.0125 O   0  0  0  0  0  0  0  0  0  0  0  0
   -6.6731    1.4867   -1.9927 O   0  0  0  0  0  0  0  0  0  0  0  0
   -3.2660   -3.1832    0.5665 O   0  0  0  0  0  0  0  0  0  0  0  0
   -2.6796   -4.3438    1.1591 C   0  0  0  0  0  0  0  0  0  0  0  0
    8.9938    0.7339   -1.5026 O   0  0  0  0  0  0  0  0  0  0  0  0
    7.5695    4.6673    0.6230 H   0  0  0  0  0  0  0  0  0  0  0  0
    6.0324    3.8468    0.2588 H   0  0  0  0  0  0  0  0  0  0  0  0
    6.9588    3.3978    1.7109 H   0  0  0  0  0  0  0  0  0  0  0  0
    7.7702   -1.5800   -1.4375 H   0  0  0  0  0  0  0  0  0  0  0  0
    5.6701   -2.0455   -0.2414 H   0  0  0  0  0  0  0  0  0  0  0  0
    5.5258    1.9977    1.1077 H   0  0  0  0  0  0  0  0  0  0  0  0
    4.1216    0.2517    2.1444 H   0  0  0  0  0  0  0  0  0  0  0  0
    2.6819    0.9892    0.2771 H   0  0  0  0  0  0  0  0  0  0  0  0
    3.6122    0.0594   -1.7631 H   0  0  0  0  0  0  0  0  0  0  0  0
    3.9404   -1.5202   -0.9821 H   0  0  0  0  0  0  0  0  0  0  0  0
    1.5223   -2.7998   -0.2717 H   0  0  0  0  0  0  0  0  0  0  0  0
    1.1205   -0.4909    1.4827 H   0  0  0  0  0  0  0  0  0  0  0  0
    2.4409   -1.9154    2.7989 H   0  0  0  0  0  0  0  0  0  0  0  0
    2.4595   -3.0432    1.4151 H   0  0  0  0  0  0  0  0  0  0  0  0
   -0.6531   -3.3518    0.5792 H   0  0  0  0  0  0  0  0  0  0  0  0
   -2.4328    0.7399   -1.5199 H   0  0  0  0  0  0  0  0  0  0  0  0
   -0.0023    0.3739   -1.3917 H   0  0  0  0  0  0  0  0  0  0  0  0
   -4.2775    0.3813   -2.2289 H   0  0  0  0  0  0  0  0  0  0  0  0
   -6.5584   -0.5743   -1.8800 H   0  0  0  0  0  0  0  0  0  0  0  0
   -6.5270   -0.6617    0.5824 H   0  0  0  0  0  0  0  0  0  0  0  0
   -6.6672    1.4101    1.9092 H   0  0  0  0  0  0  0  0  0  0  0  0
   -4.4271    0.5157    1.3979 H   0  0  0  0  0  0  0  0  0  0  0  0
   -4.4901    3.5504    1.0873 H   0  0  0  0  0  0  0  0  0  0  0  0
   -4.6680    2.6896    2.6351 H   0  0  0  0  0  0  0  0  0  0  0  0
   -2.3973    3.2975    2.2107 H   0  0  0  0  0  0  0  0  0  0  0  0
   -7.7001    2.7638    0.2305 H   0  0  0  0  0  0  0  0  0  0  0  0
   -8.6507   -0.3929   -0.4852 H   0  0  0  0  0  0  0  0  0  0  0  0
   -6.3321    1.5798   -2.8927 H   0  0  0  0  0  0  0  0  0  0  0  0
   -2.0392   -4.0440    1.9886 H   0  0  0  0  0  0  0  0  0  0  0  0
   -3.4673   -5.0012    1.5272 H   0  0  0  0  0  0  0  0  0  0  0  0
   -2.0850   -4.8715    0.4134 H   0  0  0  0  0  0  0  0  0  0  0  0
    9.7893    0.5860   -0.9731 H   0  0  0  0  0  0  0  0  0  0  0  0
  1  2  1  0  0  0  0
  2  3  1  0  0  0  0
  3  4  2  0  0  0  0
  4  5  1  0  0  0  0
  5  6  2  0  0  0  0
  6  7  1  0  0  0  0
  7  8  2  0  0  0  0
  3  8  1  0  0  0  0
  7  9  1  0  0  0  0
  9 10  1  0  0  0  0
 10 11  1  0  0  0  0
 11 12  1  0  0  0  0
 12 13  1  0  0  0  0
 13 14  1  0  0  0  0
 10 14  1  0  0  0  0
 14 15  1  0  0  0  0
 15 16  1  0  0  0  0
  9 16  1  0  0  0  0
 13 17  1  0  0  0  0
 17 18  2  0  0  0  0
 18 19  1  0  0  0  0
 19 20  2  0  0  0  0
 20 21  1  0  0  0  0
 21 22  2  0  0  0  0
 17 22  1  0  0  0  0
 20 23  1  0  0  0  0
 23 24  1  0  0  0  0
 24 25  1  0  0  0  0
 25 26  1  0  0  0  0
 26 27  1  0  0  0  0
 27 28  1  0  0  0  0
 28 29  1  0  0  0  0
 24 29  1  0  0  0  0
 28 30  1  0  0  0  0
 30 31  1  0  0  0  0
 27 32  1  0  0  0  0
 26 33  1  0  0  0  0
 25 34  1  0  0  0  0
 19 35  1  0  0  0  0
 35 36  1  0  0  0  0
  4 37  1  0  0  0  0
  1 38  1  0  0  0  0
  1 39  1  0  0  0  0
  1 40  1  0  0  0  0
  5 41  1  0  0  0  0
  6 42  1  0  0  0  0
  8 43  1  0  0  0  0
  9 44  1  0  0  0  0
 10 45  1  0  0  0  0
 11 46  1  0  0  0  0
 11 47  1  0  0  0  0
 13 48  1  0  0  0  0
 14 49  1  0  0  0  0
 15 50  1  0  0  0  0
 15 51  1  0  0  0  0
 18 52  1  0  0  0  0
 21 53  1  0  0  0  0
 22 54  1  0  0  0  0
 24 55  1  0  0  0  0
 25 56  1  0  0  0  0
 26 57  1  0  0  0  0
 27 58  1  0  0  0  0
 28 59  1  0  0  0  0
 30 60  1  0  0  0  0
 30 61  1  0  0  0  0
 31 62  1  0  0  0  0
 32 63  1  0  0  0  0
 33 64  1  0  0  0  0
 34 65  1  0  0  0  0
 36 66  1  0  0  0  0
 36 67  1  0  0  0  0
 36 68  1  0  0  0  0
 37 69  1  0  0  0  0
M  END
$$$$
