C6H12O2
APtclcactv06211806003D 0   0.00000     0.00000
 
 20 19  0  0  0  0  0  0  0  0999 V2000
   -1.7589    1.2727   -0.5880 C   0  0  0  0  0  0  0  0  0  0  0  0
   -1.6805    0.0252    0.2943 C   0  0  0  0  0  0  0  0  0  0  0  0
   -2.9877   -0.7619    0.1818 C   0  0  0  0  0  0  0  0  0  0  0  0
   -0.5152   -0.8528   -0.1661 C   0  0  0  0  0  0  0  0  0  0  0  0
    0.7836   -0.1226    0.0596 C   0  0  0  0  0  0  0  0  0  0  0  0
    0.7778    0.9863    0.5395 O   0  0  0  0  0  0  0  0  0  0  0  0
    1.9470   -0.7041   -0.2724 O   0  0  0  0  0  0  0  0  0  0  0  0
    3.1584    0.0577   -0.0270 C   0  0  0  0  0  0  0  0  0  0  0  0
   -1.9157    0.9751   -1.6248 H   0  0  0  0  0  0  0  0  0  0  0  0
   -2.5891    1.8982   -0.2600 H   0  0  0  0  0  0  0  0  0  0  0  0
   -0.8276    1.8335   -0.5079 H   0  0  0  0  0  0  0  0  0  0  0  0
   -1.5237    0.3228    1.3311 H   0  0  0  0  0  0  0  0  0  0  0  0
   -3.1445   -1.0595   -0.8550 H   0  0  0  0  0  0  0  0  0  0  0  0
   -2.9319   -1.6507    0.8104 H   0  0  0  0  0  0  0  0  0  0  0  0
   -3.8179   -0.1364    0.5098 H   0  0  0  0  0  0  0  0  0  0  0  0
   -0.5133   -1.7821    0.4035 H   0  0  0  0  0  0  0  0  0  0  0  0
   -0.6263   -1.0771   -1.2269 H   0  0  0  0  0  0  0  0  0  0  0  0
    4.0243   -0.5260   -0.3394 H   0  0  0  0  0  0  0  0  0  0  0  0
    3.1237    0.9880   -0.5939 H   0  0  0  0  0  0  0  0  0  0  0  0
    3.2367    0.2830    1.0366 H   0  0  0  0  0  0  0  0  0  0  0  0
  1  2  1  0  0  0  0
  2  3  1  0  0  0  0
  2  4  1  0  0  0  0
  4  5  1  0  0  0  0
  5  6  2  0  0  0  0
  5  7  1  0  0  0  0
  7  8  1  0  0  0  0
  1  9  1  0  0  0  0
  1 10  1  0  0  0  0
  1 11  1  0  0  0  0
  2 12  1  0  0  0  0
  3 13  1  0  0  0  0
  3 14  1  0  0  0  0
  3 15  1  0  0  0  0
  4 16  1  0  0  0  0
  4 17  1  0  0  0  0
  8 18  1  0  0  0  0
  8 19  1  0  0  0  0
  8 20  1  0  0  0  0
M  END
$$$$
