C5H10O
APtclcactv06211806003D 0   0.00000     0.00000
 
 16 15  0  0  0  0  0  0  0  0999 V2000
   -1.1552    1.4574    0.1151 C   0  0  0  0  0  0  0  0  0  0  0  0
   -1.0164   -0.0360   -0.0322 C   0  0  0  0  0  0  0  0  0  0  0  0
    0.1527   -0.5616   -0.3028 C   0  0  0  0  0  0  0  0  0  0  0  0
    1.3799    0.3120   -0.3453 C   0  0  0  0  0  0  0  0  0  0  0  0
    2.4479   -0.3327    0.3518 O   0  0  0  0  0  0  0  0  0  0  0  0
   -2.2224   -0.9246    0.1316 C   0  0  0  0  0  0  0  0  0  0  0  0
   -0.7710    1.9480   -0.7792 H   0  0  0  0  0  0  0  0  0  0  0  0
   -2.2065    1.7133    0.2467 H   0  0  0  0  0  0  0  0  0  0  0  0
   -0.5885    1.7910    0.9844 H   0  0  0  0  0  0  0  0  0  0  0  0
    0.2369   -1.6209   -0.4953 H   0  0  0  0  0  0  0  0  0  0  0  0
    1.6714    0.4788   -1.3823 H   0  0  0  0  0  0  0  0  0  0  0  0
    1.1616    1.2687    0.1292 H   0  0  0  0  0  0  0  0  0  0  0  0
    3.2715    0.1739    0.3648 H   0  0  0  0  0  0  0  0  0  0  0  0
   -2.7094   -1.0579   -0.8343 H   0  0  0  0  0  0  0  0  0  0  0  0
   -1.9091   -1.8947    0.5175 H   0  0  0  0  0  0  0  0  0  0  0  0
   -2.9209   -0.4640    0.8302 H   0  0  0  0  0  0  0  0  0  0  0  0
  1  2  1  0  0  0  0
  2  3  2  0  0  0  0
  3  4  1  0  0  0  0
  4  5  1  0  0  0  0
  2  6  1  0  0  0  0
  1  7  1  0  0  0  0
  1  8  1  0  0  0  0
  1  9  1  0  0  0  0
  3 10  1  0  0  0  0
  4 11  1  0  0  0  0
  4 12  1  0  0  0  0
  5 13  1  0  0  0  0
  6 14  1  0  0  0  0
  6 15  1  0  0  0  0
  6 16  1  0  0  0  0
M  END
$$$$
