C11H18N2O6S
APtclcactv06281817313D 0   0.00000     0.00000
 
 38 37  0  0  0  0  0  0  0  0999 V2000
    6.4408    2.7999    0.7850 C   0  0  0  0  0  0  0  0  0  0  0  0
    5.0525    2.4765    0.2960 C   0  0  0  0  0  0  0  0  0  0  0  0
    4.5921    1.2540    0.3929 C   0  0  0  0  0  0  0  0  0  0  0  0
    2.9689    0.8759   -0.1789 S   0  0  0  0  0  0  0  0  0  0  0  0
    3.0699    1.0749   -1.5823 O   0  0  0  0  0  0  0  0  0  0  0  0
    2.8158   -0.8975    0.1708 C   0  0  0  0  0  0  0  0  0  0  0  0
    1.4370   -1.3881   -0.2755 C   0  0  0  0  0  0  0  0  0  0  0  0
    1.3098   -2.8614    0.0151 C   0  0  0  0  0  0  0  0  0  0  0  0
    0.4408   -3.2584    0.7547 O   0  0  0  0  0  0  0  0  0  0  0  0
    2.1619   -3.7325   -0.5479 O   0  0  0  0  0  0  0  0  0  0  0  0
    0.3985   -0.6553    0.4530 N   0  0  0  0  0  0  0  0  0  0  0  0
   -0.8322   -0.5224   -0.0800 C   0  0  0  0  0  0  0  0  0  0  0  0
   -1.0800   -1.0096   -1.1626 O   0  0  0  0  0  0  0  0  0  0  0  0
   -1.9005    0.2314    0.6694 C   0  0  0  0  0  0  0  0  0  0  0  0
   -3.1927    0.2341   -0.1498 C   0  0  0  0  0  0  0  0  0  0  0  0
   -4.2773    0.9994    0.6110 C   0  0  0  0  0  0  0  0  0  0  0  0
   -5.5113    1.1080   -0.2472 C   0  0  0  0  0  0  0  0  0  0  0  0
   -6.4405    0.3571   -0.0669 O   0  0  0  0  0  0  0  0  0  0  0  0
   -5.5781    2.0390   -1.2119 O   0  0  0  0  0  0  0  0  0  0  0  0
   -4.6045    0.2824    1.8506 N   0  0  0  0  0  0  0  0  0  0  0  0
    6.6460    3.8580    0.6226 H   0  0  0  0  0  0  0  0  0  0  0  0
    6.5127    2.5750    1.8491 H   0  0  0  0  0  0  0  0  0  0  0  0
    7.1678    2.2005    0.2370 H   0  0  0  0  0  0  0  0  0  0  0  0
    4.4371    3.2528   -0.1344 H   0  0  0  0  0  0  0  0  0  0  0  0
    5.2075    0.4777    0.8233 H   0  0  0  0  0  0  0  0  0  0  0  0
    3.5884   -1.4427   -0.3712 H   0  0  0  0  0  0  0  0  0  0  0  0
    2.9333   -1.0682    1.2409 H   0  0  0  0  0  0  0  0  0  0  0  0
    1.3194   -1.2174   -1.3456 H   0  0  0  0  0  0  0  0  0  0  0  0
    2.0408   -4.6672   -0.3315 H   0  0  0  0  0  0  0  0  0  0  0  0
    0.5967   -0.2656    1.3189 H   0  0  0  0  0  0  0  0  0  0  0  0
   -2.0802   -0.2516    1.6299 H   0  0  0  0  0  0  0  0  0  0  0  0
   -1.5729    1.2578    0.8346 H   0  0  0  0  0  0  0  0  0  0  0  0
   -3.0130    0.7171   -1.1103 H   0  0  0  0  0  0  0  0  0  0  0  0
   -3.5203   -0.7923   -0.3150 H   0  0  0  0  0  0  0  0  0  0  0  0
   -3.9146    1.9982    0.8539 H   0  0  0  0  0  0  0  0  0  0  0  0
   -6.3899    2.0702   -1.7364 H   0  0  0  0  0  0  0  0  0  0  0  0
   -4.9433   -0.6471    1.6521 H   0  0  0  0  0  0  0  0  0  0  0  0
   -3.8098    0.2526    2.4717 H   0  0  0  0  0  0  0  0  0  0  0  0
  1  2  1  0  0  0  0
  2  3  2  0  0  0  0
  3  4  1  0  0  0  0
  4  5  2  0  0  0  0
  4  6  1  0  0  0  0
  6  7  1  0  0  0  0
  7  8  1  0  0  0  0
  8  9  2  0  0  0  0
  8 10  1  0  0  0  0
  7 11  1  0  0  0  0
 11 12  1  0  0  0  0
 12 13  2  0  0  0  0
 12 14  1  0  0  0  0
 14 15  1  0  0  0  0
 15 16  1  0  0  0  0
 16 17  1  0  0  0  0
 17 18  2  0  0  0  0
 17 19  1  0  0  0  0
 16 20  1  0  0  0  0
  1 21  1  0  0  0  0
  1 22  1  0  0  0  0
  1 23  1  0  0  0  0
  2 24  1  0  0  0  0
  3 25  1  0  0  0  0
  6 26  1  0  0  0  0
  6 27  1  0  0  0  0
  7 28  1  0  0  0  0
 10 29  1  0  0  0  0
 11 30  1  0  0  0  0
 14 31  1  0  0  0  0
 14 32  1  0  0  0  0
 15 33  1  0  0  0  0
 15 34  1  0  0  0  0
 16 35  1  0  0  0  0
 19 36  1  0  0  0  0
 20 37  1  0  0  0  0
 20 38  1  0  0  0  0
M  END
$$$$
