C9H14O
APtclcactv06211806003D 0   0.00000     0.00000
 
 24 23  0  0  0  0  0  0  0  0999 V2000
    4.5310    1.5175   -0.1826 C   0  0  0  0  0  0  0  0  0  0  0  0
    4.2041    0.0381    0.0305 C   0  0  0  0  0  0  0  0  0  0  0  0
    2.7936   -0.0958    0.5439 C   0  0  0  0  0  0  0  0  0  0  0  0
    1.9359   -0.8576   -0.0886 C   0  0  0  0  0  0  0  0  0  0  0  0
    0.5254   -0.9915    0.4247 C   0  0  0  0  0  0  0  0  0  0  0  0
   -0.4592   -0.6291   -0.6889 C   0  0  0  0  0  0  0  0  0  0  0  0
   -1.8697   -0.7630   -0.1755 C   0  0  0  0  0  0  0  0  0  0  0  0
   -2.7113    0.2694   -0.2597 C   0  0  0  0  0  0  0  0  0  0  0  0
   -4.0803    0.1394    0.2385 C   0  0  0  0  0  0  0  0  0  0  0  0
   -4.8454    1.0779    0.1619 O   0  0  0  0  0  0  0  0  0  0  0  0
    5.5512    1.6143   -0.5539 H   0  0  0  0  0  0  0  0  0  0  0  0
    3.8381    1.9417   -0.9092 H   0  0  0  0  0  0  0  0  0  0  0  0
    4.4366    2.0504    0.7636 H   0  0  0  0  0  0  0  0  0  0  0  0
    4.2985   -0.4948   -0.9157 H   0  0  0  0  0  0  0  0  0  0  0  0
    4.8970   -0.3861    0.7571 H   0  0  0  0  0  0  0  0  0  0  0  0
    2.4898    0.4363    1.4332 H   0  0  0  0  0  0  0  0  0  0  0  0
    2.2397   -1.3898   -0.9780 H   0  0  0  0  0  0  0  0  0  0  0  0
    0.3509   -2.0191    0.7438 H   0  0  0  0  0  0  0  0  0  0  0  0
    0.3811   -0.3190    1.2703 H   0  0  0  0  0  0  0  0  0  0  0  0
   -0.2847    0.3984   -1.0079 H   0  0  0  0  0  0  0  0  0  0  0  0
   -0.3150   -1.3016   -1.5345 H   0  0  0  0  0  0  0  0  0  0  0  0
   -2.1995   -1.6944    0.2606 H   0  0  0  0  0  0  0  0  0  0  0  0
   -2.3815    1.2007   -0.6958 H   0  0  0  0  0  0  0  0  0  0  0  0
   -4.4101   -0.7919    0.6746 H   0  0  0  0  0  0  0  0  0  0  0  0
  1  2  1  0  0  0  0
  2  3  1  0  0  0  0
  3  4  2  0  0  0  0
  4  5  1  0  0  0  0
  5  6  1  0  0  0  0
  6  7  1  0  0  0  0
  7  8  2  0  0  0  0
  8  9  1  0  0  0  0
  9 10  2  0  0  0  0
  1 11  1  0  0  0  0
  1 12  1  0  0  0  0
  1 13  1  0  0  0  0
  2 14  1  0  0  0  0
  2 15  1  0  0  0  0
  3 16  1  0  0  0  0
  4 17  1  0  0  0  0
  5 18  1  0  0  0  0
  5 19  1  0  0  0  0
  6 20  1  0  0  0  0
  6 21  1  0  0  0  0
  7 22  1  0  0  0  0
  8 23  1  0  0  0  0
  9 24  1  0  0  0  0
M  END
$$$$
