C24H48O2
APtclcactv06211806003D 0   0.00000     0.00000
 
 74 73  0  0  0  0  0  0  0  0999 V2000
   15.5886   -0.3081   -0.0000 C   0  0  0  0  0  0  0  0  0  0  0  0
   14.3285    0.5596    0.0000 C   0  0  0  0  0  0  0  0  0  0  0  0
   13.0904   -0.3392   -0.0000 C   0  0  0  0  0  0  0  0  0  0  0  0
   11.8302    0.5285    0.0000 C   0  0  0  0  0  0  0  0  0  0  0  0
   10.5921   -0.3703   -0.0000 C   0  0  0  0  0  0  0  0  0  0  0  0
    9.3319    0.4974    0.0000 C   0  0  0  0  0  0  0  0  0  0  0  0
    8.0938   -0.4014   -0.0000 C   0  0  0  0  0  0  0  0  0  0  0  0
    6.8336    0.4663    0.0000 C   0  0  0  0  0  0  0  0  0  0  0  0
    5.5955   -0.4326   -0.0000 C   0  0  0  0  0  0  0  0  0  0  0  0
    4.3354    0.4352    0.0000 C   0  0  0  0  0  0  0  0  0  0  0  0
    3.0972   -0.4637   -0.0000 C   0  0  0  0  0  0  0  0  0  0  0  0
    1.8371    0.4041    0.0000 C   0  0  0  0  0  0  0  0  0  0  0  0
    0.5989   -0.4948   -0.0000 C   0  0  0  0  0  0  0  0  0  0  0  0
   -0.6612    0.3729    0.0000 C   0  0  0  0  0  0  0  0  0  0  0  0
   -1.8994   -0.5259    0.0000 C   0  0  0  0  0  0  0  0  0  0  0  0
   -3.1595    0.3418    0.0000 C   0  0  0  0  0  0  0  0  0  0  0  0
   -4.3976   -0.5570    0.0000 C   0  0  0  0  0  0  0  0  0  0  0  0
   -5.6578    0.3107    0.0000 C   0  0  0  0  0  0  0  0  0  0  0  0
   -6.8959   -0.5881    0.0000 C   0  0  0  0  0  0  0  0  0  0  0  0
   -8.1561    0.2796   -0.0000 C   0  0  0  0  0  0  0  0  0  0  0  0
   -9.3942   -0.6192    0.0000 C   0  0  0  0  0  0  0  0  0  0  0  0
  -10.6544    0.2485   -0.0000 C   0  0  0  0  0  0  0  0  0  0  0  0
  -11.8925   -0.6503    0.0000 C   0  0  0  0  0  0  0  0  0  0  0  0
  -13.1337    0.2043   -0.0000 C   0  0  0  0  0  0  0  0  0  0  0  0
  -13.0378    1.4088   -0.0000 O   0  0  0  0  0  0  0  0  0  0  0  0
  -14.3457   -0.3725    0.0000 O   0  0  0  0  0  0  0  0  0  0  0  0
   16.4707    0.3322    0.0000 H   0  0  0  0  0  0  0  0  0  0  0  0
   15.5965   -0.9374    0.8900 H   0  0  0  0  0  0  0  0  0  0  0  0
   15.5965   -0.9374   -0.8900 H   0  0  0  0  0  0  0  0  0  0  0  0
   14.3207    1.1889    0.8900 H   0  0  0  0  0  0  0  0  0  0  0  0
   14.3207    1.1889   -0.8900 H   0  0  0  0  0  0  0  0  0  0  0  0
   13.0982   -0.9685   -0.8900 H   0  0  0  0  0  0  0  0  0  0  0  0
   13.0982   -0.9685    0.8900 H   0  0  0  0  0  0  0  0  0  0  0  0
   11.8224    1.1578    0.8900 H   0  0  0  0  0  0  0  0  0  0  0  0
   11.8224    1.1578   -0.8900 H   0  0  0  0  0  0  0  0  0  0  0  0
   10.5999   -0.9996   -0.8900 H   0  0  0  0  0  0  0  0  0  0  0  0
   10.5999   -0.9996    0.8900 H   0  0  0  0  0  0  0  0  0  0  0  0
    9.3241    1.1267    0.8900 H   0  0  0  0  0  0  0  0  0  0  0  0
    9.3241    1.1267   -0.8900 H   0  0  0  0  0  0  0  0  0  0  0  0
    8.1016   -1.0307   -0.8900 H   0  0  0  0  0  0  0  0  0  0  0  0
    8.1016   -1.0307    0.8900 H   0  0  0  0  0  0  0  0  0  0  0  0
    6.8258    1.0955    0.8900 H   0  0  0  0  0  0  0  0  0  0  0  0
    6.8258    1.0955   -0.8900 H   0  0  0  0  0  0  0  0  0  0  0  0
    5.6033   -1.0618   -0.8900 H   0  0  0  0  0  0  0  0  0  0  0  0
    5.6033   -1.0618    0.8900 H   0  0  0  0  0  0  0  0  0  0  0  0
    4.3275    1.0644    0.8900 H   0  0  0  0  0  0  0  0  0  0  0  0
    4.3275    1.0644   -0.8900 H   0  0  0  0  0  0  0  0  0  0  0  0
    3.1051   -1.0929   -0.8900 H   0  0  0  0  0  0  0  0  0  0  0  0
    3.1051   -1.0929    0.8900 H   0  0  0  0  0  0  0  0  0  0  0  0
    1.8292    1.0333    0.8900 H   0  0  0  0  0  0  0  0  0  0  0  0
    1.8292    1.0333   -0.8900 H   0  0  0  0  0  0  0  0  0  0  0  0
    0.6068   -1.1240   -0.8900 H   0  0  0  0  0  0  0  0  0  0  0  0
    0.6068   -1.1240    0.8900 H   0  0  0  0  0  0  0  0  0  0  0  0
   -0.6690    1.0022    0.8900 H   0  0  0  0  0  0  0  0  0  0  0  0
   -0.6690    1.0022   -0.8900 H   0  0  0  0  0  0  0  0  0  0  0  0
   -1.8915   -1.1552   -0.8900 H   0  0  0  0  0  0  0  0  0  0  0  0
   -1.8915   -1.1552    0.8900 H   0  0  0  0  0  0  0  0  0  0  0  0
   -3.1673    0.9711    0.8900 H   0  0  0  0  0  0  0  0  0  0  0  0
   -3.1673    0.9711   -0.8900 H   0  0  0  0  0  0  0  0  0  0  0  0
   -4.3898   -1.1863   -0.8900 H   0  0  0  0  0  0  0  0  0  0  0  0
   -4.3898   -1.1863    0.8900 H   0  0  0  0  0  0  0  0  0  0  0  0
   -5.6656    0.9400    0.8900 H   0  0  0  0  0  0  0  0  0  0  0  0
   -5.6656    0.9400   -0.8900 H   0  0  0  0  0  0  0  0  0  0  0  0
   -6.8881   -1.2174   -0.8900 H   0  0  0  0  0  0  0  0  0  0  0  0
   -6.8881   -1.2174    0.8900 H   0  0  0  0  0  0  0  0  0  0  0  0
   -8.1639    0.9089    0.8900 H   0  0  0  0  0  0  0  0  0  0  0  0
   -8.1639    0.9089   -0.8900 H   0  0  0  0  0  0  0  0  0  0  0  0
   -9.3864   -1.2485   -0.8900 H   0  0  0  0  0  0  0  0  0  0  0  0
   -9.3864   -1.2485    0.8900 H   0  0  0  0  0  0  0  0  0  0  0  0
  -10.6622    0.8777    0.8900 H   0  0  0  0  0  0  0  0  0  0  0  0
  -10.6622    0.8777   -0.8900 H   0  0  0  0  0  0  0  0  0  0  0  0
  -11.8847   -1.2796   -0.8900 H   0  0  0  0  0  0  0  0  0  0  0  0
  -11.8847   -1.2796    0.8900 H   0  0  0  0  0  0  0  0  0  0  0  0
  -15.1124    0.2169   -0.0000 H   0  0  0  0  0  0  0  0  0  0  0  0
  1  2  1  0  0  0  0
  2  3  1  0  0  0  0
  3  4  1  0  0  0  0
  4  5  1  0  0  0  0
  5  6  1  0  0  0  0
  6  7  1  0  0  0  0
  7  8  1  0  0  0  0
  8  9  1  0  0  0  0
  9 10  1  0  0  0  0
 10 11  1  0  0  0  0
 11 12  1  0  0  0  0
 12 13  1  0  0  0  0
 13 14  1  0  0  0  0
 14 15  1  0  0  0  0
 15 16  1  0  0  0  0
 16 17  1  0  0  0  0
 17 18  1  0  0  0  0
 18 19  1  0  0  0  0
 19 20  1  0  0  0  0
 20 21  1  0  0  0  0
 21 22  1  0  0  0  0
 22 23  1  0  0  0  0
 23 24  1  0  0  0  0
 24 25  2  0  0  0  0
 24 26  1  0  0  0  0
  1 27  1  0  0  0  0
  1 28  1  0  0  0  0
  1 29  1  0  0  0  0
  2 30  1  0  0  0  0
  2 31  1  0  0  0  0
  3 32  1  0  0  0  0
  3 33  1  0  0  0  0
  4 34  1  0  0  0  0
  4 35  1  0  0  0  0
  5 36  1  0  0  0  0
  5 37  1  0  0  0  0
  6 38  1  0  0  0  0
  6 39  1  0  0  0  0
  7 40  1  0  0  0  0
  7 41  1  0  0  0  0
  8 42  1  0  0  0  0
  8 43  1  0  0  0  0
  9 44  1  0  0  0  0
  9 45  1  0  0  0  0
 10 46  1  0  0  0  0
 10 47  1  0  0  0  0
 11 48  1  0  0  0  0
 11 49  1  0  0  0  0
 12 50  1  0  0  0  0
 12 51  1  0  0  0  0
 13 52  1  0  0  0  0
 13 53  1  0  0  0  0
 14 54  1  0  0  0  0
 14 55  1  0  0  0  0
 15 56  1  0  0  0  0
 15 57  1  0  0  0  0
 16 58  1  0  0  0  0
 16 59  1  0  0  0  0
 17 60  1  0  0  0  0
 17 61  1  0  0  0  0
 18 62  1  0  0  0  0
 18 63  1  0  0  0  0
 19 64  1  0  0  0  0
 19 65  1  0  0  0  0
 20 66  1  0  0  0  0
 20 67  1  0  0  0  0
 21 68  1  0  0  0  0
 21 69  1  0  0  0  0
 22 70  1  0  0  0  0
 22 71  1  0  0  0  0
 23 72  1  0  0  0  0
 23 73  1  0  0  0  0
 26 74  1  0  0  0  0
M  END
$$$$
