C24H43NO
APtclcactv06281817313D 0   0.00000     0.00000
 
 69 68  0  0  0  0  0  0  0  0999 V2000
   12.8703    3.4958   -0.7542 C   0  0  0  0  0  0  0  0  0  0  0  0
   11.4635    3.1724   -0.2471 C   0  0  0  0  0  0  0  0  0  0  0  0
   11.3271    1.6612   -0.0505 C   0  0  0  0  0  0  0  0  0  0  0  0
    9.9203    1.3378    0.4566 C   0  0  0  0  0  0  0  0  0  0  0  0
    9.7840   -0.1734    0.6532 C   0  0  0  0  0  0  0  0  0  0  0  0
    8.3983   -0.4919    1.1527 C   0  0  0  0  0  0  0  0  0  0  0  0
    7.6501   -1.3508    0.5056 C   0  0  0  0  0  0  0  0  0  0  0  0
    6.2645   -1.6694    1.0051 C   0  0  0  0  0  0  0  0  0  0  0  0
    5.2502   -1.4246   -0.1139 C   0  0  0  0  0  0  0  0  0  0  0  0
    3.8434   -1.7480    0.3932 C   0  0  0  0  0  0  0  0  0  0  0  0
    2.8291   -1.5033   -0.7258 C   0  0  0  0  0  0  0  0  0  0  0  0
    1.4222   -1.8267   -0.2187 C   0  0  0  0  0  0  0  0  0  0  0  0
    0.4080   -1.5820   -1.3378 C   0  0  0  0  0  0  0  0  0  0  0  0
   -0.9777   -1.9005   -0.8383 C   0  0  0  0  0  0  0  0  0  0  0  0
   -1.9435   -0.9839   -0.9206 C   0  0  0  0  0  0  0  0  0  0  0  0
   -3.2891   -1.2933   -0.4356 C   0  0  0  0  0  0  0  0  0  0  0  0
   -4.2678   -0.3645   -0.5190 C   0  0  0  0  0  0  0  0  0  0  0  0
   -5.6127   -0.6737   -0.0342 C   0  0  0  0  0  0  0  0  0  0  0  0
   -5.8506   -1.7673    0.4443 O   0  0  0  0  0  0  0  0  0  0  0  0
   -6.5884    0.2523   -0.1174 N   0  0  0  0  0  0  0  0  0  0  0  0
   -7.9355   -0.0574    0.3682 C   0  0  0  0  0  0  0  0  0  0  0  0
   -8.8445    1.1552    0.1584 C   0  0  0  0  0  0  0  0  0  0  0  0
  -10.2513    0.8318    0.6655 C   0  0  0  0  0  0  0  0  0  0  0  0
  -11.1604    2.0445    0.4557 C   0  0  0  0  0  0  0  0  0  0  0  0
  -11.3210    2.3083   -1.0428 C   0  0  0  0  0  0  0  0  0  0  0  0
  -12.5318    1.7669    1.0745 C   0  0  0  0  0  0  0  0  0  0  0  0
   13.6063    3.1564   -0.0253 H   0  0  0  0  0  0  0  0  0  0  0  0
   13.0395    2.9890   -1.7043 H   0  0  0  0  0  0  0  0  0  0  0  0
   12.9675    4.5724   -0.8943 H   0  0  0  0  0  0  0  0  0  0  0  0
   11.2943    3.6791    0.7030 H   0  0  0  0  0  0  0  0  0  0  0  0
   10.7276    3.5118   -0.9760 H   0  0  0  0  0  0  0  0  0  0  0  0
   11.4963    1.1545   -1.0006 H   0  0  0  0  0  0  0  0  0  0  0  0
   12.0631    1.3218    0.6784 H   0  0  0  0  0  0  0  0  0  0  0  0
    9.7511    1.8445    1.4067 H   0  0  0  0  0  0  0  0  0  0  0  0
    9.1844    1.6772   -0.2723 H   0  0  0  0  0  0  0  0  0  0  0  0
    9.9531   -0.6801   -0.2969 H   0  0  0  0  0  0  0  0  0  0  0  0
   10.5199   -0.5128    1.3822 H   0  0  0  0  0  0  0  0  0  0  0  0
    8.0220   -0.0122    2.0441 H   0  0  0  0  0  0  0  0  0  0  0  0
    8.0264   -1.8306   -0.3858 H   0  0  0  0  0  0  0  0  0  0  0  0
    6.2205   -2.7140    1.3132 H   0  0  0  0  0  0  0  0  0  0  0  0
    6.0287   -1.0295    1.8555 H   0  0  0  0  0  0  0  0  0  0  0  0
    5.2941   -0.3800   -0.4220 H   0  0  0  0  0  0  0  0  0  0  0  0
    5.4859   -2.0645   -0.9643 H   0  0  0  0  0  0  0  0  0  0  0  0
    3.7994   -2.7927    0.7013 H   0  0  0  0  0  0  0  0  0  0  0  0
    3.6076   -1.1082    1.2436 H   0  0  0  0  0  0  0  0  0  0  0  0
    2.8730   -0.4587   -1.0339 H   0  0  0  0  0  0  0  0  0  0  0  0
    3.0648   -2.1431   -1.5762 H   0  0  0  0  0  0  0  0  0  0  0  0
    1.3783   -2.8713    0.0894 H   0  0  0  0  0  0  0  0  0  0  0  0
    1.1865   -1.1869    0.6316 H   0  0  0  0  0  0  0  0  0  0  0  0
    0.4519   -0.5373   -1.6459 H   0  0  0  0  0  0  0  0  0  0  0  0
    0.6437   -2.2218   -2.1881 H   0  0  0  0  0  0  0  0  0  0  0  0
   -1.1889   -2.8708   -0.4137 H   0  0  0  0  0  0  0  0  0  0  0  0
   -1.7324   -0.0136   -1.3452 H   0  0  0  0  0  0  0  0  0  0  0  0
   -3.5003   -2.2636   -0.0110 H   0  0  0  0  0  0  0  0  0  0  0  0
   -4.0566    0.6058   -0.9436 H   0  0  0  0  0  0  0  0  0  0  0  0
   -6.3987    1.1238   -0.4988 H   0  0  0  0  0  0  0  0  0  0  0  0
   -8.3334   -0.9095   -0.1830 H   0  0  0  0  0  0  0  0  0  0  0  0
   -7.8922   -0.2997    1.4300 H   0  0  0  0  0  0  0  0  0  0  0  0
   -8.4466    2.0073    0.7095 H   0  0  0  0  0  0  0  0  0  0  0  0
   -8.8878    1.3975   -0.9035 H   0  0  0  0  0  0  0  0  0  0  0  0
  -10.6493   -0.0202    0.1143 H   0  0  0  0  0  0  0  0  0  0  0  0
  -10.2080    0.5896    1.7273 H   0  0  0  0  0  0  0  0  0  0  0  0
  -10.7165    2.9182    0.9329 H   0  0  0  0  0  0  0  0  0  0  0  0
  -10.3439    2.5061   -1.4837 H   0  0  0  0  0  0  0  0  0  0  0  0
  -11.7648    1.4346   -1.5201 H   0  0  0  0  0  0  0  0  0  0  0  0
  -11.9686    3.1722   -1.1923 H   0  0  0  0  0  0  0  0  0  0  0  0
  -12.4174    1.5789    2.1421 H   0  0  0  0  0  0  0  0  0  0  0  0
  -13.1795    2.6308    0.9251 H   0  0  0  0  0  0  0  0  0  0  0  0
  -12.9757    0.8932    0.5973 H   0  0  0  0  0  0  0  0  0  0  0  0
  1  2  1  0  0  0  0
  2  3  1  0  0  0  0
  3  4  1  0  0  0  0
  4  5  1  0  0  0  0
  5  6  1  0  0  0  0
  6  7  2  0  0  0  0
  7  8  1  0  0  0  0
  8  9  1  0  0  0  0
  9 10  1  0  0  0  0
 10 11  1  0  0  0  0
 11 12  1  0  0  0  0
 12 13  1  0  0  0  0
 13 14  1  0  0  0  0
 14 15  2  0  0  0  0
 15 16  1  0  0  0  0
 16 17  2  0  0  0  0
 17 18  1  0  0  0  0
 18 19  2  0  0  0  0
 18 20  1  0  0  0  0
 20 21  1  0  0  0  0
 21 22  1  0  0  0  0
 22 23  1  0  0  0  0
 23 24  1  0  0  0  0
 24 25  1  0  0  0  0
 24 26  1  0  0  0  0
  1 27  1  0  0  0  0
  1 28  1  0  0  0  0
  1 29  1  0  0  0  0
  2 30  1  0  0  0  0
  2 31  1  0  0  0  0
  3 32  1  0  0  0  0
  3 33  1  0  0  0  0
  4 34  1  0  0  0  0
  4 35  1  0  0  0  0
  5 36  1  0  0  0  0
  5 37  1  0  0  0  0
  6 38  1  0  0  0  0
  7 39  1  0  0  0  0
  8 40  1  0  0  0  0
  8 41  1  0  0  0  0
  9 42  1  0  0  0  0
  9 43  1  0  0  0  0
 10 44  1  0  0  0  0
 10 45  1  0  0  0  0
 11 46  1  0  0  0  0
 11 47  1  0  0  0  0
 12 48  1  0  0  0  0
 12 49  1  0  0  0  0
 13 50  1  0  0  0  0
 13 51  1  0  0  0  0
 14 52  1  0  0  0  0
 15 53  1  0  0  0  0
 16 54  1  0  0  0  0
 17 55  1  0  0  0  0
 20 56  1  0  0  0  0
 21 57  1  0  0  0  0
 21 58  1  0  0  0  0
 22 59  1  0  0  0  0
 22 60  1  0  0  0  0
 23 61  1  0  0  0  0
 23 62  1  0  0  0  0
 24 63  1  0  0  0  0
 25 64  1  0  0  0  0
 25 65  1  0  0  0  0
 25 66  1  0  0  0  0
 26 67  1  0  0  0  0
 26 68  1  0  0  0  0
 26 69  1  0  0  0  0
M  END
$$$$
