C10H18O
APtclcactv06201815173D 0   0.00000     0.00000
 
 29 29  0  0  0  0  0  0  0  0999 V2000
    3.6837    0.0678   -0.1473 C   0  0  0  0  0  0  0  0  0  0  0  0
    2.1903    0.0403    0.0526 C   0  0  0  0  0  0  0  0  0  0  0  0
    1.5811    1.1682    0.2321 C   0  0  0  0  0  0  0  0  0  0  0  0
    0.1026    1.2993    0.4534 C   0  0  0  0  0  0  0  0  0  0  0  0
   -0.6109    0.0167    0.0206 C   0  0  0  0  0  0  0  0  0  0  0  0
    0.1105   -1.1781    0.6569 C   0  0  0  0  0  0  0  0  0  0  0  0
    1.5011   -1.2925    0.0250 C   0  0  0  0  0  0  0  0  0  0  0  0
   -2.0650    0.0519    0.4953 C   0  0  0  0  0  0  0  0  0  0  0  0
   -2.7736    1.2598   -0.1209 C   0  0  0  0  0  0  0  0  0  0  0  0
   -2.7746   -1.2321    0.0606 C   0  0  0  0  0  0  0  0  0  0  0  0
   -0.5688   -0.0994   -1.4031 O   0  0  0  0  0  0  0  0  0  0  0  0
    4.0368    1.0982   -0.1064 H   0  0  0  0  0  0  0  0  0  0  0  0
    4.1663   -0.5130    0.6388 H   0  0  0  0  0  0  0  0  0  0  0  0
    3.9283   -0.3618   -1.1187 H   0  0  0  0  0  0  0  0  0  0  0  0
    2.1737    2.0710    0.2224 H   0  0  0  0  0  0  0  0  0  0  0  0
   -0.0898    1.4806    1.5108 H   0  0  0  0  0  0  0  0  0  0  0  0
   -0.2770    2.1383   -0.1298 H   0  0  0  0  0  0  0  0  0  0  0  0
    0.2042   -1.0197    1.7313 H   0  0  0  0  0  0  0  0  0  0  0  0
   -0.4538   -2.0909    0.4660 H   0  0  0  0  0  0  0  0  0  0  0  0
    1.4027   -1.6336   -1.0056 H   0  0  0  0  0  0  0  0  0  0  0  0
    2.0951   -2.0133    0.5868 H   0  0  0  0  0  0  0  0  0  0  0  0
   -2.0906    0.1310    1.5821 H   0  0  0  0  0  0  0  0  0  0  0  0
   -2.7480    1.1806   -1.2077 H   0  0  0  0  0  0  0  0  0  0  0  0
   -3.8095    1.2849    0.2173 H   0  0  0  0  0  0  0  0  0  0  0  0
   -2.2681    2.1745    0.1888 H   0  0  0  0  0  0  0  0  0  0  0  0
   -2.7490   -1.3112   -1.0262 H   0  0  0  0  0  0  0  0  0  0  0  0
   -2.2698   -2.0926    0.4996 H   0  0  0  0  0  0  0  0  0  0  0  0
   -3.8105   -1.2070    0.3988 H   0  0  0  0  0  0  0  0  0  0  0  0
    0.3257   -0.1352   -1.7685 H   0  0  0  0  0  0  0  0  0  0  0  0
  1  2  1  0  0  0  0
  2  3  2  0  0  0  0
  3  4  1  0  0  0  0
  4  5  1  0  0  0  0
  5  6  1  0  0  0  0
  6  7  1  0  0  0  0
  2  7  1  0  0  0  0
  5  8  1  0  0  0  0
  8  9  1  0  0  0  0
  8 10  1  0  0  0  0
  5 11  1  0  0  0  0
  1 12  1  0  0  0  0
  1 13  1  0  0  0  0
  1 14  1  0  0  0  0
  3 15  1  0  0  0  0
  4 16  1  0  0  0  0
  4 17  1  0  0  0  0
  6 18  1  0  0  0  0
  6 19  1  0  0  0  0
  7 20  1  0  0  0  0
  7 21  1  0  0  0  0
  8 22  1  0  0  0  0
  9 23  1  0  0  0  0
  9 24  1  0  0  0  0
  9 25  1  0  0  0  0
 10 26  1  0  0  0  0
 10 27  1  0  0  0  0
 10 28  1  0  0  0  0
 11 29  1  0  0  0  0
M  END
$$$$
