C2H7NO3S
APtclcactv06211804333D 0   0.00000     0.00000
 
 14 13  0  0  0  0  0  0  0  0999 V2000
    1.9029    0.2446   -0.3243 C   0  0  0  0  0  0  0  0  0  0  0  0
    0.8331   -0.3709    0.5798 C   0  0  0  0  0  0  0  0  0  0  0  0
   -0.8123    0.0411   -0.0632 S   0  0  0  0  0  0  0  0  0  0  0  0
   -1.0692    1.4315    0.0784 O   0  0  0  0  0  0  0  0  0  0  0  0
   -1.0472   -0.6255   -1.2960 O   0  0  0  0  0  0  0  0  0  0  0  0
   -1.7772   -0.6199    0.9107 O   0  0  0  0  0  0  0  0  0  0  0  0
    3.2353   -0.0891    0.1964 N   0  0  0  0  0  0  0  0  0  0  0  0
    1.7975   -0.1523   -1.3340 H   0  0  0  0  0  0  0  0  0  0  0  0
    1.7817    1.3277   -0.3452 H   0  0  0  0  0  0  0  0  0  0  0  0
    0.9543   -1.4540    0.6007 H   0  0  0  0  0  0  0  0  0  0  0  0
    0.9385    0.0260    1.5895 H   0  0  0  0  0  0  0  0  0  0  0  0
   -2.7097   -0.4847    0.6933 H   0  0  0  0  0  0  0  0  0  0  0  0
    3.3488   -1.0876    0.2862 H   0  0  0  0  0  0  0  0  0  0  0  0
    3.9598    0.3064   -0.3839 H   0  0  0  0  0  0  0  0  0  0  0  0
  1  2  1  0  0  0  0
  2  3  1  0  0  0  0
  3  4  2  0  0  0  0
  3  5  2  0  0  0  0
  3  6  1  0  0  0  0
  1  7  1  0  0  0  0
  1  8  1  0  0  0  0
  1  9  1  0  0  0  0
  2 10  1  0  0  0  0
  2 11  1  0  0  0  0
  6 12  1  0  0  0  0
  7 13  1  0  0  0  0
  7 14  1  0  0  0  0
M  END
$$$$
