C20H16O5
APtclcactv06281817313D 0   0.00000     0.00000
 
 41 44  0  0  0  0  0  0  0  0999 V2000
   -5.4717    1.0154    1.3493 C   0  0  0  0  0  0  0  0  0  0  0  0
   -5.4926    0.2151    0.0454 C   0  0  0  0  0  0  0  0  0  0  0  0
   -5.0824    1.1107   -1.0935 C   0  0  0  0  0  0  0  0  0  0  0  0
   -3.7968    1.2267   -1.4202 C   0  0  0  0  0  0  0  0  0  0  0  0
   -2.8084    0.4470   -0.6441 C   0  0  0  0  0  0  0  0  0  0  0  0
   -3.2694   -0.6203    0.1424 C   0  0  0  0  0  0  0  0  0  0  0  0
   -4.5995   -0.8935    0.1589 O   0  0  0  0  0  0  0  0  0  0  0  0
   -2.3742   -1.3712    0.8811 C   0  0  0  0  0  0  0  0  0  0  0  0
   -1.0220   -1.0694    0.8442 C   0  0  0  0  0  0  0  0  0  0  0  0
   -0.5569   -0.0059    0.0614 C   0  0  0  0  0  0  0  0  0  0  0  0
   -1.4539    0.7531   -0.6842 C   0  0  0  0  0  0  0  0  0  0  0  0
    0.8917    0.3114    0.0263 C   0  0  0  0  0  0  0  0  0  0  0  0
    1.3876    1.3874    0.6907 C   0  0  0  0  0  0  0  0  0  0  0  0
    2.6780    1.7224    0.6739 O   0  0  0  0  0  0  0  0  0  0  0  0
    3.6214    0.8545    0.2629 C   0  0  0  0  0  0  0  0  0  0  0  0
    3.2667   -0.2985   -0.4595 C   0  0  0  0  0  0  0  0  0  0  0  0
    1.8365   -0.5362   -0.7263 C   0  0  0  0  0  0  0  0  0  0  0  0
    1.4571   -1.3742   -1.5263 O   0  0  0  0  0  0  0  0  0  0  0  0
    4.2452   -1.1910   -0.8966 C   0  0  0  0  0  0  0  0  0  0  0  0
    5.5590   -0.9464   -0.6141 C   0  0  0  0  0  0  0  0  0  0  0  0
    5.9224    0.1891    0.1074 C   0  0  0  0  0  0  0  0  0  0  0  0
    4.9626    1.0855    0.5441 C   0  0  0  0  0  0  0  0  0  0  0  0
    7.2312    0.4181    0.3851 O   0  0  0  0  0  0  0  0  0  0  0  0
   -0.1441   -1.8083    1.5712 O   0  0  0  0  0  0  0  0  0  0  0  0
   -6.9100   -0.3034   -0.2057 C   0  0  0  0  0  0  0  0  0  0  0  0
   -6.1668    1.8516    1.2736 H   0  0  0  0  0  0  0  0  0  0  0  0
   -5.7682    0.3702    2.1763 H   0  0  0  0  0  0  0  0  0  0  0  0
   -4.4653    1.3944    1.5269 H   0  0  0  0  0  0  0  0  0  0  0  0
   -5.8312    1.6589   -1.6459 H   0  0  0  0  0  0  0  0  0  0  0  0
   -3.4849    1.8713   -2.2287 H   0  0  0  0  0  0  0  0  0  0  0  0
   -2.7283   -2.1923    1.4868 H   0  0  0  0  0  0  0  0  0  0  0  0
   -1.0995    1.5739   -1.2901 H   0  0  0  0  0  0  0  0  0  0  0  0
    0.7042    2.0007    1.2592 H   0  0  0  0  0  0  0  0  0  0  0  0
    3.9654   -2.0716   -1.4557 H   0  0  0  0  0  0  0  0  0  0  0  0
    6.3190   -1.6359   -0.9508 H   0  0  0  0  0  0  0  0  0  0  0  0
    5.2552    1.9624    1.1026 H   0  0  0  0  0  0  0  0  0  0  0  0
    7.6911    0.9377   -0.2884 H   0  0  0  0  0  0  0  0  0  0  0  0
    0.2140   -2.5716    1.0978 H   0  0  0  0  0  0  0  0  0  0  0  0
   -7.5968    0.5395   -0.2833 H   0  0  0  0  0  0  0  0  0  0  0  0
   -6.9289   -0.8742   -1.1340 H   0  0  0  0  0  0  0  0  0  0  0  0
   -7.2141   -0.9448    0.6215 H   0  0  0  0  0  0  0  0  0  0  0  0
  1  2  1  0  0  0  0
  2  3  1  0  0  0  0
  3  4  2  0  0  0  0
  4  5  1  0  0  0  0
  5  6  2  0  0  0  0
  6  7  1  0  0  0  0
  2  7  1  0  0  0  0
  6  8  1  0  0  0  0
  8  9  2  0  0  0  0
  9 10  1  0  0  0  0
 10 11  2  0  0  0  0
  5 11  1  0  0  0  0
 10 12  1  0  0  0  0
 12 13  2  0  0  0  0
 13 14  1  0  0  0  0
 14 15  1  0  0  0  0
 15 16  2  0  0  0  0
 16 17  1  0  0  0  0
 12 17  1  0  0  0  0
 17 18  2  0  0  0  0
 16 19  1  0  0  0  0
 19 20  2  0  0  0  0
 20 21  1  0  0  0  0
 21 22  2  0  0  0  0
 15 22  1  0  0  0  0
 21 23  1  0  0  0  0
  9 24  1  0  0  0  0
  2 25  1  0  0  0  0
  1 26  1  0  0  0  0
  1 27  1  0  0  0  0
  1 28  1  0  0  0  0
  3 29  1  0  0  0  0
  4 30  1  0  0  0  0
  8 31  1  0  0  0  0
 11 32  1  0  0  0  0
 13 33  1  0  0  0  0
 19 34  1  0  0  0  0
 20 35  1  0  0  0  0
 22 36  1  0  0  0  0
 23 37  1  0  0  0  0
 24 38  1  0  0  0  0
 25 39  1  0  0  0  0
 25 40  1  0  0  0  0
 25 41  1  0  0  0  0
M  END
$$$$
