C18H16O3
APtclcactv06281817313D 0   0.00000     0.00000
 
 37 38  0  0  0  0  0  0  0  0999 V2000
   -3.5263   -0.8916   -0.4531 C   0  0  0  0  0  0  0  0  0  0  0  0
   -4.6241   -1.6806   -0.1833 C   0  0  0  0  0  0  0  0  0  0  0  0
   -5.7674   -1.1177    0.3683 C   0  0  0  0  0  0  0  0  0  0  0  0
   -5.8097    0.2413    0.6504 C   0  0  0  0  0  0  0  0  0  0  0  0
   -4.7162    1.0370    0.3831 C   0  0  0  0  0  0  0  0  0  0  0  0
   -3.5650    0.4748   -0.1709 C   0  0  0  0  0  0  0  0  0  0  0  0
   -2.3904    1.3241   -0.4585 C   0  0  0  0  0  0  0  0  0  0  0  0
   -1.2978    0.7883   -0.9848 C   0  0  0  0  0  0  0  0  0  0  0  0
   -0.0999    1.6544   -1.2781 C   0  0  0  0  0  0  0  0  0  0  0  0
    1.1132    1.0839   -0.5896 C   0  0  0  0  0  0  0  0  0  0  0  0
    1.9502    0.2586   -1.2647 C   0  0  0  0  0  0  0  0  0  0  0  0
    3.2201   -0.1563   -0.6566 C   0  0  0  0  0  0  0  0  0  0  0  0
    3.7462   -1.4266   -0.9250 C   0  0  0  0  0  0  0  0  0  0  0  0
    4.9370   -1.8104   -0.3522 C   0  0  0  0  0  0  0  0  0  0  0  0
    5.6181   -0.9398    0.4917 C   0  0  0  0  0  0  0  0  0  0  0  0
    5.1003    0.3223    0.7620 C   0  0  0  0  0  0  0  0  0  0  0  0
    3.9133    0.7188    0.1897 C   0  0  0  0  0  0  0  0  0  0  0  0
    6.7921   -1.3234    1.0540 O   0  0  0  0  0  0  0  0  0  0  0  0
    1.3771    1.4081    0.7548 C   0  0  0  0  0  0  0  0  0  0  0  0
    0.6893    2.2291    1.3279 O   0  0  0  0  0  0  0  0  0  0  0  0
   -6.8474   -1.8985    0.6323 O   0  0  0  0  0  0  0  0  0  0  0  0
   -2.6359   -1.3310   -0.8780 H   0  0  0  0  0  0  0  0  0  0  0  0
   -4.5951   -2.7379   -0.4017 H   0  0  0  0  0  0  0  0  0  0  0  0
   -6.7007    0.6755    1.0794 H   0  0  0  0  0  0  0  0  0  0  0  0
   -4.7502    2.0940    0.6021 H   0  0  0  0  0  0  0  0  0  0  0  0
   -2.4220    2.3813   -0.2400 H   0  0  0  0  0  0  0  0  0  0  0  0
   -1.2662   -0.2689   -1.2034 H   0  0  0  0  0  0  0  0  0  0  0  0
    0.0729    1.6833   -2.3539 H   0  0  0  0  0  0  0  0  0  0  0  0
   -0.2837    2.6646   -0.9124 H   0  0  0  0  0  0  0  0  0  0  0  0
    1.6828   -0.0936   -2.2500 H   0  0  0  0  0  0  0  0  0  0  0  0
    3.2179   -2.1036   -1.5800 H   0  0  0  0  0  0  0  0  0  0  0  0
    5.3433   -2.7896   -0.5581 H   0  0  0  0  0  0  0  0  0  0  0  0
    5.6332    0.9943    1.4184 H   0  0  0  0  0  0  0  0  0  0  0  0
    3.5121    1.6991    0.4003 H   0  0  0  0  0  0  0  0  0  0  0  0
    7.5714   -1.1064    0.5241 H   0  0  0  0  0  0  0  0  0  0  0  0
    2.1910    0.9268    1.2766 H   0  0  0  0  0  0  0  0  0  0  0  0
   -6.8472   -2.2833    1.5194 H   0  0  0  0  0  0  0  0  0  0  0  0
  1  2  2  0  0  0  0
  2  3  1  0  0  0  0
  3  4  2  0  0  0  0
  4  5  1  0  0  0  0
  5  6  2  0  0  0  0
  1  6  1  0  0  0  0
  6  7  1  0  0  0  0
  7  8  2  0  0  0  0
  8  9  1  0  0  0  0
  9 10  1  0  0  0  0
 10 11  2  0  0  0  0
 11 12  1  0  0  0  0
 12 13  2  0  0  0  0
 13 14  1  0  0  0  0
 14 15  2  0  0  0  0
 15 16  1  0  0  0  0
 16 17  2  0  0  0  0
 12 17  1  0  0  0  0
 15 18  1  0  0  0  0
 10 19  1  0  0  0  0
 19 20  2  0  0  0  0
  3 21  1  0  0  0  0
  1 22  1  0  0  0  0
  2 23  1  0  0  0  0
  4 24  1  0  0  0  0
  5 25  1  0  0  0  0
  7 26  1  0  0  0  0
  8 27  1  0  0  0  0
  9 28  1  0  0  0  0
  9 29  1  0  0  0  0
 11 30  1  0  0  0  0
 13 31  1  0  0  0  0
 14 32  1  0  0  0  0
 16 33  1  0  0  0  0
 17 34  1  0  0  0  0
 18 35  1  0  0  0  0
 19 36  1  0  0  0  0
 21 37  1  0  0  0  0
M  END
$$$$
