C30H26O12
APtclcactv06281817313D 0   0.00000     0.00000
 
 68 73  0  0  0  0  0  0  0  0999 V2000
   -2.7580    0.3430   -3.2583 C   0  0  0  0  0  0  0  0  0  0  0  0
   -3.7648    0.2006   -2.1141 C   0  0  0  0  0  0  0  0  0  0  0  0
   -3.1221   -0.6498   -1.0108 C   0  0  0  0  0  0  0  0  0  0  0  0
   -2.0042    0.0661   -0.4842 O   0  0  0  0  0  0  0  0  0  0  0  0
   -1.1091    0.5842   -1.3651 C   0  0  0  0  0  0  0  0  0  0  0  0
   -1.4141    0.7444   -2.7048 C   0  0  0  0  0  0  0  0  0  0  0  0
   -0.4694    1.2841   -3.5707 C   0  0  0  0  0  0  0  0  0  0  0  0
    0.7775    1.6588   -3.0983 C   0  0  0  0  0  0  0  0  0  0  0  0
    1.0850    1.4954   -1.7557 C   0  0  0  0  0  0  0  0  0  0  0  0
    0.1439    0.9602   -0.8921 C   0  0  0  0  0  0  0  0  0  0  0  0
    0.4790    0.7837    0.5666 C   0  0  0  0  0  0  0  0  0  0  0  0
    1.2810   -0.5067    0.7524 C   0  0  0  0  0  0  0  0  0  0  0  0
    2.6872   -0.2862    0.1801 C   0  0  0  0  0  0  0  0  0  0  0  0
    3.3392    0.7156    0.9617 O   0  0  0  0  0  0  0  0  0  0  0  0
    2.6641    1.8688    1.2073 C   0  0  0  0  0  0  0  0  0  0  0  0
    3.3834    2.9778    1.6392 C   0  0  0  0  0  0  0  0  0  0  0  0
    2.7334    4.1718    1.9057 C   0  0  0  0  0  0  0  0  0  0  0  0
    1.3597    4.2627    1.7409 C   0  0  0  0  0  0  0  0  0  0  0  0
    0.6422    3.1591    1.3083 C   0  0  0  0  0  0  0  0  0  0  0  0
    1.2936    1.9608    1.0402 C   0  0  0  0  0  0  0  0  0  0  0  0
   -0.7041    3.2484    1.1463 O   0  0  0  0  0  0  0  0  0  0  0  0
    3.4410    5.2522    2.3285 O   0  0  0  0  0  0  0  0  0  0  0  0
    3.4701   -1.5721    0.2477 C   0  0  0  0  0  0  0  0  0  0  0  0
    3.6014   -2.3597   -0.8809 C   0  0  0  0  0  0  0  0  0  0  0  0
    4.3209   -3.5424   -0.8204 C   0  0  0  0  0  0  0  0  0  0  0  0
    4.9101   -3.9343    0.3778 C   0  0  0  0  0  0  0  0  0  0  0  0
    4.7746   -3.1403    1.5052 C   0  0  0  0  0  0  0  0  0  0  0  0
    4.0601   -1.9587    1.4367 C   0  0  0  0  0  0  0  0  0  0  0  0
    5.6168   -5.0944    0.4422 O   0  0  0  0  0  0  0  0  0  0  0  0
    4.4507   -4.3185   -1.9296 O   0  0  0  0  0  0  0  0  0  0  0  0
    1.3710   -0.8219    2.1433 O   0  0  0  0  0  0  0  0  0  0  0  0
    2.3081    1.8596   -1.2886 O   0  0  0  0  0  0  0  0  0  0  0  0
   -0.7707    1.4441   -4.8862 O   0  0  0  0  0  0  0  0  0  0  0  0
   -4.1253   -0.9020    0.0851 C   0  0  0  0  0  0  0  0  0  0  0  0
   -4.7967   -2.1091    0.1411 C   0  0  0  0  0  0  0  0  0  0  0  0
   -5.7194   -2.3426    1.1481 C   0  0  0  0  0  0  0  0  0  0  0  0
   -5.9680   -1.3598    2.1013 C   0  0  0  0  0  0  0  0  0  0  0  0
   -5.2917   -0.1520    2.0394 C   0  0  0  0  0  0  0  0  0  0  0  0
   -4.3682    0.0723    1.0354 C   0  0  0  0  0  0  0  0  0  0  0  0
   -6.8731   -1.5840    3.0913 O   0  0  0  0  0  0  0  0  0  0  0  0
   -6.3810   -3.5294    1.2044 O   0  0  0  0  0  0  0  0  0  0  0  0
   -4.0930    1.4919   -1.5976 O   0  0  0  0  0  0  0  0  0  0  0  0
   -2.6655   -0.6092   -3.7806 H   0  0  0  0  0  0  0  0  0  0  0  0
   -3.1059    1.1058   -3.9548 H   0  0  0  0  0  0  0  0  0  0  0  0
   -4.6674   -0.2905   -2.4779 H   0  0  0  0  0  0  0  0  0  0  0  0
   -2.7866   -1.5994   -1.4277 H   0  0  0  0  0  0  0  0  0  0  0  0
    1.5086    2.0778   -3.7738 H   0  0  0  0  0  0  0  0  0  0  0  0
   -0.4425    0.7246    1.1458 H   0  0  0  0  0  0  0  0  0  0  0  0
    0.7919   -1.3231    0.2210 H   0  0  0  0  0  0  0  0  0  0  0  0
    2.6142    0.0458   -0.8555 H   0  0  0  0  0  0  0  0  0  0  0  0
    4.4534    2.9079    1.7678 H   0  0  0  0  0  0  0  0  0  0  0  0
    0.8499    5.1916    1.9497 H   0  0  0  0  0  0  0  0  0  0  0  0
   -0.9761    3.5265    0.2610 H   0  0  0  0  0  0  0  0  0  0  0  0
    3.7633    5.8161    1.6121 H   0  0  0  0  0  0  0  0  0  0  0  0
    3.1429   -2.0534   -1.8095 H   0  0  0  0  0  0  0  0  0  0  0  0
    5.2308   -3.4422    2.4364 H   0  0  0  0  0  0  0  0  0  0  0  0
    3.9552   -1.3407    2.3161 H   0  0  0  0  0  0  0  0  0  0  0  0
    6.5574   -4.9936    0.2416 H   0  0  0  0  0  0  0  0  0  0  0  0
    5.2242   -4.1064   -2.4697 H   0  0  0  0  0  0  0  0  0  0  0  0
    1.8675   -1.6299    2.3322 H   0  0  0  0  0  0  0  0  0  0  0  0
    2.3807    2.7978   -1.0659 H   0  0  0  0  0  0  0  0  0  0  0  0
   -1.1659    2.3010   -5.0977 H   0  0  0  0  0  0  0  0  0  0  0  0
   -4.6022   -2.8701   -0.6002 H   0  0  0  0  0  0  0  0  0  0  0  0
   -5.4828    0.6125    2.7780 H   0  0  0  0  0  0  0  0  0  0  0  0
   -3.8417    1.0141    0.9882 H   0  0  0  0  0  0  0  0  0  0  0  0
   -6.4947   -1.9815    3.8875 H   0  0  0  0  0  0  0  0  0  0  0  0
   -5.9321   -4.2054    1.7303 H   0  0  0  0  0  0  0  0  0  0  0  0
   -4.4872    2.0877   -2.2493 H   0  0  0  0  0  0  0  0  0  0  0  0
  1  2  1  0  0  0  0
  2  3  1  0  0  0  0
  3  4  1  0  0  0  0
  4  5  1  0  0  0  0
  5  6  2  0  0  0  0
  1  6  1  0  0  0  0
  6  7  1  0  0  0  0
  7  8  2  0  0  0  0
  8  9  1  0  0  0  0
  9 10  2  0  0  0  0
  5 10  1  0  0  0  0
 10 11  1  0  0  0  0
 11 12  1  0  0  0  0
 12 13  1  0  0  0  0
 13 14  1  0  0  0  0
 14 15  1  0  0  0  0
 15 16  2  0  0  0  0
 16 17  1  0  0  0  0
 17 18  2  0  0  0  0
 18 19  1  0  0  0  0
 19 20  2  0  0  0  0
 11 20  1  0  0  0  0
 15 20  1  0  0  0  0
 19 21  1  0  0  0  0
 17 22  1  0  0  0  0
 13 23  1  0  0  0  0
 23 24  2  0  0  0  0
 24 25  1  0  0  0  0
 25 26  2  0  0  0  0
 26 27  1  0  0  0  0
 27 28  2  0  0  0  0
 23 28  1  0  0  0  0
 26 29  1  0  0  0  0
 25 30  1  0  0  0  0
 12 31  1  0  0  0  0
  9 32  1  0  0  0  0
  7 33  1  0  0  0  0
  3 34  1  0  0  0  0
 34 35  2  0  0  0  0
 35 36  1  0  0  0  0
 36 37  2  0  0  0  0
 37 38  1  0  0  0  0
 38 39  2  0  0  0  0
 34 39  1  0  0  0  0
 37 40  1  0  0  0  0
 36 41  1  0  0  0  0
  2 42  1  0  0  0  0
  1 43  1  0  0  0  0
  1 44  1  0  0  0  0
  2 45  1  0  0  0  0
  3 46  1  0  0  0  0
  8 47  1  0  0  0  0
 11 48  1  0  0  0  0
 12 49  1  0  0  0  0
 13 50  1  0  0  0  0
 16 51  1  0  0  0  0
 18 52  1  0  0  0  0
 21 53  1  0  0  0  0
 22 54  1  0  0  0  0
 24 55  1  0  0  0  0
 27 56  1  0  0  0  0
 28 57  1  0  0  0  0
 29 58  1  0  0  0  0
 30 59  1  0  0  0  0
 31 60  1  0  0  0  0
 32 61  1  0  0  0  0
 33 62  1  0  0  0  0
 35 63  1  0  0  0  0
 38 64  1  0  0  0  0
 39 65  1  0  0  0  0
 40 66  1  0  0  0  0
 41 67  1  0  0  0  0
 42 68  1  0  0  0  0
M  END
$$$$
