C16H12O7
APtclcactv06281817313D 0   0.00000     0.00000
 
 35 37  0  0  0  0  0  0  0  0999 V2000
    3.1912    3.3943    0.0032 C   0  0  0  0  0  0  0  0  0  0  0  0
    4.0691    2.2668    0.0124 O   0  0  0  0  0  0  0  0  0  0  0  0
    3.4923    1.0352    0.0141 C   0  0  0  0  0  0  0  0  0  0  0  0
    2.1151    0.9177    0.0072 C   0  0  0  0  0  0  0  0  0  0  0  0
    1.5230   -0.3483    0.0085 C   0  0  0  0  0  0  0  0  0  0  0  0
    2.3257   -1.4920    0.0169 C   0  0  0  0  0  0  0  0  0  0  0  0
    3.7028   -1.3684    0.0238 C   0  0  0  0  0  0  0  0  0  0  0  0
    4.2897   -0.1063    0.0171 C   0  0  0  0  0  0  0  0  0  0  0  0
    5.6439    0.0123    0.0235 O   0  0  0  0  0  0  0  0  0  0  0  0
    4.4847   -2.4812    0.0323 O   0  0  0  0  0  0  0  0  0  0  0  0
    0.0536   -0.4769    0.0016 C   0  0  0  0  0  0  0  0  0  0  0  0
   -0.4941   -1.7220    0.0031 C   0  0  0  0  0  0  0  0  0  0  0  0
   -1.9019   -1.8651   -0.0034 C   0  0  0  0  0  0  0  0  0  0  0  0
   -2.4273   -2.9666   -0.0019 O   0  0  0  0  0  0  0  0  0  0  0  0
   -2.7083   -0.6327   -0.0115 C   0  0  0  0  0  0  0  0  0  0  0  0
   -4.1077   -0.6795   -0.0177 C   0  0  0  0  0  0  0  0  0  0  0  0
   -4.8286    0.5006   -0.0248 C   0  0  0  0  0  0  0  0  0  0  0  0
   -4.1667    1.7233   -0.0257 C   0  0  0  0  0  0  0  0  0  0  0  0
   -2.7812    1.7769   -0.0200 C   0  0  0  0  0  0  0  0  0  0  0  0
   -2.0417    0.6049   -0.0124 C   0  0  0  0  0  0  0  0  0  0  0  0
   -0.6922    0.6394   -0.0004 O   0  0  0  0  0  0  0  0  0  0  0  0
   -4.8840    2.8759   -0.0327 O   0  0  0  0  0  0  0  0  0  0  0  0
   -4.7518   -1.8741   -0.0173 O   0  0  0  0  0  0  0  0  0  0  0  0
    2.5674    3.3618   -0.8900 H   0  0  0  0  0  0  0  0  0  0  0  0
    2.5578    3.3688    0.8900 H   0  0  0  0  0  0  0  0  0  0  0  0
    3.7788    4.3123    0.0028 H   0  0  0  0  0  0  0  0  0  0  0  0
    1.4971    1.8034    0.0011 H   0  0  0  0  0  0  0  0  0  0  0  0
    1.8708   -2.4716    0.0183 H   0  0  0  0  0  0  0  0  0  0  0  0
    6.0405    0.0396   -0.8581 H   0  0  0  0  0  0  0  0  0  0  0  0
    4.7156   -2.8065   -0.8486 H   0  0  0  0  0  0  0  0  0  0  0  0
    0.1411   -2.5954    0.0089 H   0  0  0  0  0  0  0  0  0  0  0  0
   -5.9082    0.4724   -0.0300 H   0  0  0  0  0  0  0  0  0  0  0  0
   -2.2780    2.7326   -0.0215 H   0  0  0  0  0  0  0  0  0  0  0  0
   -5.0958    3.2127    0.8486 H   0  0  0  0  0  0  0  0  0  0  0  0
   -4.9425   -2.2178    0.8662 H   0  0  0  0  0  0  0  0  0  0  0  0
  1  2  1  0  0  0  0
  2  3  1  0  0  0  0
  3  4  2  0  0  0  0
  4  5  1  0  0  0  0
  5  6  2  0  0  0  0
  6  7  1  0  0  0  0
  7  8  2  0  0  0  0
  3  8  1  0  0  0  0
  8  9  1  0  0  0  0
  7 10  1  0  0  0  0
  5 11  1  0  0  0  0
 11 12  2  0  0  0  0
 12 13  1  0  0  0  0
 13 14  2  0  0  0  0
 13 15  1  0  0  0  0
 15 16  2  0  0  0  0
 16 17  1  0  0  0  0
 17 18  2  0  0  0  0
 18 19  1  0  0  0  0
 19 20  2  0  0  0  0
 15 20  1  0  0  0  0
 20 21  1  0  0  0  0
 11 21  1  0  0  0  0
 18 22  1  0  0  0  0
 16 23  1  0  0  0  0
  1 24  1  0  0  0  0
  1 25  1  0  0  0  0
  1 26  1  0  0  0  0
  4 27  1  0  0  0  0
  6 28  1  0  0  0  0
  9 29  1  0  0  0  0
 10 30  1  0  0  0  0
 12 31  1  0  0  0  0
 17 32  1  0  0  0  0
 19 33  1  0  0  0  0
 22 34  1  0  0  0  0
 23 35  1  0  0  0  0
M  END
$$$$
