C15H23NO2
APtclcactv06281817323D 0   0.00000     0.00000
 
 41 41  0  0  0  0  0  0  0  0999 V2000
    8.3505   -0.6545   -0.1508 C   0  0  0  0  0  0  0  0  0  0  0  0
    7.2004    0.3412   -0.3145 C   0  0  0  0  0  0  0  0  0  0  0  0
    5.8706   -0.3677   -0.0503 C   0  0  0  0  0  0  0  0  0  0  0  0
    4.7205    0.6279   -0.2140 C   0  0  0  0  0  0  0  0  0  0  0  0
    3.4106   -0.0704    0.0462 C   0  0  0  0  0  0  0  0  0  0  0  0
    3.3982   -1.2492    0.3345 O   0  0  0  0  0  0  0  0  0  0  0  0
    2.1939    0.6492   -0.0456 C   0  0  0  0  0  0  0  0  0  0  0  0
    1.0162    0.0214    0.1884 C   0  0  0  0  0  0  0  0  0  0  0  0
   -0.2393    0.7639    0.0936 C   0  0  0  0  0  0  0  0  0  0  0  0
   -1.4134    0.1379    0.3269 C   0  0  0  0  0  0  0  0  0  0  0  0
   -2.6764    0.8849    0.2316 C   0  0  0  0  0  0  0  0  0  0  0  0
   -2.6598    2.0852    0.0371 O   0  0  0  0  0  0  0  0  0  0  0  0
   -3.8525    0.2392    0.3597 N   0  0  0  0  0  0  0  0  0  0  0  0
   -5.1225    0.9495    0.1564 C   0  0  0  0  0  0  0  0  0  0  0  0
   -5.9531    0.1874   -0.8809 C   0  0  0  0  0  0  0  0  0  0  0  0
   -6.1113   -1.2674   -0.4329 C   0  0  0  0  0  0  0  0  0  0  0  0
   -4.7334   -1.9266   -0.3386 C   0  0  0  0  0  0  0  0  0  0  0  0
   -3.8888   -1.1898    0.6994 C   0  0  0  0  0  0  0  0  0  0  0  0
    9.2979   -0.1494   -0.3390 H   0  0  0  0  0  0  0  0  0  0  0  0
    8.3458   -1.0513    0.8644 H   0  0  0  0  0  0  0  0  0  0  0  0
    8.2272   -1.4720   -0.8610 H   0  0  0  0  0  0  0  0  0  0  0  0
    7.3237    1.1587    0.3958 H   0  0  0  0  0  0  0  0  0  0  0  0
    7.2052    0.7380   -1.3297 H   0  0  0  0  0  0  0  0  0  0  0  0
    5.7473   -1.1853   -0.7606 H   0  0  0  0  0  0  0  0  0  0  0  0
    5.8658   -0.7646    0.9649 H   0  0  0  0  0  0  0  0  0  0  0  0
    4.8438    1.4455    0.4963 H   0  0  0  0  0  0  0  0  0  0  0  0
    4.7252    1.0248   -1.2292 H   0  0  0  0  0  0  0  0  0  0  0  0
    2.2050    1.6982   -0.3021 H   0  0  0  0  0  0  0  0  0  0  0  0
    1.0052   -1.0277    0.4449 H   0  0  0  0  0  0  0  0  0  0  0  0
   -0.2282    1.8129   -0.1629 H   0  0  0  0  0  0  0  0  0  0  0  0
   -1.4245   -0.9111    0.5834 H   0  0  0  0  0  0  0  0  0  0  0  0
   -5.6690    0.9977    1.0983 H   0  0  0  0  0  0  0  0  0  0  0  0
   -4.9231    1.9584   -0.2048 H   0  0  0  0  0  0  0  0  0  0  0  0
   -6.9362    0.6495   -0.9704 H   0  0  0  0  0  0  0  0  0  0  0  0
   -5.4470    0.2179   -1.8458 H   0  0  0  0  0  0  0  0  0  0  0  0
   -6.5952   -1.2961    0.5434 H   0  0  0  0  0  0  0  0  0  0  0  0
   -6.7227   -1.8059   -1.1570 H   0  0  0  0  0  0  0  0  0  0  0  0
   -4.8484   -2.9692   -0.0421 H   0  0  0  0  0  0  0  0  0  0  0  0
   -4.2388   -1.8762   -1.3086 H   0  0  0  0  0  0  0  0  0  0  0  0
   -2.8759   -1.5926    0.6989 H   0  0  0  0  0  0  0  0  0  0  0  0
   -4.3332   -1.3140    1.6869 H   0  0  0  0  0  0  0  0  0  0  0  0
  1  2  1  0  0  0  0
  2  3  1  0  0  0  0
  3  4  1  0  0  0  0
  4  5  1  0  0  0  0
  5  6  2  0  0  0  0
  5  7  1  0  0  0  0
  7  8  2  0  0  0  0
  8  9  1  0  0  0  0
  9 10  2  0  0  0  0
 10 11  1  0  0  0  0
 11 12  2  0  0  0  0
 11 13  1  0  0  0  0
 13 14  1  0  0  0  0
 14 15  1  0  0  0  0
 15 16  1  0  0  0  0
 16 17  1  0  0  0  0
 17 18  1  0  0  0  0
 13 18  1  0  0  0  0
  1 19  1  0  0  0  0
  1 20  1  0  0  0  0
  1 21  1  0  0  0  0
  2 22  1  0  0  0  0
  2 23  1  0  0  0  0
  3 24  1  0  0  0  0
  3 25  1  0  0  0  0
  4 26  1  0  0  0  0
  4 27  1  0  0  0  0
  7 28  1  0  0  0  0
  8 29  1  0  0  0  0
  9 30  1  0  0  0  0
 10 31  1  0  0  0  0
 14 32  1  0  0  0  0
 14 33  1  0  0  0  0
 15 34  1  0  0  0  0
 15 35  1  0  0  0  0
 16 36  1  0  0  0  0
 16 37  1  0  0  0  0
 17 38  1  0  0  0  0
 17 39  1  0  0  0  0
 18 40  1  0  0  0  0
 18 41  1  0  0  0  0
M  END
$$$$
