C21H22O5
APtclcactv06281817323D 0   0.00000     0.00000
 
 48 49  0  0  0  0  0  0  0  0999 V2000
    6.4272    2.1513    0.2356 C   0  0  0  0  0  0  0  0  0  0  0  0
    6.0898    0.9014   -0.5358 C   0  0  0  0  0  0  0  0  0  0  0  0
    7.0469    0.1777   -1.0613 C   0  0  0  0  0  0  0  0  0  0  0  0
    4.6513    0.4841   -0.7026 C   0  0  0  0  0  0  0  0  0  0  0  0
    4.0616    0.1292    0.6638 C   0  0  0  0  0  0  0  0  0  0  0  0
    2.6637   -0.4045    0.4843 C   0  0  0  0  0  0  0  0  0  0  0  0
    2.4590   -1.7642    0.3015 C   0  0  0  0  0  0  0  0  0  0  0  0
    1.1704   -2.2637    0.1351 C   0  0  0  0  0  0  0  0  0  0  0  0
    0.0900   -1.4126    0.1512 C   0  0  0  0  0  0  0  0  0  0  0  0
    0.2849   -0.0399    0.3353 C   0  0  0  0  0  0  0  0  0  0  0  0
    1.5843    0.4616    0.5077 C   0  0  0  0  0  0  0  0  0  0  0  0
    1.7824    1.7917    0.6874 O   0  0  0  0  0  0  0  0  0  0  0  0
   -0.8703    0.8759    0.3528 C   0  0  0  0  0  0  0  0  0  0  0  0
   -0.6977    2.0711    0.5133 O   0  0  0  0  0  0  0  0  0  0  0  0
   -2.2229    0.3498    0.1774 C   0  0  0  0  0  0  0  0  0  0  0  0
   -3.2818    1.1892    0.1934 C   0  0  0  0  0  0  0  0  0  0  0  0
   -4.6413    0.6604    0.0172 C   0  0  0  0  0  0  0  0  0  0  0  0
   -5.7401    1.5280    0.0334 C   0  0  0  0  0  0  0  0  0  0  0  0
   -7.0116    1.0274   -0.1321 C   0  0  0  0  0  0  0  0  0  0  0  0
   -7.2058   -0.3372   -0.3146 C   0  0  0  0  0  0  0  0  0  0  0  0
   -6.1181   -1.2031   -0.3315 C   0  0  0  0  0  0  0  0  0  0  0  0
   -4.8419   -0.7122   -0.1732 C   0  0  0  0  0  0  0  0  0  0  0  0
   -8.4617   -0.8258   -0.4765 O   0  0  0  0  0  0  0  0  0  0  0  0
    3.5195   -2.6110    0.2843 O   0  0  0  0  0  0  0  0  0  0  0  0
    3.2385   -3.9988    0.0918 C   0  0  0  0  0  0  0  0  0  0  0  0
    3.9069    1.5598   -1.2778 O   0  0  0  0  0  0  0  0  0  0  0  0
    6.4492    3.0030   -0.4443 H   0  0  0  0  0  0  0  0  0  0  0  0
    5.6723    2.3191    1.0037 H   0  0  0  0  0  0  0  0  0  0  0  0
    7.4040    2.0359    0.7052 H   0  0  0  0  0  0  0  0  0  0  0  0
    8.0778    0.4767   -0.9418 H   0  0  0  0  0  0  0  0  0  0  0  0
    6.8051   -0.7181   -1.6141 H   0  0  0  0  0  0  0  0  0  0  0  0
    4.5989   -0.3853   -1.3579 H   0  0  0  0  0  0  0  0  0  0  0  0
    4.6817   -0.6296    1.1412 H   0  0  0  0  0  0  0  0  0  0  0  0
    4.0324    1.0211    1.2898 H   0  0  0  0  0  0  0  0  0  0  0  0
    1.0183   -3.3234   -0.0076 H   0  0  0  0  0  0  0  0  0  0  0  0
   -0.9081   -1.8040    0.0214 H   0  0  0  0  0  0  0  0  0  0  0  0
    1.7651    2.0704    1.6132 H   0  0  0  0  0  0  0  0  0  0  0  0
   -2.3759   -0.7098    0.0351 H   0  0  0  0  0  0  0  0  0  0  0  0
   -3.1288    2.2488    0.3358 H   0  0  0  0  0  0  0  0  0  0  0  0
   -5.5904    2.5881    0.1759 H   0  0  0  0  0  0  0  0  0  0  0  0
   -7.8599    1.6957   -0.1198 H   0  0  0  0  0  0  0  0  0  0  0  0
   -6.2744   -2.2622   -0.4737 H   0  0  0  0  0  0  0  0  0  0  0  0
   -3.9977   -1.3856   -0.1864 H   0  0  0  0  0  0  0  0  0  0  0  0
   -8.7546   -0.8606   -1.3974 H   0  0  0  0  0  0  0  0  0  0  0  0
    2.5933   -4.3537    0.8954 H   0  0  0  0  0  0  0  0  0  0  0  0
    2.7366   -4.1385   -0.8657 H   0  0  0  0  0  0  0  0  0  0  0  0
    4.1712   -4.5627    0.0988 H   0  0  0  0  0  0  0  0  0  0  0  0
    3.9098    2.3681   -0.7470 H   0  0  0  0  0  0  0  0  0  0  0  0
  1  2  1  0  0  0  0
  2  3  2  0  0  0  0
  2  4  1  0  0  0  0
  4  5  1  0  0  0  0
  5  6  1  0  0  0  0
  6  7  2  0  0  0  0
  7  8  1  0  0  0  0
  8  9  2  0  0  0  0
  9 10  1  0  0  0  0
 10 11  2  0  0  0  0
  6 11  1  0  0  0  0
 11 12  1  0  0  0  0
 10 13  1  0  0  0  0
 13 14  2  0  0  0  0
 13 15  1  0  0  0  0
 15 16  2  0  0  0  0
 16 17  1  0  0  0  0
 17 18  2  0  0  0  0
 18 19  1  0  0  0  0
 19 20  2  0  0  0  0
 20 21  1  0  0  0  0
 21 22  2  0  0  0  0
 17 22  1  0  0  0  0
 20 23  1  0  0  0  0
  7 24  1  0  0  0  0
 24 25  1  0  0  0  0
  4 26  1  0  0  0  0
  1 27  1  0  0  0  0
  1 28  1  0  0  0  0
  1 29  1  0  0  0  0
  3 30  1  0  0  0  0
  3 31  1  0  0  0  0
  4 32  1  0  0  0  0
  5 33  1  0  0  0  0
  5 34  1  0  0  0  0
  8 35  1  0  0  0  0
  9 36  1  0  0  0  0
 12 37  1  0  0  0  0
 15 38  1  0  0  0  0
 16 39  1  0  0  0  0
 18 40  1  0  0  0  0
 19 41  1  0  0  0  0
 21 42  1  0  0  0  0
 22 43  1  0  0  0  0
 23 44  1  0  0  0  0
 25 45  1  0  0  0  0
 25 46  1  0  0  0  0
 25 47  1  0  0  0  0
 26 48  1  0  0  0  0
M  END
$$$$
