C22H20O4
APtclcactv06281817323D 0   0.00000     0.00000
 
 46 49  0  0  0  0  0  0  0  0999 V2000
    1.6944    4.1527   -0.3171 C   0  0  0  0  0  0  0  0  0  0  0  0
    1.7640    2.8090   -0.7984 O   0  0  0  0  0  0  0  0  0  0  0  0
    0.6981    2.0069   -0.5438 C   0  0  0  0  0  0  0  0  0  0  0  0
    0.6965    0.6925   -0.9805 C   0  0  0  0  0  0  0  0  0  0  0  0
   -0.3991   -0.1241   -0.7328 C   0  0  0  0  0  0  0  0  0  0  0  0
   -1.5186    0.3817   -0.0819 C   0  0  0  0  0  0  0  0  0  0  0  0
   -1.4767    1.6928    0.4132 C   0  0  0  0  0  0  0  0  0  0  0  0
   -0.3861    2.4975    0.1717 C   0  0  0  0  0  0  0  0  0  0  0  0
   -2.6163    2.2088    1.2552 C   0  0  0  0  0  0  0  0  0  0  0  0
   -3.2300    1.0687    2.0736 C   0  0  0  0  0  0  0  0  0  0  0  0
   -3.6143   -0.0643    1.1544 C   0  0  0  0  0  0  0  0  0  0  0  0
   -2.7823   -0.3741    0.0754 C   0  0  0  0  0  0  0  0  0  0  0  0
   -3.1966   -1.3498   -0.8303 C   0  0  0  0  0  0  0  0  0  0  0  0
   -4.3604   -2.0697   -0.5910 C   0  0  0  0  0  0  0  0  0  0  0  0
   -5.1349   -1.7973    0.5193 C   0  0  0  0  0  0  0  0  0  0  0  0
   -4.7643   -0.7858    1.3875 C   0  0  0  0  0  0  0  0  0  0  0  0
   -2.5273   -1.5809   -1.9901 O   0  0  0  0  0  0  0  0  0  0  0  0
   -0.3083   -1.4354   -1.0804 O   0  0  0  0  0  0  0  0  0  0  0  0
    1.8852    0.1423   -1.7261 C   0  0  0  0  0  0  0  0  0  0  0  0
    2.8633   -0.4504   -0.7447 C   0  0  0  0  0  0  0  0  0  0  0  0
    2.7620   -1.7825   -0.3884 C   0  0  0  0  0  0  0  0  0  0  0  0
    3.6573   -2.3282    0.5109 C   0  0  0  0  0  0  0  0  0  0  0  0
    4.6589   -1.5384    1.0568 C   0  0  0  0  0  0  0  0  0  0  0  0
    4.7584   -0.2021    0.6976 C   0  0  0  0  0  0  0  0  0  0  0  0
    3.8640    0.3374   -0.2065 C   0  0  0  0  0  0  0  0  0  0  0  0
    5.5406   -2.0728    1.9421 O   0  0  0  0  0  0  0  0  0  0  0  0
    2.6075    4.6832   -0.5873 H   0  0  0  0  0  0  0  0  0  0  0  0
    0.8365    4.6549   -0.7643 H   0  0  0  0  0  0  0  0  0  0  0  0
    1.5861    4.1450    0.7675 H   0  0  0  0  0  0  0  0  0  0  0  0
   -0.3728    3.5137    0.5383 H   0  0  0  0  0  0  0  0  0  0  0  0
   -2.2454    2.9743    1.9328 H   0  0  0  0  0  0  0  0  0  0  0  0
   -3.3798    2.6312    0.6057 H   0  0  0  0  0  0  0  0  0  0  0  0
   -2.5011    0.7143    2.7975 H   0  0  0  0  0  0  0  0  0  0  0  0
   -4.1164    1.4330    2.5865 H   0  0  0  0  0  0  0  0  0  0  0  0
   -4.6584   -2.8462   -1.2810 H   0  0  0  0  0  0  0  0  0  0  0  0
   -6.0286   -2.3716    0.7104 H   0  0  0  0  0  0  0  0  0  0  0  0
   -5.3791   -0.5640    2.2478 H   0  0  0  0  0  0  0  0  0  0  0  0
   -1.8275   -2.2440   -1.9149 H   0  0  0  0  0  0  0  0  0  0  0  0
    0.0404   -2.0046   -0.3807 H   0  0  0  0  0  0  0  0  0  0  0  0
    1.5533   -0.6301   -2.4198 H   0  0  0  0  0  0  0  0  0  0  0  0
    2.3694    0.9457   -2.2814 H   0  0  0  0  0  0  0  0  0  0  0  0
    1.9819   -2.3968   -0.8134 H   0  0  0  0  0  0  0  0  0  0  0  0
    3.5775   -3.3687    0.7892 H   0  0  0  0  0  0  0  0  0  0  0  0
    5.5372    0.4148    1.1211 H   0  0  0  0  0  0  0  0  0  0  0  0
    3.9411    1.3777   -0.4864 H   0  0  0  0  0  0  0  0  0  0  0  0
    6.3322   -2.4469    1.5316 H   0  0  0  0  0  0  0  0  0  0  0  0
  1  2  1  0  0  0  0
  2  3  1  0  0  0  0
  3  4  2  0  0  0  0
  4  5  1  0  0  0  0
  5  6  2  0  0  0  0
  6  7  1  0  0  0  0
  7  8  2  0  0  0  0
  3  8  1  0  0  0  0
  7  9  1  0  0  0  0
  9 10  1  0  0  0  0
 10 11  1  0  0  0  0
 11 12  2  0  0  0  0
  6 12  1  0  0  0  0
 12 13  1  0  0  0  0
 13 14  2  0  0  0  0
 14 15  1  0  0  0  0
 15 16  2  0  0  0  0
 11 16  1  0  0  0  0
 13 17  1  0  0  0  0
  5 18  1  0  0  0  0
  4 19  1  0  0  0  0
 19 20  1  0  0  0  0
 20 21  2  0  0  0  0
 21 22  1  0  0  0  0
 22 23  2  0  0  0  0
 23 24  1  0  0  0  0
 24 25  2  0  0  0  0
 20 25  1  0  0  0  0
 23 26  1  0  0  0  0
  1 27  1  0  0  0  0
  1 28  1  0  0  0  0
  1 29  1  0  0  0  0
  8 30  1  0  0  0  0
  9 31  1  0  0  0  0
  9 32  1  0  0  0  0
 10 33  1  0  0  0  0
 10 34  1  0  0  0  0
 14 35  1  0  0  0  0
 15 36  1  0  0  0  0
 16 37  1  0  0  0  0
 17 38  1  0  0  0  0
 18 39  1  0  0  0  0
 19 40  1  0  0  0  0
 19 41  1  0  0  0  0
 21 42  1  0  0  0  0
 22 43  1  0  0  0  0
 24 44  1  0  0  0  0
 25 45  1  0  0  0  0
 26 46  1  0  0  0  0
M  END
$$$$
