C30H26O6
APtclcactv06281817323D 0   0.00000     0.00000
 
 62 67  0  0  0  0  0  0  0  0999 V2000
   -4.6421    2.1095   -3.1081 C   0  0  0  0  0  0  0  0  0  0  0  0
   -4.4365    1.2004   -2.0249 O   0  0  0  0  0  0  0  0  0  0  0  0
   -3.2032    1.1883   -1.4555 C   0  0  0  0  0  0  0  0  0  0  0  0
   -2.9337    0.3244   -0.3927 C   0  0  0  0  0  0  0  0  0  0  0  0
   -1.6647    0.2949    0.1804 C   0  0  0  0  0  0  0  0  0  0  0  0
   -0.6760    1.1515   -0.2912 C   0  0  0  0  0  0  0  0  0  0  0  0
   -0.9548    2.0230   -1.3506 C   0  0  0  0  0  0  0  0  0  0  0  0
   -2.2109    2.0299   -1.9336 C   0  0  0  0  0  0  0  0  0  0  0  0
    0.0109    2.8600   -1.8115 O   0  0  0  0  0  0  0  0  0  0  0  0
    0.6717    1.1422    0.3277 C   0  0  0  0  0  0  0  0  0  0  0  0
    1.6592    0.2968   -0.1662 C   0  0  0  0  0  0  0  0  0  0  0  0
    1.3589   -0.6334   -1.3108 C   0  0  0  0  0  0  0  0  0  0  0  0
    2.5764   -0.7880   -2.2167 C   0  0  0  0  0  0  0  0  0  0  0  0
    3.8010   -1.1313   -1.4114 C   0  0  0  0  0  0  0  0  0  0  0  0
    3.9748   -0.5849   -0.1409 C   0  0  0  0  0  0  0  0  0  0  0  0
    2.9241    0.3011    0.4138 C   0  0  0  0  0  0  0  0  0  0  0  0
    3.1964    1.1362    1.5003 C   0  0  0  0  0  0  0  0  0  0  0  0
    2.2083    1.9743    1.9927 C   0  0  0  0  0  0  0  0  0  0  0  0
    0.9538    1.9886    1.4064 C   0  0  0  0  0  0  0  0  0  0  0  0
   -0.0086    2.8188    1.8859 O   0  0  0  0  0  0  0  0  0  0  0  0
    4.4279    1.1264    2.0737 O   0  0  0  0  0  0  0  0  0  0  0  0
    4.6352    2.0062    3.1805 C   0  0  0  0  0  0  0  0  0  0  0  0
    5.1175   -0.8802    0.5974 C   0  0  0  0  0  0  0  0  0  0  0  0
    6.0712   -1.7288    0.0736 C   0  0  0  0  0  0  0  0  0  0  0  0
    5.8905   -2.2840   -1.1861 C   0  0  0  0  0  0  0  0  0  0  0  0
    4.7555   -1.9836   -1.9266 C   0  0  0  0  0  0  0  0  0  0  0  0
    6.8283   -3.1252   -1.6959 O   0  0  0  0  0  0  0  0  0  0  0  0
   -1.3590   -0.6808    1.2848 C   0  0  0  0  0  0  0  0  0  0  0  0
   -2.5706   -0.8651    2.1935 C   0  0  0  0  0  0  0  0  0  0  0  0
   -3.7996   -1.1779    1.3822 C   0  0  0  0  0  0  0  0  0  0  0  0
   -3.9793   -0.5846    0.1338 C   0  0  0  0  0  0  0  0  0  0  0  0
   -5.1247   -0.8547   -0.6102 C   0  0  0  0  0  0  0  0  0  0  0  0
   -6.0754   -1.7229   -0.1138 C   0  0  0  0  0  0  0  0  0  0  0  0
   -5.8892   -2.3234    1.1241 C   0  0  0  0  0  0  0  0  0  0  0  0
   -4.7515   -2.0488    1.8704 C   0  0  0  0  0  0  0  0  0  0  0  0
   -6.8246   -3.1829    1.6071 O   0  0  0  0  0  0  0  0  0  0  0  0
   -3.9488    1.8750   -3.9159 H   0  0  0  0  0  0  0  0  0  0  0  0
   -5.6661    2.0178   -3.4701 H   0  0  0  0  0  0  0  0  0  0  0  0
   -4.4681    3.1292   -2.7646 H   0  0  0  0  0  0  0  0  0  0  0  0
   -2.4203    2.6980   -2.7559 H   0  0  0  0  0  0  0  0  0  0  0  0
    0.5504    2.4852   -2.5211 H   0  0  0  0  0  0  0  0  0  0  0  0
    1.0796   -1.6100   -0.9155 H   0  0  0  0  0  0  0  0  0  0  0  0
    0.5286   -0.2314   -1.8914 H   0  0  0  0  0  0  0  0  0  0  0  0
    2.3876   -1.5824   -2.9389 H   0  0  0  0  0  0  0  0  0  0  0  0
    2.7480    0.1471   -2.7498 H   0  0  0  0  0  0  0  0  0  0  0  0
    2.4184    2.6203    2.8324 H   0  0  0  0  0  0  0  0  0  0  0  0
   -0.0199    3.6908    1.4680 H   0  0  0  0  0  0  0  0  0  0  0  0
    4.4682    3.0354    2.8628 H   0  0  0  0  0  0  0  0  0  0  0  0
    3.9380    1.7550    3.9798 H   0  0  0  0  0  0  0  0  0  0  0  0
    5.6575    1.8992    3.5432 H   0  0  0  0  0  0  0  0  0  0  0  0
    5.2573   -0.4463    1.5765 H   0  0  0  0  0  0  0  0  0  0  0  0
    6.9587   -1.9609    0.6435 H   0  0  0  0  0  0  0  0  0  0  0  0
    4.6199   -2.4169   -2.9065 H   0  0  0  0  0  0  0  0  0  0  0  0
    6.6804   -4.0562   -1.4802 H   0  0  0  0  0  0  0  0  0  0  0  0
   -1.0875   -1.6424    0.8492 H   0  0  0  0  0  0  0  0  0  0  0  0
   -0.5224   -0.3054    1.8740 H   0  0  0  0  0  0  0  0  0  0  0  0
   -2.3790   -1.6849    2.8858 H   0  0  0  0  0  0  0  0  0  0  0  0
   -2.7376    0.0511    2.7598 H   0  0  0  0  0  0  0  0  0  0  0  0
   -5.2688   -0.3860   -1.5725 H   0  0  0  0  0  0  0  0  0  0  0  0
   -6.9649   -1.9352   -0.6884 H   0  0  0  0  0  0  0  0  0  0  0  0
   -4.6113   -2.5174    2.8333 H   0  0  0  0  0  0  0  0  0  0  0  0
   -6.6775   -4.1054    1.3572 H   0  0  0  0  0  0  0  0  0  0  0  0
  1  2  1  0  0  0  0
  2  3  1  0  0  0  0
  3  4  2  0  0  0  0
  4  5  1  0  0  0  0
  5  6  2  0  0  0  0
  6  7  1  0  0  0  0
  7  8  2  0  0  0  0
  3  8  1  0  0  0  0
  7  9  1  0  0  0  0
  6 10  1  0  0  0  0
 10 11  2  0  0  0  0
 11 12  1  0  0  0  0
 12 13  1  0  0  0  0
 13 14  1  0  0  0  0
 14 15  2  0  0  0  0
 15 16  1  0  0  0  0
 11 16  1  0  0  0  0
 16 17  2  0  0  0  0
 17 18  1  0  0  0  0
 18 19  2  0  0  0  0
 10 19  1  0  0  0  0
 19 20  1  0  0  0  0
 17 21  1  0  0  0  0
 21 22  1  0  0  0  0
 15 23  1  0  0  0  0
 23 24  2  0  0  0  0
 24 25  1  0  0  0  0
 25 26  2  0  0  0  0
 14 26  1  0  0  0  0
 25 27  1  0  0  0  0
  5 28  1  0  0  0  0
 28 29  1  0  0  0  0
 29 30  1  0  0  0  0
 30 31  2  0  0  0  0
  4 31  1  0  0  0  0
 31 32  1  0  0  0  0
 32 33  2  0  0  0  0
 33 34  1  0  0  0  0
 34 35  2  0  0  0  0
 30 35  1  0  0  0  0
 34 36  1  0  0  0  0
  1 37  1  0  0  0  0
  1 38  1  0  0  0  0
  1 39  1  0  0  0  0
  8 40  1  0  0  0  0
  9 41  1  0  0  0  0
 12 42  1  0  0  0  0
 12 43  1  0  0  0  0
 13 44  1  0  0  0  0
 13 45  1  0  0  0  0
 18 46  1  0  0  0  0
 20 47  1  0  0  0  0
 22 48  1  0  0  0  0
 22 49  1  0  0  0  0
 22 50  1  0  0  0  0
 23 51  1  0  0  0  0
 24 52  1  0  0  0  0
 26 53  1  0  0  0  0
 27 54  1  0  0  0  0
 28 55  1  0  0  0  0
 28 56  1  0  0  0  0
 29 57  1  0  0  0  0
 29 58  1  0  0  0  0
 32 59  1  0  0  0  0
 33 60  1  0  0  0  0
 35 61  1  0  0  0  0
 36 62  1  0  0  0  0
M  END
$$$$
