C9H10O
APtclcactv06211806013D 0   0.00000     0.00000
 
 20 20  0  0  0  0  0  0  0  0999 V2000
   -0.1897    2.2747    0.0424 C   0  0  0  0  0  0  0  0  0  0  0  0
    0.5411    0.9571    0.0177 C   0  0  0  0  0  0  0  0  0  0  0  0
    1.9195    0.9310    0.0233 C   0  0  0  0  0  0  0  0  0  0  0  0
    2.5927   -0.2783    0.0006 C   0  0  0  0  0  0  0  0  0  0  0  0
    1.8892   -1.4696   -0.0284 C   0  0  0  0  0  0  0  0  0  0  0  0
    0.5102   -1.4603   -0.0344 C   0  0  0  0  0  0  0  0  0  0  0  0
   -0.1772   -0.2429   -0.0053 C   0  0  0  0  0  0  0  0  0  0  0  0
   -1.6487   -0.2240   -0.0115 C   0  0  0  0  0  0  0  0  0  0  0  0
   -2.2412    0.8304   -0.0977 O   0  0  0  0  0  0  0  0  0  0  0  0
   -2.4193   -1.5152    0.0894 C   0  0  0  0  0  0  0  0  0  0  0  0
   -0.4659    2.5562   -0.9738 H   0  0  0  0  0  0  0  0  0  0  0  0
   -1.0895    2.1798    0.6503 H   0  0  0  0  0  0  0  0  0  0  0  0
    0.4575    3.0413    0.4686 H   0  0  0  0  0  0  0  0  0  0  0  0
    2.4756    1.8566    0.0452 H   0  0  0  0  0  0  0  0  0  0  0  0
    3.6726   -0.2922    0.0052 H   0  0  0  0  0  0  0  0  0  0  0  0
    2.4215   -2.4092   -0.0467 H   0  0  0  0  0  0  0  0  0  0  0  0
   -0.0375   -2.3909   -0.0574 H   0  0  0  0  0  0  0  0  0  0  0  0
   -1.7219   -2.3501    0.1584 H   0  0  0  0  0  0  0  0  0  0  0  0
   -3.0495   -1.4937    0.9785 H   0  0  0  0  0  0  0  0  0  0  0  0
   -3.0438   -1.6357   -0.7958 H   0  0  0  0  0  0  0  0  0  0  0  0
  1  2  1  0  0  0  0
  2  3  2  0  0  0  0
  3  4  1  0  0  0  0
  4  5  2  0  0  0  0
  5  6  1  0  0  0  0
  6  7  2  0  0  0  0
  2  7  1  0  0  0  0
  7  8  1  0  0  0  0
  8  9  2  0  0  0  0
  8 10  1  0  0  0  0
  1 11  1  0  0  0  0
  1 12  1  0  0  0  0
  1 13  1  0  0  0  0
  3 14  1  0  0  0  0
  4 15  1  0  0  0  0
  5 16  1  0  0  0  0
  6 17  1  0  0  0  0
 10 18  1  0  0  0  0
 10 19  1  0  0  0  0
 10 20  1  0  0  0  0
M  END
$$$$
