C15H10O3
APtclcactv06211806013D 0   0.00000     0.00000
 
 28 30  0  0  0  0  0  0  0  0999 V2000
   -4.7158   -0.6911   -0.0532 C   0  0  0  0  0  0  0  0  0  0  0  0
   -4.1692    0.3062   -0.8415 C   0  0  0  0  0  0  0  0  0  0  0  0
   -2.8086    0.5317   -0.8292 C   0  0  0  0  0  0  0  0  0  0  0  0
   -1.9819   -0.2494   -0.0179 C   0  0  0  0  0  0  0  0  0  0  0  0
   -2.5407   -1.2542    0.7757 C   0  0  0  0  0  0  0  0  0  0  0  0
   -3.9030   -1.4687    0.7528 C   0  0  0  0  0  0  0  0  0  0  0  0
   -0.5251   -0.0145    0.0003 C   0  0  0  0  0  0  0  0  0  0  0  0
   -0.0684    1.2631    0.1297 C   0  0  0  0  0  0  0  0  0  0  0  0
    1.3295    1.5053    0.1489 C   0  0  0  0  0  0  0  0  0  0  0  0
    1.7761    2.6349    0.2635 O   0  0  0  0  0  0  0  0  0  0  0  0
    2.2214    0.3367    0.0253 C   0  0  0  0  0  0  0  0  0  0  0  0
    3.6082    0.4795    0.0349 C   0  0  0  0  0  0  0  0  0  0  0  0
    4.4075   -0.6367   -0.0825 C   0  0  0  0  0  0  0  0  0  0  0  0
    3.8377   -1.8950   -0.2099 C   0  0  0  0  0  0  0  0  0  0  0  0
    2.4677   -2.0495   -0.2212 C   0  0  0  0  0  0  0  0  0  0  0  0
    1.6434   -0.9370   -0.1032 C   0  0  0  0  0  0  0  0  0  0  0  0
    0.3009   -1.0685   -0.1058 O   0  0  0  0  0  0  0  0  0  0  0  0
   -0.9454    2.2975    0.2390 O   0  0  0  0  0  0  0  0  0  0  0  0
   -5.7824   -0.8605   -0.0637 H   0  0  0  0  0  0  0  0  0  0  0  0
   -4.8096    0.9092   -1.4682 H   0  0  0  0  0  0  0  0  0  0  0  0
   -2.3833    1.3099   -1.4455 H   0  0  0  0  0  0  0  0  0  0  0  0
   -1.9076   -1.8618    1.4052 H   0  0  0  0  0  0  0  0  0  0  0  0
   -4.3365   -2.2449    1.3661 H   0  0  0  0  0  0  0  0  0  0  0  0
    4.0531    1.4586    0.1334 H   0  0  0  0  0  0  0  0  0  0  0  0
    5.4823   -0.5314   -0.0756 H   0  0  0  0  0  0  0  0  0  0  0  0
    4.4740   -2.7628   -0.3017 H   0  0  0  0  0  0  0  0  0  0  0  0
    2.0356   -3.0341   -0.3217 H   0  0  0  0  0  0  0  0  0  0  0  0
   -0.5235    3.1633    0.3263 H   0  0  0  0  0  0  0  0  0  0  0  0
  1  2  2  0  0  0  0
  2  3  1  0  0  0  0
  3  4  2  0  0  0  0
  4  5  1  0  0  0  0
  5  6  2  0  0  0  0
  1  6  1  0  0  0  0
  4  7  1  0  0  0  0
  7  8  2  0  0  0  0
  8  9  1  0  0  0  0
  9 10  2  0  0  0  0
  9 11  1  0  0  0  0
 11 12  2  0  0  0  0
 12 13  1  0  0  0  0
 13 14  2  0  0  0  0
 14 15  1  0  0  0  0
 15 16  2  0  0  0  0
 11 16  1  0  0  0  0
 16 17  1  0  0  0  0
  7 17  1  0  0  0  0
  8 18  1  0  0  0  0
  1 19  1  0  0  0  0
  2 20  1  0  0  0  0
  3 21  1  0  0  0  0
  5 22  1  0  0  0  0
  6 23  1  0  0  0  0
 12 24  1  0  0  0  0
 13 25  1  0  0  0  0
 14 26  1  0  0  0  0
 15 27  1  0  0  0  0
 18 28  1  0  0  0  0
M  END
$$$$
