C25H26O4
APtclcactv06281817323D 0   0.00000     0.00000
 
 55 57  0  0  0  0  0  0  0  0999 V2000
   -7.6368    1.8232    0.2615 C   0  0  0  0  0  0  0  0  0  0  0  0
   -6.7251    1.8974   -0.9362 C   0  0  0  0  0  0  0  0  0  0  0  0
   -5.4322    1.7503   -0.7853 C   0  0  0  0  0  0  0  0  0  0  0  0
   -4.8685    1.3759    0.5612 C   0  0  0  0  0  0  0  0  0  0  0  0
   -4.0986    0.0859    0.4424 C   0  0  0  0  0  0  0  0  0  0  0  0
   -4.7759   -1.1274    0.4268 C   0  0  0  0  0  0  0  0  0  0  0  0
   -4.0708   -2.3202    0.3174 C   0  0  0  0  0  0  0  0  0  0  0  0
   -2.6971   -2.3043    0.2236 C   0  0  0  0  0  0  0  0  0  0  0  0
   -2.0116   -1.0859    0.2384 C   0  0  0  0  0  0  0  0  0  0  0  0
   -2.7249    0.1114    0.3437 C   0  0  0  0  0  0  0  0  0  0  0  0
   -0.5403   -1.0638    0.1381 C   0  0  0  0  0  0  0  0  0  0  0  0
    0.0703   -1.9280   -0.7179 C   0  0  0  0  0  0  0  0  0  0  0  0
    1.4799   -1.9216   -0.8277 C   0  0  0  0  0  0  0  0  0  0  0  0
    2.0604   -2.6821   -1.5851 O   0  0  0  0  0  0  0  0  0  0  0  0
    2.2213   -0.9590    0.0090 C   0  0  0  0  0  0  0  0  0  0  0  0
    3.6132   -0.8835   -0.0343 C   0  0  0  0  0  0  0  0  0  0  0  0
    4.2681    0.0196    0.7547 C   0  0  0  0  0  0  0  0  0  0  0  0
    3.5534    0.8639    1.6008 C   0  0  0  0  0  0  0  0  0  0  0  0
    2.1706    0.8003    1.6551 C   0  0  0  0  0  0  0  0  0  0  0  0
    1.4918   -0.1110    0.8597 C   0  0  0  0  0  0  0  0  0  0  0  0
    0.1449   -0.1885    0.8906 O   0  0  0  0  0  0  0  0  0  0  0  0
    4.2173    1.7563    2.3791 O   0  0  0  0  0  0  0  0  0  0  0  0
    5.7722    0.1021    0.7094 C   0  0  0  0  0  0  0  0  0  0  0  0
    6.1857    1.2625   -0.1587 C   0  0  0  0  0  0  0  0  0  0  0  0
    6.9931    1.0675   -1.1718 C   0  0  0  0  0  0  0  0  0  0  0  0
    7.6206   -0.2859   -1.3856 C   0  0  0  0  0  0  0  0  0  0  0  0
    7.2943    2.1965   -2.1233 C   0  0  0  0  0  0  0  0  0  0  0  0
   -6.1301   -1.1477    0.5191 O   0  0  0  0  0  0  0  0  0  0  0  0
   -7.3008    2.1407   -2.3075 C   0  0  0  0  0  0  0  0  0  0  0  0
   -7.3087    2.5414    1.0129 H   0  0  0  0  0  0  0  0  0  0  0  0
   -8.6569    2.0567   -0.0434 H   0  0  0  0  0  0  0  0  0  0  0  0
   -7.6041    0.8178    0.6812 H   0  0  0  0  0  0  0  0  0  0  0  0
   -4.7702    1.8974   -1.6259 H   0  0  0  0  0  0  0  0  0  0  0  0
   -4.2025    2.1658    0.9087 H   0  0  0  0  0  0  0  0  0  0  0  0
   -5.6835    1.2483    1.2736 H   0  0  0  0  0  0  0  0  0  0  0  0
   -4.6011   -3.2610    0.3064 H   0  0  0  0  0  0  0  0  0  0  0  0
   -2.1500   -3.2316    0.1390 H   0  0  0  0  0  0  0  0  0  0  0  0
   -2.1993    1.0548    0.3555 H   0  0  0  0  0  0  0  0  0  0  0  0
   -0.5180   -2.6142   -1.3090 H   0  0  0  0  0  0  0  0  0  0  0  0
    4.1713   -1.5366   -0.6887 H   0  0  0  0  0  0  0  0  0  0  0  0
    1.6232    1.4578    2.3142 H   0  0  0  0  0  0  0  0  0  0  0  0
    4.3570    2.6164    1.9598 H   0  0  0  0  0  0  0  0  0  0  0  0
    6.1586    0.2473    1.7182 H   0  0  0  0  0  0  0  0  0  0  0  0
    6.1745   -0.8226    0.2958 H   0  0  0  0  0  0  0  0  0  0  0  0
    5.8165    2.2548    0.0544 H   0  0  0  0  0  0  0  0  0  0  0  0
    6.9288   -0.9244   -1.9349 H   0  0  0  0  0  0  0  0  0  0  0  0
    8.5422   -0.1729   -1.9565 H   0  0  0  0  0  0  0  0  0  0  0  0
    7.8446   -0.7391   -0.4199 H   0  0  0  0  0  0  0  0  0  0  0  0
    7.7526    3.0204   -1.5762 H   0  0  0  0  0  0  0  0  0  0  0  0
    7.9797    1.8476   -2.8958 H   0  0  0  0  0  0  0  0  0  0  0  0
    6.3686    2.5383   -2.5863 H   0  0  0  0  0  0  0  0  0  0  0  0
   -6.5832   -1.1084   -0.3343 H   0  0  0  0  0  0  0  0  0  0  0  0
   -7.3405    3.2129   -2.4998 H   0  0  0  0  0  0  0  0  0  0  0  0
   -6.6712    1.6603   -3.0564 H   0  0  0  0  0  0  0  0  0  0  0  0
   -8.3072    1.7251   -2.3580 H   0  0  0  0  0  0  0  0  0  0  0  0
  1  2  1  0  0  0  0
  2  3  2  0  0  0  0
  3  4  1  0  0  0  0
  4  5  1  0  0  0  0
  5  6  2  0  0  0  0
  6  7  1  0  0  0  0
  7  8  2  0  0  0  0
  8  9  1  0  0  0  0
  9 10  2  0  0  0  0
  5 10  1  0  0  0  0
  9 11  1  0  0  0  0
 11 12  2  0  0  0  0
 12 13  1  0  0  0  0
 13 14  2  0  0  0  0
 13 15  1  0  0  0  0
 15 16  2  0  0  0  0
 16 17  1  0  0  0  0
 17 18  2  0  0  0  0
 18 19  1  0  0  0  0
 19 20  2  0  0  0  0
 15 20  1  0  0  0  0
 20 21  1  0  0  0  0
 11 21  1  0  0  0  0
 18 22  1  0  0  0  0
 17 23  1  0  0  0  0
 23 24  1  0  0  0  0
 24 25  2  0  0  0  0
 25 26  1  0  0  0  0
 25 27  1  0  0  0  0
  6 28  1  0  0  0  0
  2 29  1  0  0  0  0
  1 30  1  0  0  0  0
  1 31  1  0  0  0  0
  1 32  1  0  0  0  0
  3 33  1  0  0  0  0
  4 34  1  0  0  0  0
  4 35  1  0  0  0  0
  7 36  1  0  0  0  0
  8 37  1  0  0  0  0
 10 38  1  0  0  0  0
 12 39  1  0  0  0  0
 16 40  1  0  0  0  0
 19 41  1  0  0  0  0
 22 42  1  0  0  0  0
 23 43  1  0  0  0  0
 23 44  1  0  0  0  0
 24 45  1  0  0  0  0
 26 46  1  0  0  0  0
 26 47  1  0  0  0  0
 26 48  1  0  0  0  0
 27 49  1  0  0  0  0
 27 50  1  0  0  0  0
 27 51  1  0  0  0  0
 28 52  1  0  0  0  0
 29 53  1  0  0  0  0
 29 54  1  0  0  0  0
 29 55  1  0  0  0  0
M  END
$$$$
