C5H6N2O2
APtclcactv06211804333D 0   0.00000     0.00000
 
 15 15  0  0  0  0  0  0  0  0999 V2000
    2.6166    0.8167    0.0015 C   0  0  0  0  0  0  0  0  0  0  0  0
    1.1389    0.5212    0.0013 C   0  0  0  0  0  0  0  0  0  0  0  0
    0.2398    1.5286   -0.0007 C   0  0  0  0  0  0  0  0  0  0  0  0
   -1.0983    1.2426   -0.0013 N   0  0  0  0  0  0  0  0  0  0  0  0
   -1.5265   -0.0329    0.0005 C   0  0  0  0  0  0  0  0  0  0  0  0
   -2.7201   -0.2645    0.0004 O   0  0  0  0  0  0  0  0  0  0  0  0
   -0.6521   -1.0562    0.0021 N   0  0  0  0  0  0  0  0  0  0  0  0
    0.6748   -0.8163   -0.0027 C   0  0  0  0  0  0  0  0  0  0  0  0
    1.4666   -1.7415   -0.0012 O   0  0  0  0  0  0  0  0  0  0  0  0
    2.9724    0.8896    1.0292 H   0  0  0  0  0  0  0  0  0  0  0  0
    3.1476    0.0144   -0.5108 H   0  0  0  0  0  0  0  0  0  0  0  0
    2.7986    1.7598   -0.5138 H   0  0  0  0  0  0  0  0  0  0  0  0
    0.5752    2.5552   -0.0015 H   0  0  0  0  0  0  0  0  0  0  0  0
   -1.7443    1.9662   -0.0028 H   0  0  0  0  0  0  0  0  0  0  0  0
   -0.9778   -1.9699    0.0035 H   0  0  0  0  0  0  0  0  0  0  0  0
  1  2  1  0  0  0  0
  2  3  2  0  0  0  0
  3  4  1  0  0  0  0
  4  5  1  0  0  0  0
  5  6  2  0  0  0  0
  5  7  1  0  0  0  0
  7  8  1  0  0  0  0
  2  8  1  0  0  0  0
  8  9  2  0  0  0  0
  1 10  1  0  0  0  0
  1 11  1  0  0  0  0
  1 12  1  0  0  0  0
  3 13  1  0  0  0  0
  4 14  1  0  0  0  0
  7 15  1  0  0  0  0
M  END
$$$$
