C10H8N2
APtclcactv06211806013D 0   0.00000     0.00000
 
 20 21  0  0  0  0  0  0  0  0999 V2000
   -2.8253    1.1241   -0.4100 C   0  0  0  0  0  0  0  0  0  0  0  0
   -3.4789   -0.0244    0.0130 C   0  0  0  0  0  0  0  0  0  0  0  0
   -2.7352   -1.1202    0.4112 C   0  0  0  0  0  0  0  0  0  0  0  0
   -1.4184   -1.0864    0.3937 N   0  0  0  0  0  0  0  0  0  0  0  0
   -0.7555   -0.0080   -0.0037 C   0  0  0  0  0  0  0  0  0  0  0  0
   -1.4410    1.1316   -0.4182 C   0  0  0  0  0  0  0  0  0  0  0  0
    0.7279   -0.0158   -0.0061 C   0  0  0  0  0  0  0  0  0  0  0  0
    1.4424    1.1070    0.4062 C   0  0  0  0  0  0  0  0  0  0  0  0
    2.7598    1.1015    0.4041 N   0  0  0  0  0  0  0  0  0  0  0  0
    3.4508    0.0468    0.0171 C   0  0  0  0  0  0  0  0  0  0  0  0
    2.8150   -1.1064   -0.4059 C   0  0  0  0  0  0  0  0  0  0  0  0
    1.4316   -1.1517   -0.4167 C   0  0  0  0  0  0  0  0  0  0  0  0
   -3.3841    1.9911   -0.7300 H   0  0  0  0  0  0  0  0  0  0  0  0
   -4.5581   -0.0621    0.0313 H   0  0  0  0  0  0  0  0  0  0  0  0
   -3.2408   -2.0156    0.7414 H   0  0  0  0  0  0  0  0  0  0  0  0
   -0.9001    2.0087   -0.7414 H   0  0  0  0  0  0  0  0  0  0  0  0
    0.9114    1.9899    0.7302 H   0  0  0  0  0  0  0  0  0  0  0  0
    4.5301    0.0844    0.0304 H   0  0  0  0  0  0  0  0  0  0  0  0
    3.3916   -1.9636   -0.7205 H   0  0  0  0  0  0  0  0  0  0  0  0
    0.9092   -2.0391   -0.7421 H   0  0  0  0  0  0  0  0  0  0  0  0
  1  2  2  0  0  0  0
  2  3  1  0  0  0  0
  3  4  2  0  0  0  0
  4  5  1  0  0  0  0
  5  6  2  0  0  0  0
  1  6  1  0  0  0  0
  5  7  1  0  0  0  0
  7  8  2  0  0  0  0
  8  9  1  0  0  0  0
  9 10  2  0  0  0  0
 10 11  1  0  0  0  0
 11 12  2  0  0  0  0
  7 12  1  0  0  0  0
  1 13  1  0  0  0  0
  2 14  1  0  0  0  0
  3 15  1  0  0  0  0
  6 16  1  0  0  0  0
  8 17  1  0  0  0  0
 10 18  1  0  0  0  0
 11 19  1  0  0  0  0
 12 20  1  0  0  0  0
M  END
$$$$
