C13H14N2O3
APtclcactv06281817323D 0   0.00000     0.00000
 
 32 34  0  0  0  0  0  0  0  0999 V2000
    4.2085   -2.0556   -0.0060 C   0  0  0  0  0  0  0  0  0  0  0  0
    2.9794   -1.1837    0.0016 C   0  0  0  0  0  0  0  0  0  0  0  0
    3.1362    0.1789   -0.0007 C   0  0  0  0  0  0  0  0  0  0  0  0
    2.0195    1.0312   -0.0003 C   0  0  0  0  0  0  0  0  0  0  0  0
    2.1584    2.2456    0.0007 O   0  0  0  0  0  0  0  0  0  0  0  0
    0.6809    0.4265   -0.0016 C   0  0  0  0  0  0  0  0  0  0  0  0
   -0.6135    0.9249   -0.0138 C   0  0  0  0  0  0  0  0  0  0  0  0
   -1.4805   -0.1150   -0.0335 N   0  0  0  0  0  0  0  0  0  0  0  0
   -2.9456   -0.0366   -0.1254 C   0  0  0  0  0  0  0  0  0  0  0  0
   -3.5323   -1.3640    0.3689 C   0  0  0  0  0  0  0  0  0  0  0  0
   -2.8502   -2.5235   -0.3639 C   0  0  0  0  0  0  0  0  0  0  0  0
   -1.4022   -2.6481    0.1258 C   0  0  0  0  0  0  0  0  0  0  0  0
   -0.7692   -1.3271    0.0365 N   0  0  0  0  0  0  0  0  0  0  0  0
    0.5769   -1.0388    0.0167 C   0  0  0  0  0  0  0  0  0  0  0  0
    1.7288   -1.7901    0.0051 C   0  0  0  0  0  0  0  0  0  0  0  0
   -0.9877    2.3651   -0.0061 C   0  0  0  0  0  0  0  0  0  0  0  0
   -2.1570    2.6881   -0.0178 O   0  0  0  0  0  0  0  0  0  0  0  0
   -0.0286    3.3097    0.0139 O   0  0  0  0  0  0  0  0  0  0  0  0
    5.0994   -1.4276   -0.0127 H   0  0  0  0  0  0  0  0  0  0  0  0
    4.2137   -2.6841    0.8845 H   0  0  0  0  0  0  0  0  0  0  0  0
    4.2015   -2.6857   -0.8954 H   0  0  0  0  0  0  0  0  0  0  0  0
    4.1300    0.6016   -0.0024 H   0  0  0  0  0  0  0  0  0  0  0  0
   -3.3094    0.7804    0.4977 H   0  0  0  0  0  0  0  0  0  0  0  0
   -3.2400    0.1319   -1.1613 H   0  0  0  0  0  0  0  0  0  0  0  0
   -3.3615   -1.4605    1.4411 H   0  0  0  0  0  0  0  0  0  0  0  0
   -4.6033   -1.3860    0.1673 H   0  0  0  0  0  0  0  0  0  0  0  0
   -3.3855   -3.4502   -0.1570 H   0  0  0  0  0  0  0  0  0  0  0  0
   -2.8564   -2.3302   -1.4366 H   0  0  0  0  0  0  0  0  0  0  0  0
   -1.3926   -2.9908    1.1605 H   0  0  0  0  0  0  0  0  0  0  0  0
   -0.8621   -3.3573   -0.5015 H   0  0  0  0  0  0  0  0  0  0  0  0
    1.6605   -2.8680    0.0011 H   0  0  0  0  0  0  0  0  0  0  0  0
   -0.3205    4.2316    0.0182 H   0  0  0  0  0  0  0  0  0  0  0  0
  1  2  1  0  0  0  0
  2  3  2  0  0  0  0
  3  4  1  0  0  0  0
  4  5  2  0  0  0  0
  4  6  1  0  0  0  0
  6  7  2  0  0  0  0
  7  8  1  0  0  0  0
  8  9  1  0  0  0  0
  9 10  1  0  0  0  0
 10 11  1  0  0  0  0
 11 12  1  0  0  0  0
 12 13  1  0  0  0  0
  8 13  1  0  0  0  0
 13 14  1  0  0  0  0
  6 14  1  0  0  0  0
 14 15  2  0  0  0  0
  2 15  1  0  0  0  0
  7 16  1  0  0  0  0
 16 17  2  0  0  0  0
 16 18  1  0  0  0  0
  1 19  1  0  0  0  0
  1 20  1  0  0  0  0
  1 21  1  0  0  0  0
  3 22  1  0  0  0  0
  9 23  1  0  0  0  0
  9 24  1  0  0  0  0
 10 25  1  0  0  0  0
 10 26  1  0  0  0  0
 11 27  1  0  0  0  0
 11 28  1  0  0  0  0
 12 29  1  0  0  0  0
 12 30  1  0  0  0  0
 15 31  1  0  0  0  0
 18 32  1  0  0  0  0
M  END
$$$$
