C20H32O5
APtclcactv06281817323D 0   0.00000     0.00000
 
 57 57  0  0  0  0  0  0  0  0999 V2000
    9.0296    2.2743   -0.8919 C   0  0  0  0  0  0  0  0  0  0  0  0
    8.0099    1.3661   -0.2017 C   0  0  0  0  0  0  0  0  0  0  0  0
    6.6077    1.6831   -0.7256 C   0  0  0  0  0  0  0  0  0  0  0  0
    5.5880    0.7749   -0.0354 C   0  0  0  0  0  0  0  0  0  0  0  0
    4.1859    1.0919   -0.5593 C   0  0  0  0  0  0  0  0  0  0  0  0
    3.1662    0.1838    0.1308 C   0  0  0  0  0  0  0  0  0  0  0  0
    1.7535    0.5840   -0.2993 C   0  0  0  0  0  0  0  0  0  0  0  0
    0.7293   -0.2397    0.4840 C   0  0  0  0  0  0  0  0  0  0  0  0
   -0.6816    0.2460    0.1462 C   0  0  0  0  0  0  0  0  0  0  0  0
   -1.6978   -0.4912    1.0207 C   0  0  0  0  0  0  0  0  0  0  0  0
   -3.0876   -0.0128    0.6879 C   0  0  0  0  0  0  0  0  0  0  0  0
   -3.8190   -0.6500   -0.2970 C   0  0  0  0  0  0  0  0  0  0  0  0
   -5.0970   -0.2113   -0.6042 C   0  0  0  0  0  0  0  0  0  0  0  0
   -5.6412    0.8709    0.0807 C   0  0  0  0  0  0  0  0  0  0  0  0
   -4.9027    1.5051    1.0668 C   0  0  0  0  0  0  0  0  0  0  0  0
   -3.6304    1.0588    1.3723 C   0  0  0  0  0  0  0  0  0  0  0  0
   -6.8949    1.3054   -0.2175 O   0  0  0  0  0  0  0  0  0  0  0  0
   -7.3887    2.4214    0.5261 C   0  0  0  0  0  0  0  0  0  0  0  0
   -5.8177   -0.8367   -1.5732 O   0  0  0  0  0  0  0  0  0  0  0  0
   -5.1952   -1.9399   -2.2346 C   0  0  0  0  0  0  0  0  0  0  0  0
    0.8559   -1.6184    0.1302 O   0  0  0  0  0  0  0  0  0  0  0  0
    3.4141   -1.1964   -0.2460 O   0  0  0  0  0  0  0  0  0  0  0  0
    3.0931   -2.1405    0.6525 C   0  0  0  0  0  0  0  0  0  0  0  0
    2.6206   -1.8242    1.7186 O   0  0  0  0  0  0  0  0  0  0  0  0
    3.3221   -3.5950    0.3316 C   0  0  0  0  0  0  0  0  0  0  0  0
    8.7897    3.3163   -0.6805 H   0  0  0  0  0  0  0  0  0  0  0  0
   10.0285    2.0484   -0.5186 H   0  0  0  0  0  0  0  0  0  0  0  0
    8.9970    2.1050   -1.9681 H   0  0  0  0  0  0  0  0  0  0  0  0
    8.2497    0.3240   -0.4131 H   0  0  0  0  0  0  0  0  0  0  0  0
    8.0424    1.5353    0.8746 H   0  0  0  0  0  0  0  0  0  0  0  0
    6.3679    2.7252   -0.5142 H   0  0  0  0  0  0  0  0  0  0  0  0
    6.5752    1.5139   -1.8019 H   0  0  0  0  0  0  0  0  0  0  0  0
    5.8279   -0.2671   -0.2468 H   0  0  0  0  0  0  0  0  0  0  0  0
    5.6206    0.9442    1.0408 H   0  0  0  0  0  0  0  0  0  0  0  0
    3.9460    2.1340   -0.3480 H   0  0  0  0  0  0  0  0  0  0  0  0
    4.1533    0.9227   -1.6356 H   0  0  0  0  0  0  0  0  0  0  0  0
    3.2601    0.2877    1.2118 H   0  0  0  0  0  0  0  0  0  0  0  0
    1.5986    1.6438   -0.0970 H   0  0  0  0  0  0  0  0  0  0  0  0
    1.6315    0.3961   -1.3660 H   0  0  0  0  0  0  0  0  0  0  0  0
    0.9083   -0.1210    1.5527 H   0  0  0  0  0  0  0  0  0  0  0  0
   -0.7514    1.3176    0.3329 H   0  0  0  0  0  0  0  0  0  0  0  0
   -0.8931    0.0457   -0.9041 H   0  0  0  0  0  0  0  0  0  0  0  0
   -1.6281   -1.5629    0.8340 H   0  0  0  0  0  0  0  0  0  0  0  0
   -1.4864   -0.2909    2.0710 H   0  0  0  0  0  0  0  0  0  0  0  0
   -3.3942   -1.4894   -0.8273 H   0  0  0  0  0  0  0  0  0  0  0  0
   -5.3227    2.3452    1.5999 H   0  0  0  0  0  0  0  0  0  0  0  0
   -3.0559    1.5540    2.1411 H   0  0  0  0  0  0  0  0  0  0  0  0
   -7.4101    2.1705    1.5866 H   0  0  0  0  0  0  0  0  0  0  0  0
   -6.7360    3.2801    0.3690 H   0  0  0  0  0  0  0  0  0  0  0  0
   -8.3965    2.6647    0.1898 H   0  0  0  0  0  0  0  0  0  0  0  0
   -4.2804   -1.6023   -2.7218 H   0  0  0  0  0  0  0  0  0  0  0  0
   -4.9541   -2.7124   -1.5043 H   0  0  0  0  0  0  0  0  0  0  0  0
   -5.8762   -2.3466   -2.9822 H   0  0  0  0  0  0  0  0  0  0  0  0
    0.7092   -1.7987   -0.8085 H   0  0  0  0  0  0  0  0  0  0  0  0
    4.3217   -3.8855    0.6550 H   0  0  0  0  0  0  0  0  0  0  0  0
    2.5812   -4.2027    0.8512 H   0  0  0  0  0  0  0  0  0  0  0  0
    3.2289   -3.7490   -0.7434 H   0  0  0  0  0  0  0  0  0  0  0  0
  1  2  1  0  0  0  0
  2  3  1  0  0  0  0
  3  4  1  0  0  0  0
  4  5  1  0  0  0  0
  5  6  1  0  0  0  0
  6  7  1  0  0  0  0
  7  8  1  0  0  0  0
  8  9  1  0  0  0  0
  9 10  1  0  0  0  0
 10 11  1  0  0  0  0
 11 12  2  0  0  0  0
 12 13  1  0  0  0  0
 13 14  2  0  0  0  0
 14 15  1  0  0  0  0
 15 16  2  0  0  0  0
 11 16  1  0  0  0  0
 14 17  1  0  0  0  0
 17 18  1  0  0  0  0
 13 19  1  0  0  0  0
 19 20  1  0  0  0  0
  8 21  1  0  0  0  0
  6 22  1  0  0  0  0
 22 23  1  0  0  0  0
 23 24  2  0  0  0  0
 23 25  1  0  0  0  0
  1 26  1  0  0  0  0
  1 27  1  0  0  0  0
  1 28  1  0  0  0  0
  2 29  1  0  0  0  0
  2 30  1  0  0  0  0
  3 31  1  0  0  0  0
  3 32  1  0  0  0  0
  4 33  1  0  0  0  0
  4 34  1  0  0  0  0
  5 35  1  0  0  0  0
  5 36  1  0  0  0  0
  6 37  1  0  0  0  0
  7 38  1  0  0  0  0
  7 39  1  0  0  0  0
  8 40  1  0  0  0  0
  9 41  1  0  0  0  0
  9 42  1  0  0  0  0
 10 43  1  0  0  0  0
 10 44  1  0  0  0  0
 12 45  1  0  0  0  0
 15 46  1  0  0  0  0
 16 47  1  0  0  0  0
 18 48  1  0  0  0  0
 18 49  1  0  0  0  0
 18 50  1  0  0  0  0
 20 51  1  0  0  0  0
 20 52  1  0  0  0  0
 20 53  1  0  0  0  0
 21 54  1  0  0  0  0
 25 55  1  0  0  0  0
 25 56  1  0  0  0  0
 25 57  1  0  0  0  0
M  END
$$$$
