C16H15NO5
APtclcactv06281817323D 0   0.00000     0.00000
 
 37 38  0  0  0  0  0  0  0  0999 V2000
    4.4062    3.4763    0.2360 C   0  0  0  0  0  0  0  0  0  0  0  0
    3.0186    3.1420    0.3055 O   0  0  0  0  0  0  0  0  0  0  0  0
    2.6952    1.8283    0.1997 C   0  0  0  0  0  0  0  0  0  0  0  0
    1.3660    1.4377    0.2593 C   0  0  0  0  0  0  0  0  0  0  0  0
    1.0347    0.0957    0.1514 C   0  0  0  0  0  0  0  0  0  0  0  0
    2.0520   -0.8588   -0.0179 C   0  0  0  0  0  0  0  0  0  0  0  0
    3.3872   -0.4458   -0.0757 C   0  0  0  0  0  0  0  0  0  0  0  0
    3.6990    0.8795    0.0262 C   0  0  0  0  0  0  0  0  0  0  0  0
    1.7143   -2.2861   -0.1333 C   0  0  0  0  0  0  0  0  0  0  0  0
    0.5504   -2.6335   -0.1786 O   0  0  0  0  0  0  0  0  0  0  0  0
    2.6956   -3.2085   -0.1888 O   0  0  0  0  0  0  0  0  0  0  0  0
    2.2888   -4.5977   -0.3023 C   0  0  0  0  0  0  0  0  0  0  0  0
   -0.2972   -0.3035    0.2108 N   0  0  0  0  0  0  0  0  0  0  0  0
   -1.2750    0.5582   -0.1325 C   0  0  0  0  0  0  0  0  0  0  0  0
   -0.9915    1.6483   -0.5904 O   0  0  0  0  0  0  0  0  0  0  0  0
   -2.6890    0.1788    0.0471 C   0  0  0  0  0  0  0  0  0  0  0  0
   -3.0193   -1.0726    0.5727 C   0  0  0  0  0  0  0  0  0  0  0  0
   -4.3425   -1.4207    0.7385 C   0  0  0  0  0  0  0  0  0  0  0  0
   -5.3475   -0.5354    0.3858 C   0  0  0  0  0  0  0  0  0  0  0  0
   -5.0351    0.7049   -0.1350 C   0  0  0  0  0  0  0  0  0  0  0  0
   -3.7092    1.0743   -0.3033 C   0  0  0  0  0  0  0  0  0  0  0  0
   -3.4008    2.2923   -0.8147 O   0  0  0  0  0  0  0  0  0  0  0  0
    4.5253    4.5553    0.3337 H   0  0  0  0  0  0  0  0  0  0  0  0
    4.9410    2.9771    1.0440 H   0  0  0  0  0  0  0  0  0  0  0  0
    4.8106    3.1514   -0.7226 H   0  0  0  0  0  0  0  0  0  0  0  0
    0.5902    2.1775    0.3900 H   0  0  0  0  0  0  0  0  0  0  0  0
    4.1723   -1.1760   -0.2057 H   0  0  0  0  0  0  0  0  0  0  0  0
    4.7316    1.1929   -0.0190 H   0  0  0  0  0  0  0  0  0  0  0  0
    3.1734   -5.2336   -0.3373 H   0  0  0  0  0  0  0  0  0  0  0  0
    1.6797   -4.8696    0.5597 H   0  0  0  0  0  0  0  0  0  0  0  0
    1.7080   -4.7328   -1.2147 H   0  0  0  0  0  0  0  0  0  0  0  0
   -0.5218   -1.2020    0.4993 H   0  0  0  0  0  0  0  0  0  0  0  0
   -2.2389   -1.7664    0.8484 H   0  0  0  0  0  0  0  0  0  0  0  0
   -4.5968   -2.3885    1.1449 H   0  0  0  0  0  0  0  0  0  0  0  0
   -6.3818   -0.8169    0.5184 H   0  0  0  0  0  0  0  0  0  0  0  0
   -5.8245    1.3898   -0.4076 H   0  0  0  0  0  0  0  0  0  0  0  0
   -3.3027    2.9855   -0.1477 H   0  0  0  0  0  0  0  0  0  0  0  0
  1  2  1  0  0  0  0
  2  3  1  0  0  0  0
  3  4  2  0  0  0  0
  4  5  1  0  0  0  0
  5  6  2  0  0  0  0
  6  7  1  0  0  0  0
  7  8  2  0  0  0  0
  3  8  1  0  0  0  0
  6  9  1  0  0  0  0
  9 10  2  0  0  0  0
  9 11  1  0  0  0  0
 11 12  1  0  0  0  0
  5 13  1  0  0  0  0
 13 14  1  0  0  0  0
 14 15  2  0  0  0  0
 14 16  1  0  0  0  0
 16 17  2  0  0  0  0
 17 18  1  0  0  0  0
 18 19  2  0  0  0  0
 19 20  1  0  0  0  0
 20 21  2  0  0  0  0
 16 21  1  0  0  0  0
 21 22  1  0  0  0  0
  1 23  1  0  0  0  0
  1 24  1  0  0  0  0
  1 25  1  0  0  0  0
  4 26  1  0  0  0  0
  7 27  1  0  0  0  0
  8 28  1  0  0  0  0
 12 29  1  0  0  0  0
 12 30  1  0  0  0  0
 12 31  1  0  0  0  0
 13 32  1  0  0  0  0
 17 33  1  0  0  0  0
 18 34  1  0  0  0  0
 19 35  1  0  0  0  0
 20 36  1  0  0  0  0
 22 37  1  0  0  0  0
M  END
$$$$
