C12H14O4
APtclcactv06281817323D 0   0.00000     0.00000
 
 30 31  0  0  0  0  0  0  0  0999 V2000
    4.8701    1.2322   -0.3188 C   0  0  0  0  0  0  0  0  0  0  0  0
    3.3695    1.3004   -0.1982 C   0  0  0  0  0  0  0  0  0  0  0  0
    2.6545    0.1832   -0.1747 C   0  0  0  0  0  0  0  0  0  0  0  0
    1.1839    0.2500   -0.0565 C   0  0  0  0  0  0  0  0  0  0  0  0
    0.5441    1.4879    0.0306 C   0  0  0  0  0  0  0  0  0  0  0  0
   -0.8330    1.5496    0.1413 C   0  0  0  0  0  0  0  0  0  0  0  0
   -1.5850    0.3769    0.1662 C   0  0  0  0  0  0  0  0  0  0  0  0
   -0.9534   -0.8581    0.0805 C   0  0  0  0  0  0  0  0  0  0  0  0
    0.4275   -0.9268   -0.0373 C   0  0  0  0  0  0  0  0  0  0  0  0
    1.0452   -2.1356   -0.1211 O   0  0  0  0  0  0  0  0  0  0  0  0
    1.3747   -2.7825    1.1098 C   0  0  0  0  0  0  0  0  0  0  0  0
   -1.6910   -2.0016    0.1051 O   0  0  0  0  0  0  0  0  0  0  0  0
   -2.2069   -2.4678   -1.1434 C   0  0  0  0  0  0  0  0  0  0  0  0
   -2.9055    0.7082    0.2801 O   0  0  0  0  0  0  0  0  0  0  0  0
   -2.9864    2.0979   -0.0876 C   0  0  0  0  0  0  0  0  0  0  0  0
   -1.6831    2.6148    0.2395 O   0  0  0  0  0  0  0  0  0  0  0  0
    5.2806    2.2419   -0.3214 H   0  0  0  0  0  0  0  0  0  0  0  0
    5.2776    0.6765    0.5257 H   0  0  0  0  0  0  0  0  0  0  0  0
    5.1374    0.7289   -1.2479 H   0  0  0  0  0  0  0  0  0  0  0  0
    2.8761    2.2587   -0.1309 H   0  0  0  0  0  0  0  0  0  0  0  0
    3.1479   -0.7751   -0.2420 H   0  0  0  0  0  0  0  0  0  0  0  0
    1.1252    2.3980    0.0119 H   0  0  0  0  0  0  0  0  0  0  0  0
    0.4587   -3.0353    1.6438 H   0  0  0  0  0  0  0  0  0  0  0  0
    1.9375   -3.6927    0.9026 H   0  0  0  0  0  0  0  0  0  0  0  0
    1.9791   -2.1129    1.7217 H   0  0  0  0  0  0  0  0  0  0  0  0
   -2.9230   -1.7446   -1.5334 H   0  0  0  0  0  0  0  0  0  0  0  0
   -1.3881   -2.5873   -1.8530 H   0  0  0  0  0  0  0  0  0  0  0  0
   -2.7029   -3.4271   -0.9961 H   0  0  0  0  0  0  0  0  0  0  0  0
   -3.1824    2.2008   -1.1548 H   0  0  0  0  0  0  0  0  0  0  0  0
   -3.7563    2.6039    0.4949 H   0  0  0  0  0  0  0  0  0  0  0  0
  1  2  1  0  0  0  0
  2  3  2  0  0  0  0
  3  4  1  0  0  0  0
  4  5  2  0  0  0  0
  5  6  1  0  0  0  0
  6  7  2  0  0  0  0
  7  8  1  0  0  0  0
  8  9  2  0  0  0  0
  4  9  1  0  0  0  0
  9 10  1  0  0  0  0
 10 11  1  0  0  0  0
  8 12  1  0  0  0  0
 12 13  1  0  0  0  0
  7 14  1  0  0  0  0
 14 15  1  0  0  0  0
 15 16  1  0  0  0  0
  6 16  1  0  0  0  0
  1 17  1  0  0  0  0
  1 18  1  0  0  0  0
  1 19  1  0  0  0  0
  2 20  1  0  0  0  0
  3 21  1  0  0  0  0
  5 22  1  0  0  0  0
 11 23  1  0  0  0  0
 11 24  1  0  0  0  0
 11 25  1  0  0  0  0
 13 26  1  0  0  0  0
 13 27  1  0  0  0  0
 13 28  1  0  0  0  0
 15 29  1  0  0  0  0
 15 30  1  0  0  0  0
M  END
$$$$
