C8H14O2
APtclcactv06211806013D 0   0.00000     0.00000
 
 24 23  0  0  0  0  0  0  0  0999 V2000
    4.8954   -0.3753   -0.0000 C   0  0  0  0  0  0  0  0  0  0  0  0
    3.6218    0.4726    0.0000 C   0  0  0  0  0  0  0  0  0  0  0  0
    2.3979   -0.4455   -0.0000 C   0  0  0  0  0  0  0  0  0  0  0  0
    1.1243    0.4024    0.0000 C   0  0  0  0  0  0  0  0  0  0  0  0
   -0.0996   -0.5158    0.0000 C   0  0  0  0  0  0  0  0  0  0  0  0
   -1.3540    0.3194    0.0000 C   0  0  0  0  0  0  0  0  0  0  0  0
   -1.2771    1.5248   -0.0000 O   0  0  0  0  0  0  0  0  0  0  0  0
   -2.6860   -0.3403   -0.0000 C   0  0  0  0  0  0  0  0  0  0  0  0
   -2.7630   -1.5457    0.0000 O   0  0  0  0  0  0  0  0  0  0  0  0
   -3.9405    0.4948   -0.0000 C   0  0  0  0  0  0  0  0  0  0  0  0
    5.7673    0.2788    0.0000 H   0  0  0  0  0  0  0  0  0  0  0  0
    4.9131   -1.0043    0.8900 H   0  0  0  0  0  0  0  0  0  0  0  0
    4.9131   -1.0043   -0.8900 H   0  0  0  0  0  0  0  0  0  0  0  0
    3.6041    1.1017    0.8900 H   0  0  0  0  0  0  0  0  0  0  0  0
    3.6041    1.1017   -0.8900 H   0  0  0  0  0  0  0  0  0  0  0  0
    2.4156   -1.0746   -0.8900 H   0  0  0  0  0  0  0  0  0  0  0  0
    2.4156   -1.0746    0.8900 H   0  0  0  0  0  0  0  0  0  0  0  0
    1.1066    1.0314    0.8900 H   0  0  0  0  0  0  0  0  0  0  0  0
    1.1066    1.0314   -0.8900 H   0  0  0  0  0  0  0  0  0  0  0  0
   -0.0819   -1.1448   -0.8900 H   0  0  0  0  0  0  0  0  0  0  0  0
   -0.0819   -1.1448    0.8900 H   0  0  0  0  0  0  0  0  0  0  0  0
   -3.6734    1.5516    0.0000 H   0  0  0  0  0  0  0  0  0  0  0  0
   -4.5277    0.2684   -0.8900 H   0  0  0  0  0  0  0  0  0  0  0  0
   -4.5277    0.2684    0.8900 H   0  0  0  0  0  0  0  0  0  0  0  0
  1  2  1  0  0  0  0
  2  3  1  0  0  0  0
  3  4  1  0  0  0  0
  4  5  1  0  0  0  0
  5  6  1  0  0  0  0
  6  7  2  0  0  0  0
  6  8  1  0  0  0  0
  8  9  2  0  0  0  0
  8 10  1  0  0  0  0
  1 11  1  0  0  0  0
  1 12  1  0  0  0  0
  1 13  1  0  0  0  0
  2 14  1  0  0  0  0
  2 15  1  0  0  0  0
  3 16  1  0  0  0  0
  3 17  1  0  0  0  0
  4 18  1  0  0  0  0
  4 19  1  0  0  0  0
  5 20  1  0  0  0  0
  5 21  1  0  0  0  0
 10 22  1  0  0  0  0
 10 23  1  0  0  0  0
 10 24  1  0  0  0  0
M  END
$$$$
