C15H14O6
APtclcactv06211806363D 0   0.00000     0.00000
 
 35 37  0  0  0  0  0  0  0  0999 V2000
   -0.0201    1.3537   -0.8523 C   0  0  0  0  0  0  0  0  0  0  0  0
   -1.4534    1.7878   -0.5354 C   0  0  0  0  0  0  0  0  0  0  0  0
   -2.2926    0.5763   -0.2171 C   0  0  0  0  0  0  0  0  0  0  0  0
   -3.6770    0.6904   -0.2687 C   0  0  0  0  0  0  0  0  0  0  0  0
   -4.4792   -0.4014    0.0212 C   0  0  0  0  0  0  0  0  0  0  0  0
   -3.8988   -1.6129    0.3643 C   0  0  0  0  0  0  0  0  0  0  0  0
   -2.5192   -1.7280    0.4146 C   0  0  0  0  0  0  0  0  0  0  0  0
   -1.7129   -0.6333    0.1227 C   0  0  0  0  0  0  0  0  0  0  0  0
   -0.3645   -0.7909    0.1755 O   0  0  0  0  0  0  0  0  0  0  0  0
    0.4430    0.3852    0.2436 C   0  0  0  0  0  0  0  0  0  0  0  0
    1.8887    0.0219    0.0220 C   0  0  0  0  0  0  0  0  0  0  0  0
    2.8760    0.6321    0.7730 C   0  0  0  0  0  0  0  0  0  0  0  0
    4.2058    0.2992    0.5706 C   0  0  0  0  0  0  0  0  0  0  0  0
    4.5439   -0.6498   -0.3894 C   0  0  0  0  0  0  0  0  0  0  0  0
    3.5493   -1.2576   -1.1387 C   0  0  0  0  0  0  0  0  0  0  0  0
    2.2242   -0.9250   -0.9278 C   0  0  0  0  0  0  0  0  0  0  0  0
    5.8476   -0.9795   -0.5921 O   0  0  0  0  0  0  0  0  0  0  0  0
    5.1783    0.8988    1.3082 O   0  0  0  0  0  0  0  0  0  0  0  0
   -4.6821   -2.6857    0.6511 O   0  0  0  0  0  0  0  0  0  0  0  0
   -4.2459    1.8780   -0.6045 O   0  0  0  0  0  0  0  0  0  0  0  0
   -1.4455    2.6696    0.5891 O   0  0  0  0  0  0  0  0  0  0  0  0
    0.0067    0.8533   -1.8202 H   0  0  0  0  0  0  0  0  0  0  0  0
    0.6325    2.2265   -0.8711 H   0  0  0  0  0  0  0  0  0  0  0  0
   -1.8748    2.3046   -1.3977 H   0  0  0  0  0  0  0  0  0  0  0  0
   -5.5545   -0.3088   -0.0197 H   0  0  0  0  0  0  0  0  0  0  0  0
   -2.0679   -2.6720    0.6822 H   0  0  0  0  0  0  0  0  0  0  0  0
    0.3273    0.8539    1.2208 H   0  0  0  0  0  0  0  0  0  0  0  0
    2.6110    1.3685    1.5172 H   0  0  0  0  0  0  0  0  0  0  0  0
    3.8091   -1.9944   -1.8844 H   0  0  0  0  0  0  0  0  0  0  0  0
    1.4499   -1.3995   -1.5125 H   0  0  0  0  0  0  0  0  0  0  0  0
    6.1576   -1.7130   -0.0435 H   0  0  0  0  0  0  0  0  0  0  0  0
    5.3923    0.4343    2.1288 H   0  0  0  0  0  0  0  0  0  0  0  0
   -4.8977   -3.2320   -0.1172 H   0  0  0  0  0  0  0  0  0  0  0  0
   -4.3982    1.9869   -1.5532 H   0  0  0  0  0  0  0  0  0  0  0  0
   -2.3222    2.9857    0.8472 H   0  0  0  0  0  0  0  0  0  0  0  0
  1  2  1  0  0  0  0
  2  3  1  0  0  0  0
  3  4  2  0  0  0  0
  4  5  1  0  0  0  0
  5  6  2  0  0  0  0
  6  7  1  0  0  0  0
  7  8  2  0  0  0  0
  3  8  1  0  0  0  0
  8  9  1  0  0  0  0
  9 10  1  0  0  0  0
  1 10  1  0  0  0  0
 10 11  1  0  0  0  0
 11 12  2  0  0  0  0
 12 13  1  0  0  0  0
 13 14  2  0  0  0  0
 14 15  1  0  0  0  0
 15 16  2  0  0  0  0
 11 16  1  0  0  0  0
 14 17  1  0  0  0  0
 13 18  1  0  0  0  0
  6 19  1  0  0  0  0
  4 20  1  0  0  0  0
  2 21  1  0  0  0  0
  1 22  1  0  0  0  0
  1 23  1  0  0  0  0
  2 24  1  0  0  0  0
  5 25  1  0  0  0  0
  7 26  1  0  0  0  0
 10 27  1  0  0  0  0
 12 28  1  0  0  0  0
 15 29  1  0  0  0  0
 16 30  1  0  0  0  0
 17 31  1  0  0  0  0
 18 32  1  0  0  0  0
 19 33  1  0  0  0  0
 20 34  1  0  0  0  0
 21 35  1  0  0  0  0
M  END
$$$$
