C10H16
APtclcactv06211806013D 0   0.00000     0.00000
 
 26 26  0  0  0  0  0  0  0  0999 V2000
    3.4258    0.0203   -0.5344 C   0  0  0  0  0  0  0  0  0  0  0  0
    1.9705    0.0274   -0.1433 C   0  0  0  0  0  0  0  0  0  0  0  0
    1.4321    1.1758    0.0993 C   0  0  0  0  0  0  0  0  0  0  0  0
    0.0024    1.3660    0.5237 C   0  0  0  0  0  0  0  0  0  0  0  0
   -0.7337    0.0532    0.3629 C   0  0  0  0  0  0  0  0  0  0  0  0
   -1.9526    0.0033   -0.1144 C   0  0  0  0  0  0  0  0  0  0  0  0
   -2.7044    1.2787   -0.3961 C   0  0  0  0  0  0  0  0  0  0  0  0
   -2.6031   -1.3295   -0.3820 C   0  0  0  0  0  0  0  0  0  0  0  0
    0.0085   -1.2018    0.7808 C   0  0  0  0  0  0  0  0  0  0  0  0
    1.2755   -1.2973   -0.0763 C   0  0  0  0  0  0  0  0  0  0  0  0
    3.8033    1.0427   -0.5483 H   0  0  0  0  0  0  0  0  0  0  0  0
    3.9933   -0.5667    0.1877 H   0  0  0  0  0  0  0  0  0  0  0  0
    3.5335   -0.4203   -1.5256 H   0  0  0  0  0  0  0  0  0  0  0  0
    2.0484    2.0560   -0.0092 H   0  0  0  0  0  0  0  0  0  0  0  0
   -0.0303    1.6776    1.5677 H   0  0  0  0  0  0  0  0  0  0  0  0
   -0.4660    2.1263   -0.1012 H   0  0  0  0  0  0  0  0  0  0  0  0
   -2.5112    1.5955   -1.4210 H   0  0  0  0  0  0  0  0  0  0  0  0
   -3.7727    1.1075   -0.2639 H   0  0  0  0  0  0  0  0  0  0  0  0
   -2.3729    2.0555    0.2930 H   0  0  0  0  0  0  0  0  0  0  0  0
   -2.7405   -1.8622    0.5591 H   0  0  0  0  0  0  0  0  0  0  0  0
   -3.5723   -1.1723   -0.8553 H   0  0  0  0  0  0  0  0  0  0  0  0
   -1.9671   -1.9181   -1.0431 H   0  0  0  0  0  0  0  0  0  0  0  0
    0.2758   -1.1390    1.8357 H   0  0  0  0  0  0  0  0  0  0  0  0
   -0.6188   -2.0765    0.6093 H   0  0  0  0  0  0  0  0  0  0  0  0
    1.0047   -1.6183   -1.0821 H   0  0  0  0  0  0  0  0  0  0  0  0
    1.9516   -2.0305    0.3635 H   0  0  0  0  0  0  0  0  0  0  0  0
  1  2  1  0  0  0  0
  2  3  2  0  0  0  0
  3  4  1  0  0  0  0
  4  5  1  0  0  0  0
  5  6  2  0  0  0  0
  6  7  1  0  0  0  0
  6  8  1  0  0  0  0
  5  9  1  0  0  0  0
  9 10  1  0  0  0  0
  2 10  1  0  0  0  0
  1 11  1  0  0  0  0
  1 12  1  0  0  0  0
  1 13  1  0  0  0  0
  3 14  1  0  0  0  0
  4 15  1  0  0  0  0
  4 16  1  0  0  0  0
  7 17  1  0  0  0  0
  7 18  1  0  0  0  0
  7 19  1  0  0  0  0
  8 20  1  0  0  0  0
  8 21  1  0  0  0  0
  8 22  1  0  0  0  0
  9 23  1  0  0  0  0
  9 24  1  0  0  0  0
 10 25  1  0  0  0  0
 10 26  1  0  0  0  0
M  END
$$$$
