C9H10O2
APtclcactv06211806013D 0   0.00000     0.00000
 
 21 21  0  0  0  0  0  0  0  0999 V2000
    3.5237   -0.4665    0.0011 C   0  0  0  0  0  0  0  0  0  0  0  0
    2.3381    0.4638    0.0004 C   0  0  0  0  0  0  0  0  0  0  0  0
    2.5094    1.6642   -0.0005 O   0  0  0  0  0  0  0  0  0  0  0  0
    0.9723   -0.0847    0.0008 C   0  0  0  0  0  0  0  0  0  0  0  0
   -0.1294    0.7754    0.0002 C   0  0  0  0  0  0  0  0  0  0  0  0
   -1.4105    0.2510    0.0001 C   0  0  0  0  0  0  0  0  0  0  0  0
   -1.5989   -1.1247    0.0006 C   0  0  0  0  0  0  0  0  0  0  0  0
   -0.5103   -1.9781    0.0017 C   0  0  0  0  0  0  0  0  0  0  0  0
    0.7712   -1.4689   -0.0040 C   0  0  0  0  0  0  0  0  0  0  0  0
   -2.4849    1.0835   -0.0001 O   0  0  0  0  0  0  0  0  0  0  0  0
   -3.7775    0.4744   -0.0002 C   0  0  0  0  0  0  0  0  0  0  0  0
    3.8095   -0.6900    1.0289 H   0  0  0  0  0  0  0  0  0  0  0  0
    3.2601   -1.3913   -0.5121 H   0  0  0  0  0  0  0  0  0  0  0  0
    4.3589    0.0090   -0.5131 H   0  0  0  0  0  0  0  0  0  0  0  0
    0.0182    1.8452    0.0001 H   0  0  0  0  0  0  0  0  0  0  0  0
   -2.5999   -1.5302    0.0005 H   0  0  0  0  0  0  0  0  0  0  0  0
   -0.6645   -3.0470    0.0028 H   0  0  0  0  0  0  0  0  0  0  0  0
    1.6188   -2.1382   -0.0035 H   0  0  0  0  0  0  0  0  0  0  0  0
   -3.8873   -0.1453    0.8898 H   0  0  0  0  0  0  0  0  0  0  0  0
   -4.5443    1.2491   -0.0003 H   0  0  0  0  0  0  0  0  0  0  0  0
   -3.8871   -0.1454   -0.8901 H   0  0  0  0  0  0  0  0  0  0  0  0
  1  2  1  0  0  0  0
  2  3  2  0  0  0  0
  2  4  1  0  0  0  0
  4  5  2  0  0  0  0
  5  6  1  0  0  0  0
  6  7  2  0  0  0  0
  7  8  1  0  0  0  0
  8  9  2  0  0  0  0
  4  9  1  0  0  0  0
  6 10  1  0  0  0  0
 10 11  1  0  0  0  0
  1 12  1  0  0  0  0
  1 13  1  0  0  0  0
  1 14  1  0  0  0  0
  5 15  1  0  0  0  0
  7 16  1  0  0  0  0
  8 17  1  0  0  0  0
  9 18  1  0  0  0  0
 11 19  1  0  0  0  0
 11 20  1  0  0  0  0
 11 21  1  0  0  0  0
M  END
$$$$
