C14H14O2
APtclcactv06281817323D 0   0.00000     0.00000
 
 30 31  0  0  0  0  0  0  0  0999 V2000
    3.7382    2.2894   -0.2265 C   0  0  0  0  0  0  0  0  0  0  0  0
    2.3113    2.3663   -0.2342 O   0  0  0  0  0  0  0  0  0  0  0  0
    1.6298    1.1962   -0.1183 C   0  0  0  0  0  0  0  0  0  0  0  0
    2.3221    0.0000    0.0002 C   0  0  0  0  0  0  0  0  0  0  0  0
    1.6300   -1.1963    0.1183 C   0  0  0  0  0  0  0  0  0  0  0  0
    0.2444   -1.1997    0.1186 C   0  0  0  0  0  0  0  0  0  0  0  0
   -0.4535   -0.0002    0.0002 C   0  0  0  0  0  0  0  0  0  0  0  0
    0.2442    1.1999   -0.1129 C   0  0  0  0  0  0  0  0  0  0  0  0
   -1.9375   -0.0003    0.0002 C   0  0  0  0  0  0  0  0  0  0  0  0
   -2.6368    0.9977    0.6757 C   0  0  0  0  0  0  0  0  0  0  0  0
   -4.0170    0.9927    0.6724 C   0  0  0  0  0  0  0  0  0  0  0  0
   -4.7060   -0.0006    0.0002 C   0  0  0  0  0  0  0  0  0  0  0  0
   -4.0168   -0.9941   -0.6717 C   0  0  0  0  0  0  0  0  0  0  0  0
   -2.6366   -0.9952   -0.6801 C   0  0  0  0  0  0  0  0  0  0  0  0
    2.3117   -2.3664    0.2333 O   0  0  0  0  0  0  0  0  0  0  0  0
    3.7386   -2.2893    0.2252 C   0  0  0  0  0  0  0  0  0  0  0  0
    4.1566    3.2911   -0.3258 H   0  0  0  0  0  0  0  0  0  0  0  0
    4.0733    1.8471    0.7116 H   0  0  0  0  0  0  0  0  0  0  0  0
    4.0733    1.6716   -1.0597 H   0  0  0  0  0  0  0  0  0  0  0  0
    3.4021    0.0001    0.0002 H   0  0  0  0  0  0  0  0  0  0  0  0
   -0.2939   -2.1315    0.2101 H   0  0  0  0  0  0  0  0  0  0  0  0
   -0.2942    2.1316   -0.2045 H   0  0  0  0  0  0  0  0  0  0  0  0
   -2.0998    1.7735    1.2012 H   0  0  0  0  0  0  0  0  0  0  0  0
   -4.5600    1.7656    1.1960 H   0  0  0  0  0  0  0  0  0  0  0  0
   -5.7860   -0.0007    0.0002 H   0  0  0  0  0  0  0  0  0  0  0  0
   -4.5597   -1.7675   -1.1946 H   0  0  0  0  0  0  0  0  0  0  0  0
   -2.0995   -1.7712   -1.2053 H   0  0  0  0  0  0  0  0  0  0  0  0
    4.1571   -3.2910    0.3237 H   0  0  0  0  0  0  0  0  0  0  0  0
    4.0733   -1.8464   -0.7128 H   0  0  0  0  0  0  0  0  0  0  0  0
    4.0738   -1.6719    1.0586 H   0  0  0  0  0  0  0  0  0  0  0  0
  1  2  1  0  0  0  0
  2  3  1  0  0  0  0
  3  4  2  0  0  0  0
  4  5  1  0  0  0  0
  5  6  2  0  0  0  0
  6  7  1  0  0  0  0
  7  8  2  0  0  0  0
  3  8  1  0  0  0  0
  7  9  1  0  0  0  0
  9 10  2  0  0  0  0
 10 11  1  0  0  0  0
 11 12  2  0  0  0  0
 12 13  1  0  0  0  0
 13 14  2  0  0  0  0
  9 14  1  0  0  0  0
  5 15  1  0  0  0  0
 15 16  1  0  0  0  0
  1 17  1  0  0  0  0
  1 18  1  0  0  0  0
  1 19  1  0  0  0  0
  4 20  1  0  0  0  0
  6 21  1  0  0  0  0
  8 22  1  0  0  0  0
 10 23  1  0  0  0  0
 11 24  1  0  0  0  0
 12 25  1  0  0  0  0
 13 26  1  0  0  0  0
 14 27  1  0  0  0  0
 16 28  1  0  0  0  0
 16 29  1  0  0  0  0
 16 30  1  0  0  0  0
M  END
$$$$
