C5H8O4
APtclcactv06281817323D 0   0.00000     0.00000
 
 17 17  0  0  0  0  0  0  0  0999 V2000
   -0.5755   -1.6087   -1.1896 C   0  0  0  0  0  0  0  0  0  0  0  0
   -0.0928   -0.6621   -0.0887 C   0  0  0  0  0  0  0  0  0  0  0  0
    1.1793    0.0875   -0.5425 C   0  0  0  0  0  0  0  0  0  0  0  0
    0.7445    1.5681   -0.5016 C   0  0  0  0  0  0  0  0  0  0  0  0
   -0.4536    1.5888    0.3315 O   0  0  0  0  0  0  0  0  0  0  0  0
   -1.1143    0.4300    0.1543 C   0  0  0  0  0  0  0  0  0  0  0  0
   -2.3136    0.2857    0.1835 O   0  0  0  0  0  0  0  0  0  0  0  0
    2.2560   -0.1481    0.3670 O   0  0  0  0  0  0  0  0  0  0  0  0
    0.1598   -1.3883    1.1158 O   0  0  0  0  0  0  0  0  0  0  0  0
    0.2052   -2.3363   -1.4112 H   0  0  0  0  0  0  0  0  0  0  0  0
   -1.4725   -2.1291   -0.8538 H   0  0  0  0  0  0  0  0  0  0  0  0
   -0.8031   -1.0350   -2.0880 H   0  0  0  0  0  0  0  0  0  0  0  0
    1.4580   -0.2044   -1.5551 H   0  0  0  0  0  0  0  0  0  0  0  0
    1.5274    2.1803   -0.0540 H   0  0  0  0  0  0  0  0  0  0  0  0
    0.5133    1.9227   -1.5060 H   0  0  0  0  0  0  0  0  0  0  0  0
    3.0785    0.3003    0.1274 H   0  0  0  0  0  0  0  0  0  0  0  0
   -0.6116   -1.8584    1.4608 H   0  0  0  0  0  0  0  0  0  0  0  0
  1  2  1  0  0  0  0
  2  3  1  0  0  0  0
  3  4  1  0  0  0  0
  4  5  1  0  0  0  0
  5  6  1  0  0  0  0
  2  6  1  0  0  0  0
  6  7  2  0  0  0  0
  3  8  1  0  0  0  0
  2  9  1  0  0  0  0
  1 10  1  0  0  0  0
  1 11  1  0  0  0  0
  1 12  1  0  0  0  0
  3 13  1  0  0  0  0
  4 14  1  0  0  0  0
  4 15  1  0  0  0  0
  8 16  1  0  0  0  0
  9 17  1  0  0  0  0
M  END
$$$$
