C20H24O5
APtclcactv06281817323D 0   0.00000     0.00000
 
 49 51  0  0  0  0  0  0  0  0999 V2000
   -6.8901    2.6133    0.0134 C   0  0  0  0  0  0  0  0  0  0  0  0
   -5.8317    1.8114    0.5414 O   0  0  0  0  0  0  0  0  0  0  0  0
   -5.9632    0.4692    0.4292 C   0  0  0  0  0  0  0  0  0  0  0  0
   -5.1893   -0.3706   -0.3180 C   0  0  0  0  0  0  0  0  0  0  0  0
   -5.6787   -1.6754   -0.1412 C   0  0  0  0  0  0  0  0  0  0  0  0
   -5.2177   -2.6736   -0.6657 O   0  0  0  0  0  0  0  0  0  0  0  0
   -6.7325   -1.6571    0.6950 O   0  0  0  0  0  0  0  0  0  0  0  0
   -6.9664   -0.3799    1.0940 C   0  0  0  0  0  0  0  0  0  0  0  0
   -7.9316    0.0304    1.9259 C   0  0  0  0  0  0  0  0  0  0  0  0
   -4.0193    0.0303   -1.1791 C   0  0  0  0  0  0  0  0  0  0  0  0
   -2.7228   -0.1233   -0.3815 C   0  0  0  0  0  0  0  0  0  0  0  0
   -1.5349    0.2836   -1.2558 C   0  0  0  0  0  0  0  0  0  0  0  0
   -0.2383    0.1300   -0.4582 C   0  0  0  0  0  0  0  0  0  0  0  0
    0.9495    0.5370   -1.3325 C   0  0  0  0  0  0  0  0  0  0  0  0
    2.2461    0.3834   -0.5349 C   0  0  0  0  0  0  0  0  0  0  0  0
    3.4339    0.7903   -1.4092 C   0  0  0  0  0  0  0  0  0  0  0  0
    4.7110    0.6391   -0.6236 C   0  0  0  0  0  0  0  0  0  0  0  0
    5.3988   -0.5598   -0.6495 C   0  0  0  0  0  0  0  0  0  0  0  0
    6.5733   -0.7011    0.0716 C   0  0  0  0  0  0  0  0  0  0  0  0
    7.0583    0.3674    0.8218 C   0  0  0  0  0  0  0  0  0  0  0  0
    6.3633    1.5657    0.8437 C   0  0  0  0  0  0  0  0  0  0  0  0
    5.1952    1.7014    0.1169 C   0  0  0  0  0  0  0  0  0  0  0  0
    8.2161   -0.0187    1.4331 O   0  0  0  0  0  0  0  0  0  0  0  0
    8.6501   -1.1956    0.7262 C   0  0  0  0  0  0  0  0  0  0  0  0
    7.4273   -1.7565    0.2128 O   0  0  0  0  0  0  0  0  0  0  0  0
   -6.6171    3.6663    0.0822 H   0  0  0  0  0  0  0  0  0  0  0  0
   -7.0598    2.3494   -1.0305 H   0  0  0  0  0  0  0  0  0  0  0  0
   -7.8006    2.4359    0.5857 H   0  0  0  0  0  0  0  0  0  0  0  0
   -8.6200   -0.6860    2.3495 H   0  0  0  0  0  0  0  0  0  0  0  0
   -8.0220    1.0777    2.1734 H   0  0  0  0  0  0  0  0  0  0  0  0
   -3.9814   -0.6092   -2.0610 H   0  0  0  0  0  0  0  0  0  0  0  0
   -4.1348    1.0691   -1.4883 H   0  0  0  0  0  0  0  0  0  0  0  0
   -2.7607    0.5162    0.5004 H   0  0  0  0  0  0  0  0  0  0  0  0
   -2.6073   -1.1621   -0.0723 H   0  0  0  0  0  0  0  0  0  0  0  0
   -1.4969   -0.3559   -2.1377 H   0  0  0  0  0  0  0  0  0  0  0  0
   -1.6504    1.3225   -1.5650 H   0  0  0  0  0  0  0  0  0  0  0  0
   -0.2763    0.7695    0.4237 H   0  0  0  0  0  0  0  0  0  0  0  0
   -0.1229   -0.9088   -0.1490 H   0  0  0  0  0  0  0  0  0  0  0  0
    0.9875   -0.1025   -2.2144 H   0  0  0  0  0  0  0  0  0  0  0  0
    0.8340    1.5758   -1.6417 H   0  0  0  0  0  0  0  0  0  0  0  0
    2.2081    1.0229    0.3470 H   0  0  0  0  0  0  0  0  0  0  0  0
    2.3616   -0.6554   -0.2257 H   0  0  0  0  0  0  0  0  0  0  0  0
    3.4719    0.1509   -2.2910 H   0  0  0  0  0  0  0  0  0  0  0  0
    3.3184    1.8292   -1.7184 H   0  0  0  0  0  0  0  0  0  0  0  0
    5.0202   -1.3868   -1.2318 H   0  0  0  0  0  0  0  0  0  0  0  0
    6.7371    2.3959    1.4246 H   0  0  0  0  0  0  0  0  0  0  0  0
    4.6550    2.6364    0.1349 H   0  0  0  0  0  0  0  0  0  0  0  0
    9.3205   -0.9267   -0.0902 H   0  0  0  0  0  0  0  0  0  0  0  0
    9.1356   -1.8944    1.4074 H   0  0  0  0  0  0  0  0  0  0  0  0
  1  2  1  0  0  0  0
  2  3  1  0  0  0  0
  3  4  2  0  0  0  0
  4  5  1  0  0  0  0
  5  6  2  0  0  0  0
  5  7  1  0  0  0  0
  7  8  1  0  0  0  0
  3  8  1  0  0  0  0
  8  9  2  0  0  0  0
  4 10  1  0  0  0  0
 10 11  1  0  0  0  0
 11 12  1  0  0  0  0
 12 13  1  0  0  0  0
 13 14  1  0  0  0  0
 14 15  1  0  0  0  0
 15 16  1  0  0  0  0
 16 17  1  0  0  0  0
 17 18  2  0  0  0  0
 18 19  1  0  0  0  0
 19 20  2  0  0  0  0
 20 21  1  0  0  0  0
 21 22  2  0  0  0  0
 17 22  1  0  0  0  0
 20 23  1  0  0  0  0
 23 24  1  0  0  0  0
 24 25  1  0  0  0  0
 19 25  1  0  0  0  0
  1 26  1  0  0  0  0
  1 27  1  0  0  0  0
  1 28  1  0  0  0  0
  9 29  1  0  0  0  0
  9 30  1  0  0  0  0
 10 31  1  0  0  0  0
 10 32  1  0  0  0  0
 11 33  1  0  0  0  0
 11 34  1  0  0  0  0
 12 35  1  0  0  0  0
 12 36  1  0  0  0  0
 13 37  1  0  0  0  0
 13 38  1  0  0  0  0
 14 39  1  0  0  0  0
 14 40  1  0  0  0  0
 15 41  1  0  0  0  0
 15 42  1  0  0  0  0
 16 43  1  0  0  0  0
 16 44  1  0  0  0  0
 18 45  1  0  0  0  0
 21 46  1  0  0  0  0
 22 47  1  0  0  0  0
 24 48  1  0  0  0  0
 24 49  1  0  0  0  0
M  END
$$$$
