C12H18
APtclcactv06281817323D 0   0.00000     0.00000
 
 30 31  0  0  0  0  0  0  0  0999 V2000
    3.0027    0.3427   -1.1819 C   0  0  0  0  0  0  0  0  0  0  0  0
    2.5008   -0.0912    0.1712 C   0  0  0  0  0  0  0  0  0  0  0  0
    3.3487   -0.4837    1.0894 C   0  0  0  0  0  0  0  0  0  0  0  0
    1.0234   -0.0734    0.4681 C   0  0  0  0  0  0  0  0  0  0  0  0
    0.5159    1.3413    0.3122 C   0  0  0  0  0  0  0  0  0  0  0  0
   -0.9994    1.4521    0.3753 C   0  0  0  0  0  0  0  0  0  0  0  0
   -1.7453    1.3888   -0.9664 C   0  0  0  0  0  0  0  0  0  0  0  0
   -1.8653    0.2429    0.0298 C   0  0  0  0  0  0  0  0  0  0  0  0
   -1.1538   -1.0529   -0.2425 C   0  0  0  0  0  0  0  0  0  0  0  0
   -1.8338   -2.1709   -0.3053 C   0  0  0  0  0  0  0  0  0  0  0  0
    0.3337   -1.0692   -0.4432 C   0  0  0  0  0  0  0  0  0  0  0  0
   -3.1945    0.1057    0.7750 C   0  0  0  0  0  0  0  0  0  0  0  0
    4.0894    0.2625   -1.2091 H   0  0  0  0  0  0  0  0  0  0  0  0
    2.5718   -0.2975   -1.9517 H   0  0  0  0  0  0  0  0  0  0  0  0
    2.7100    1.3768   -1.3635 H   0  0  0  0  0  0  0  0  0  0  0  0
    2.9890   -0.7946    2.0591 H   0  0  0  0  0  0  0  0  0  0  0  0
    4.4075   -0.4964    0.8767 H   0  0  0  0  0  0  0  0  0  0  0  0
    0.8724   -0.3863    1.5012 H   0  0  0  0  0  0  0  0  0  0  0  0
    0.9440    1.9551    1.1047 H   0  0  0  0  0  0  0  0  0  0  0  0
    0.8547    1.7300   -0.6481 H   0  0  0  0  0  0  0  0  0  0  0  0
   -1.3878    2.1346    1.1312 H   0  0  0  0  0  0  0  0  0  0  0  0
   -2.6109    2.0392   -1.0924 H   0  0  0  0  0  0  0  0  0  0  0  0
   -1.1524    1.2153   -1.8644 H   0  0  0  0  0  0  0  0  0  0  0  0
   -2.9041   -2.1607   -0.1615 H   0  0  0  0  0  0  0  0  0  0  0  0
   -1.3240   -3.1027   -0.5009 H   0  0  0  0  0  0  0  0  0  0  0  0
    0.5567   -0.8179   -1.4801 H   0  0  0  0  0  0  0  0  0  0  0  0
    0.7116   -2.0691   -0.2302 H   0  0  0  0  0  0  0  0  0  0  0  0
   -3.7078   -0.7955    0.4395 H   0  0  0  0  0  0  0  0  0  0  0  0
   -3.0052    0.0385    1.8463 H   0  0  0  0  0  0  0  0  0  0  0  0
   -3.8175    0.9762    0.5701 H   0  0  0  0  0  0  0  0  0  0  0  0
  1  2  1  0  0  0  0
  2  3  2  0  0  0  0
  2  4  1  0  0  0  0
  4  5  1  0  0  0  0
  5  6  1  0  0  0  0
  6  7  1  0  0  0  0
  7  8  1  0  0  0  0
  6  8  1  0  0  0  0
  8  9  1  0  0  0  0
  9 10  2  0  0  0  0
  9 11  1  0  0  0  0
  4 11  1  0  0  0  0
  8 12  1  0  0  0  0
  1 13  1  0  0  0  0
  1 14  1  0  0  0  0
  1 15  1  0  0  0  0
  3 16  1  0  0  0  0
  3 17  1  0  0  0  0
  4 18  1  0  0  0  0
  5 19  1  0  0  0  0
  5 20  1  0  0  0  0
  6 21  1  0  0  0  0
  7 22  1  0  0  0  0
  7 23  1  0  0  0  0
 10 24  1  0  0  0  0
 10 25  1  0  0  0  0
 11 26  1  0  0  0  0
 11 27  1  0  0  0  0
 12 28  1  0  0  0  0
 12 29  1  0  0  0  0
 12 30  1  0  0  0  0
M  END
$$$$
