C11H11NO2S
APtclcactv06281817333D 0   0.00000     0.00000
 
 26 27  0  0  0  0  0  0  0  0999 V2000
    2.5451    3.1221    0.6334 C   0  0  0  0  0  0  0  0  0  0  0  0
    1.6360    2.0395    0.8425 O   0  0  0  0  0  0  0  0  0  0  0  0
    1.1490    1.4272   -0.2573 C   0  0  0  0  0  0  0  0  0  0  0  0
    1.4882    1.8036   -1.3640 O   0  0  0  0  0  0  0  0  0  0  0  0
    0.2441    0.3477   -0.1237 C   0  0  0  0  0  0  0  0  0  0  0  0
    0.5638   -1.0024   -0.0254 C   0  0  0  0  0  0  0  0  0  0  0  0
   -0.5825   -1.7264    0.0897 N   0  0  0  0  0  0  0  0  0  0  0  0
   -1.6868   -0.8914    0.0718 C   0  0  0  0  0  0  0  0  0  0  0  0
   -3.0529   -1.1320    0.1567 C   0  0  0  0  0  0  0  0  0  0  0  0
   -3.9426   -0.0789    0.1104 C   0  0  0  0  0  0  0  0  0  0  0  0
   -3.4881    1.2239   -0.0211 C   0  0  0  0  0  0  0  0  0  0  0  0
   -2.1363    1.4825   -0.1073 C   0  0  0  0  0  0  0  0  0  0  0  0
   -1.2279    0.4289   -0.0543 C   0  0  0  0  0  0  0  0  0  0  0  0
    2.1945   -1.6695   -0.0470 S   0  0  0  0  0  0  0  0  0  0  0  0
    1.8155   -3.4316    0.1193 C   0  0  0  0  0  0  0  0  0  0  0  0
    3.4176    2.7635    0.0872 H   0  0  0  0  0  0  0  0  0  0  0  0
    2.0518    3.9045    0.0567 H   0  0  0  0  0  0  0  0  0  0  0  0
    2.8593    3.5239    1.5966 H   0  0  0  0  0  0  0  0  0  0  0  0
   -0.6208   -2.6921    0.1722 H   0  0  0  0  0  0  0  0  0  0  0  0
   -3.4179   -2.1433    0.2586 H   0  0  0  0  0  0  0  0  0  0  0  0
   -5.0033   -0.2713    0.1768 H   0  0  0  0  0  0  0  0  0  0  0  0
   -4.1952    2.0394   -0.0565 H   0  0  0  0  0  0  0  0  0  0  0  0
   -1.7837    2.4981   -0.2100 H   0  0  0  0  0  0  0  0  0  0  0  0
    2.7432   -4.0039    0.1232 H   0  0  0  0  0  0  0  0  0  0  0  0
    1.2799   -3.6014    1.0532 H   0  0  0  0  0  0  0  0  0  0  0  0
    1.1954   -3.7505   -0.7185 H   0  0  0  0  0  0  0  0  0  0  0  0
  1  2  1  0  0  0  0
  2  3  1  0  0  0  0
  3  4  2  0  0  0  0
  3  5  1  0  0  0  0
  5  6  2  0  0  0  0
  6  7  1  0  0  0  0
  7  8  1  0  0  0  0
  8  9  2  0  0  0  0
  9 10  1  0  0  0  0
 10 11  2  0  0  0  0
 11 12  1  0  0  0  0
 12 13  2  0  0  0  0
  8 13  1  0  0  0  0
  5 13  1  0  0  0  0
  6 14  1  0  0  0  0
 14 15  1  0  0  0  0
  1 16  1  0  0  0  0
  1 17  1  0  0  0  0
  1 18  1  0  0  0  0
  7 19  1  0  0  0  0
  9 20  1  0  0  0  0
 10 21  1  0  0  0  0
 11 22  1  0  0  0  0
 12 23  1  0  0  0  0
 15 24  1  0  0  0  0
 15 25  1  0  0  0  0
 15 26  1  0  0  0  0
M  END
$$$$
