C33H40O20
APtclcactv06281817333D 0   0.00000     0.00000
 
 93 98  0  0  0  0  0  0  0  0999 V2000
    5.6379   -3.9054    1.8765 C   0  0  0  0  0  0  0  0  0  0  0  0
    5.1481   -2.7295    2.7240 C   0  0  0  0  0  0  0  0  0  0  0  0
    6.1871   -1.6058    2.6870 C   0  0  0  0  0  0  0  0  0  0  0  0
    6.3390   -1.1087    1.2461 C   0  0  0  0  0  0  0  0  0  0  0  0
    4.9714   -0.6533    0.7279 C   0  0  0  0  0  0  0  0  0  0  0  0
    3.9794   -1.8138    0.8405 C   0  0  0  0  0  0  0  0  0  0  0  0
    3.9088   -2.2481    2.2002 O   0  0  0  0  0  0  0  0  0  0  0  0
    2.6874   -1.3798    0.4112 O   0  0  0  0  0  0  0  0  0  0  0  0
    1.7087   -2.4202    0.3698 C   0  0  0  0  0  0  0  0  0  0  0  0
    0.3716   -1.8443   -0.1008 C   0  0  0  0  0  0  0  0  0  0  0  0
   -0.6434   -2.9786   -0.2649 C   0  0  0  0  0  0  0  0  0  0  0  0
   -1.9950   -2.3879   -0.6778 C   0  0  0  0  0  0  0  0  0  0  0  0
   -2.4339   -1.3626    0.3721 C   0  0  0  0  0  0  0  0  0  0  0  0
   -1.3497   -0.2907    0.5116 C   0  0  0  0  0  0  0  0  0  0  0  0
   -0.1120   -0.9104    0.8667 O   0  0  0  0  0  0  0  0  0  0  0  0
   -1.1983    0.3986   -0.7309 O   0  0  0  0  0  0  0  0  0  0  0  0
   -0.5056    1.5698   -0.7074 C   0  0  0  0  0  0  0  0  0  0  0  0
    0.6406    1.7045   -1.4317 C   0  0  0  0  0  0  0  0  0  0  0  0
    1.3585    2.8407   -1.4407 O   0  0  0  0  0  0  0  0  0  0  0  0
    0.9942    3.9300   -0.7322 C   0  0  0  0  0  0  0  0  0  0  0  0
    1.7590    5.0859   -0.7657 C   0  0  0  0  0  0  0  0  0  0  0  0
    1.3709    6.1965   -0.0324 C   0  0  0  0  0  0  0  0  0  0  0  0
    0.2166    6.1665    0.7425 C   0  0  0  0  0  0  0  0  0  0  0  0
   -0.5591    5.0231    0.7893 C   0  0  0  0  0  0  0  0  0  0  0  0
   -0.1737    3.8972    0.0501 C   0  0  0  0  0  0  0  0  0  0  0  0
   -0.9743    2.6625    0.0670 C   0  0  0  0  0  0  0  0  0  0  0  0
   -1.9990    2.5801    0.7252 O   0  0  0  0  0  0  0  0  0  0  0  0
   -1.6855    4.9916    1.5456 O   0  0  0  0  0  0  0  0  0  0  0  0
    2.1255    7.3244   -0.0709 O   0  0  0  0  0  0  0  0  0  0  0  0
    1.1111    0.5611   -2.2351 C   0  0  0  0  0  0  0  0  0  0  0  0
    2.4427    0.1449   -2.1488 C   0  0  0  0  0  0  0  0  0  0  0  0
    2.8784   -0.9271   -2.9040 C   0  0  0  0  0  0  0  0  0  0  0  0
    1.9910   -1.5905   -3.7495 C   0  0  0  0  0  0  0  0  0  0  0  0
    0.6688   -1.1775   -3.8354 C   0  0  0  0  0  0  0  0  0  0  0  0
    0.2254   -0.1129   -3.0806 C   0  0  0  0  0  0  0  0  0  0  0  0
    2.4216   -2.6439   -4.4920 O   0  0  0  0  0  0  0  0  0  0  0  0
    4.1733   -1.3347   -2.8225 O   0  0  0  0  0  0  0  0  0  0  0  0
   -3.6587   -0.7522   -0.0393 O   0  0  0  0  0  0  0  0  0  0  0  0
   -4.4932   -0.3361    1.0436 C   0  0  0  0  0  0  0  0  0  0  0  0
   -5.7104    0.4110    0.4923 C   0  0  0  0  0  0  0  0  0  0  0  0
   -6.5287   -0.5402   -0.3863 C   0  0  0  0  0  0  0  0  0  0  0  0
   -6.9252   -1.7673    0.4405 C   0  0  0  0  0  0  0  0  0  0  0  0
   -5.6610   -2.4303    0.9938 C   0  0  0  0  0  0  0  0  0  0  0  0
   -4.9310   -1.4827    1.7756 O   0  0  0  0  0  0  0  0  0  0  0  0
   -6.0517   -3.6219    1.8702 C   0  0  0  0  0  0  0  0  0  0  0  0
   -7.7651   -1.3624    1.5233 O   0  0  0  0  0  0  0  0  0  0  0  0
   -7.7057    0.1272   -0.8459 O   0  0  0  0  0  0  0  0  0  0  0  0
   -6.5182    0.8735    1.5766 O   0  0  0  0  0  0  0  0  0  0  0  0
   -1.8684   -1.7467   -1.9486 O   0  0  0  0  0  0  0  0  0  0  0  0
   -0.1894   -3.8834   -1.2736 O   0  0  0  0  0  0  0  0  0  0  0  0
    4.5074    0.4492    1.5097 O   0  0  0  0  0  0  0  0  0  0  0  0
    7.2526   -0.0104    1.2132 O   0  0  0  0  0  0  0  0  0  0  0  0
    5.7552   -0.5285    3.5208 O   0  0  0  0  0  0  0  0  0  0  0  0
    6.5837   -4.2718    2.2756 H   0  0  0  0  0  0  0  0  0  0  0  0
    4.8981   -4.7054    1.9029 H   0  0  0  0  0  0  0  0  0  0  0  0
    5.7809   -3.5766    0.8471 H   0  0  0  0  0  0  0  0  0  0  0  0
    5.0046   -3.0582    3.7533 H   0  0  0  0  0  0  0  0  0  0  0  0
    7.1449   -1.9833    3.0450 H   0  0  0  0  0  0  0  0  0  0  0  0
    6.7158   -1.9170    0.6194 H   0  0  0  0  0  0  0  0  0  0  0  0
    5.0598   -0.3496   -0.3152 H   0  0  0  0  0  0  0  0  0  0  0  0
    4.3131   -2.6396    0.2121 H   0  0  0  0  0  0  0  0  0  0  0  0
    2.0334   -3.1972   -0.3223 H   0  0  0  0  0  0  0  0  0  0  0  0
    1.5901   -2.8472    1.3656 H   0  0  0  0  0  0  0  0  0  0  0  0
    0.5098   -1.3390   -1.0567 H   0  0  0  0  0  0  0  0  0  0  0  0
   -0.7516   -3.5101    0.6805 H   0  0  0  0  0  0  0  0  0  0  0  0
   -2.7366   -3.1842   -0.7420 H   0  0  0  0  0  0  0  0  0  0  0  0
   -2.5783   -1.8615    1.3304 H   0  0  0  0  0  0  0  0  0  0  0  0
   -1.6372    0.4182    1.2881 H   0  0  0  0  0  0  0  0  0  0  0  0
    2.6579    5.1210   -1.3633 H   0  0  0  0  0  0  0  0  0  0  0  0
   -0.0744    7.0385    1.3094 H   0  0  0  0  0  0  0  0  0  0  0  0
   -2.4825    5.2735    1.0762 H   0  0  0  0  0  0  0  0  0  0  0  0
    1.8743    7.9420   -0.7712 H   0  0  0  0  0  0  0  0  0  0  0  0
    3.1295    0.6603   -1.4938 H   0  0  0  0  0  0  0  0  0  0  0  0
   -0.0154   -1.6944   -4.4920 H   0  0  0  0  0  0  0  0  0  0  0  0
   -0.8041    0.2064   -3.1494 H   0  0  0  0  0  0  0  0  0  0  0  0
    2.3319   -3.4993   -4.0501 H   0  0  0  0  0  0  0  0  0  0  0  0
    4.3333   -2.0026   -2.1417 H   0  0  0  0  0  0  0  0  0  0  0  0
   -3.9301    0.3236    1.7038 H   0  0  0  0  0  0  0  0  0  0  0  0
   -5.3771    1.2609   -0.1032 H   0  0  0  0  0  0  0  0  0  0  0  0
   -5.9290   -0.8543   -1.2405 H   0  0  0  0  0  0  0  0  0  0  0  0
   -7.4607   -2.4752   -0.1922 H   0  0  0  0  0  0  0  0  0  0  0  0
   -5.0398   -2.7750    0.1671 H   0  0  0  0  0  0  0  0  0  0  0  0
   -6.6094   -4.3441    1.2740 H   0  0  0  0  0  0  0  0  0  0  0  0
   -5.1516   -4.0938    2.2641 H   0  0  0  0  0  0  0  0  0  0  0  0
   -6.6725   -3.2768    2.6970 H   0  0  0  0  0  0  0  0  0  0  0  0
   -8.0548   -2.0906    2.0899 H   0  0  0  0  0  0  0  0  0  0  0  0
   -7.5289    0.9191   -1.3718 H   0  0  0  0  0  0  0  0  0  0  0  0
   -6.0613    1.4777    2.1776 H   0  0  0  0  0  0  0  0  0  0  0  0
   -1.5862   -2.3370   -2.6606 H   0  0  0  0  0  0  0  0  0  0  0  0
   -0.7854   -4.6285   -1.4306 H   0  0  0  0  0  0  0  0  0  0  0  0
    3.6445    0.7896    1.2364 H   0  0  0  0  0  0  0  0  0  0  0  0
    7.3966    0.3551    0.3296 H   0  0  0  0  0  0  0  0  0  0  0  0
    5.6334   -0.7734    4.4483 H   0  0  0  0  0  0  0  0  0  0  0  0
  1  2  1  0  0  0  0
  2  3  1  0  0  0  0
  3  4  1  0  0  0  0
  4  5  1  0  0  0  0
  5  6  1  0  0  0  0
  6  7  1  0  0  0  0
  2  7  1  0  0  0  0
  6  8  1  0  0  0  0
  8  9  1  0  0  0  0
  9 10  1  0  0  0  0
 10 11  1  0  0  0  0
 11 12  1  0  0  0  0
 12 13  1  0  0  0  0
 13 14  1  0  0  0  0
 14 15  1  0  0  0  0
 10 15  1  0  0  0  0
 14 16  1  0  0  0  0
 16 17  1  0  0  0  0
 17 18  2  0  0  0  0
 18 19  1  0  0  0  0
 19 20  1  0  0  0  0
 20 21  2  0  0  0  0
 21 22  1  0  0  0  0
 22 23  2  0  0  0  0
 23 24  1  0  0  0  0
 24 25  2  0  0  0  0
 20 25  1  0  0  0  0
 25 26  1  0  0  0  0
 17 26  1  0  0  0  0
 26 27  2  0  0  0  0
 24 28  1  0  0  0  0
 22 29  1  0  0  0  0
 18 30  1  0  0  0  0
 30 31  2  0  0  0  0
 31 32  1  0  0  0  0
 32 33  2  0  0  0  0
 33 34  1  0  0  0  0
 34 35  2  0  0  0  0
 30 35  1  0  0  0  0
 33 36  1  0  0  0  0
 32 37  1  0  0  0  0
 13 38  1  0  0  0  0
 38 39  1  0  0  0  0
 39 40  1  0  0  0  0
 40 41  1  0  0  0  0
 41 42  1  0  0  0  0
 42 43  1  0  0  0  0
 43 44  1  0  0  0  0
 39 44  1  0  0  0  0
 43 45  1  0  0  0  0
 42 46  1  0  0  0  0
 41 47  1  0  0  0  0
 40 48  1  0  0  0  0
 12 49  1  0  0  0  0
 11 50  1  0  0  0  0
  5 51  1  0  0  0  0
  4 52  1  0  0  0  0
  3 53  1  0  0  0  0
  1 54  1  0  0  0  0
  1 55  1  0  0  0  0
  1 56  1  0  0  0  0
  2 57  1  0  0  0  0
  3 58  1  0  0  0  0
  4 59  1  0  0  0  0
  5 60  1  0  0  0  0
  6 61  1  0  0  0  0
  9 62  1  0  0  0  0
  9 63  1  0  0  0  0
 10 64  1  0  0  0  0
 11 65  1  0  0  0  0
 12 66  1  0  0  0  0
 13 67  1  0  0  0  0
 14 68  1  0  0  0  0
 21 69  1  0  0  0  0
 23 70  1  0  0  0  0
 28 71  1  0  0  0  0
 29 72  1  0  0  0  0
 31 73  1  0  0  0  0
 34 74  1  0  0  0  0
 35 75  1  0  0  0  0
 36 76  1  0  0  0  0
 37 77  1  0  0  0  0
 39 78  1  0  0  0  0
 40 79  1  0  0  0  0
 41 80  1  0  0  0  0
 42 81  1  0  0  0  0
 43 82  1  0  0  0  0
 45 83  1  0  0  0  0
 45 84  1  0  0  0  0
 45 85  1  0  0  0  0
 46 86  1  0  0  0  0
 47 87  1  0  0  0  0
 48 88  1  0  0  0  0
 49 89  1  0  0  0  0
 50 90  1  0  0  0  0
 51 91  1  0  0  0  0
 52 92  1  0  0  0  0
 53 93  1  0  0  0  0
M  END
$$$$
