C6H12O
APtclcactv06211806013D 0   0.00000     0.00000
 
 19 18  0  0  0  0  0  0  0  0999 V2000
    3.2764   -0.2335   -0.0000 C   0  0  0  0  0  0  0  0  0  0  0  0
    1.8962    0.4267    0.0000 C   0  0  0  0  0  0  0  0  0  0  0  0
    0.8137   -0.6546    0.0000 C   0  0  0  0  0  0  0  0  0  0  0  0
   -0.5458   -0.0043    0.0000 C   0  0  0  0  0  0  0  0  0  0  0  0
   -0.6393    1.1997    0.0000 O   0  0  0  0  0  0  0  0  0  0  0  0
   -1.7887   -0.8566    0.0000 C   0  0  0  0  0  0  0  0  0  0  0  0
   -3.0251    0.0447   -0.0000 C   0  0  0  0  0  0  0  0  0  0  0  0
    3.3825   -0.8538    0.8900 H   0  0  0  0  0  0  0  0  0  0  0  0
    3.3825   -0.8538   -0.8900 H   0  0  0  0  0  0  0  0  0  0  0  0
    4.0476    0.5368   -0.0000 H   0  0  0  0  0  0  0  0  0  0  0  0
    1.7901    1.0470    0.8900 H   0  0  0  0  0  0  0  0  0  0  0  0
    1.7901    1.0470   -0.8900 H   0  0  0  0  0  0  0  0  0  0  0  0
    0.9197   -1.2749   -0.8900 H   0  0  0  0  0  0  0  0  0  0  0  0
    0.9197   -1.2749    0.8900 H   0  0  0  0  0  0  0  0  0  0  0  0
   -1.7978   -1.4858   -0.8900 H   0  0  0  0  0  0  0  0  0  0  0  0
   -1.7978   -1.4858    0.8900 H   0  0  0  0  0  0  0  0  0  0  0  0
   -3.0160    0.6740    0.8900 H   0  0  0  0  0  0  0  0  0  0  0  0
   -3.0160    0.6740   -0.8900 H   0  0  0  0  0  0  0  0  0  0  0  0
   -3.9240   -0.5717   -0.0000 H   0  0  0  0  0  0  0  0  0  0  0  0
  1  2  1  0  0  0  0
  2  3  1  0  0  0  0
  3  4  1  0  0  0  0
  4  5  2  0  0  0  0
  4  6  1  0  0  0  0
  6  7  1  0  0  0  0
  1  8  1  0  0  0  0
  1  9  1  0  0  0  0
  1 10  1  0  0  0  0
  2 11  1  0  0  0  0
  2 12  1  0  0  0  0
  3 13  1  0  0  0  0
  3 14  1  0  0  0  0
  6 15  1  0  0  0  0
  6 16  1  0  0  0  0
  7 17  1  0  0  0  0
  7 18  1  0  0  0  0
  7 19  1  0  0  0  0
M  END
$$$$
