C14H12
APtclcactv06211806013D 0   0.00000     0.00000
 
 26 27  0  0  0  0  0  0  0  0999 V2000
   -4.6086    0.2611    0.0004 C   0  0  0  0  0  0  0  0  0  0  0  0
   -4.1499   -1.0444   -0.0004 C   0  0  0  0  0  0  0  0  0  0  0  0
   -2.7951   -1.3029   -0.0009 C   0  0  0  0  0  0  0  0  0  0  0  0
   -1.8851   -0.2425   -0.0006 C   0  0  0  0  0  0  0  0  0  0  0  0
   -2.3557    1.0732    0.0002 C   0  0  0  0  0  0  0  0  0  0  0  0
   -3.7133    1.3163    0.0008 C   0  0  0  0  0  0  0  0  0  0  0  0
   -0.4357   -0.5106   -0.0007 C   0  0  0  0  0  0  0  0  0  0  0  0
    0.4357    0.5106   -0.0004 C   0  0  0  0  0  0  0  0  0  0  0  0
    1.8851    0.2425   -0.0004 C   0  0  0  0  0  0  0  0  0  0  0  0
    2.7951    1.3029   -0.0001 C   0  0  0  0  0  0  0  0  0  0  0  0
    4.1499    1.0444   -0.0002 C   0  0  0  0  0  0  0  0  0  0  0  0
    4.6086   -0.2611   -0.0011 C   0  0  0  0  0  0  0  0  0  0  0  0
    3.7133   -1.3163   -0.0014 C   0  0  0  0  0  0  0  0  0  0  0  0
    2.3557   -1.0732    0.0050 C   0  0  0  0  0  0  0  0  0  0  0  0
   -5.6706    0.4575   -0.0037 H   0  0  0  0  0  0  0  0  0  0  0  0
   -4.8544   -1.8630   -0.0003 H   0  0  0  0  0  0  0  0  0  0  0  0
   -2.4385   -2.3223   -0.0012 H   0  0  0  0  0  0  0  0  0  0  0  0
   -1.6581    1.8976    0.0008 H   0  0  0  0  0  0  0  0  0  0  0  0
   -4.0785    2.3326    0.0014 H   0  0  0  0  0  0  0  0  0  0  0  0
   -0.0748   -1.5285   -0.0009 H   0  0  0  0  0  0  0  0  0  0  0  0
    0.0748    1.5285   -0.0001 H   0  0  0  0  0  0  0  0  0  0  0  0
    2.4385    2.3223   -0.0001 H   0  0  0  0  0  0  0  0  0  0  0  0
    4.8544    1.8629    0.0000 H   0  0  0  0  0  0  0  0  0  0  0  0
    5.6706   -0.4575   -0.0019 H   0  0  0  0  0  0  0  0  0  0  0  0
    4.0785   -2.3326   -0.0024 H   0  0  0  0  0  0  0  0  0  0  0  0
    1.6581   -1.8976    0.0051 H   0  0  0  0  0  0  0  0  0  0  0  0
  1  2  2  0  0  0  0
  2  3  1  0  0  0  0
  3  4  2  0  0  0  0
  4  5  1  0  0  0  0
  5  6  2  0  0  0  0
  1  6  1  0  0  0  0
  4  7  1  0  0  0  0
  7  8  2  0  0  0  0
  8  9  1  0  0  0  0
  9 10  2  0  0  0  0
 10 11  1  0  0  0  0
 11 12  2  0  0  0  0
 12 13  1  0  0  0  0
 13 14  2  0  0  0  0
  9 14  1  0  0  0  0
  1 15  1  0  0  0  0
  2 16  1  0  0  0  0
  3 17  1  0  0  0  0
  5 18  1  0  0  0  0
  6 19  1  0  0  0  0
  7 20  1  0  0  0  0
  8 21  1  0  0  0  0
 10 22  1  0  0  0  0
 11 23  1  0  0  0  0
 12 24  1  0  0  0  0
 13 25  1  0  0  0  0
 14 26  1  0  0  0  0
M  END
$$$$
