C30H50O3
APtclcactv06211806363D 0   0.00000     0.00000
 
 83 87  0  0  0  0  0  0  0  0999 V2000
   -5.0938    2.0162    1.8643 C   0  0  0  0  0  0  0  0  0  0  0  0
   -5.2186    1.5821    0.3991 C   0  0  0  0  0  0  0  0  0  0  0  0
   -3.8353    1.5464   -0.2464 C   0  0  0  0  0  0  0  0  0  0  0  0
   -3.0295    0.3507    0.2441 C   0  0  0  0  0  0  0  0  0  0  0  0
   -1.6232    0.3681   -0.3048 C   0  0  0  0  0  0  0  0  0  0  0  0
   -1.0902    1.5250   -0.6216 C   0  0  0  0  0  0  0  0  0  0  0  0
    0.3757    1.5579   -1.0355 C   0  0  0  0  0  0  0  0  0  0  0  0
    1.0295    0.6060   -0.0345 C   0  0  0  0  0  0  0  0  0  0  0  0
    2.5036    0.8416    0.2274 C   0  0  0  0  0  0  0  0  0  0  0  0
    3.0682    1.9001   -0.7234 C   0  0  0  0  0  0  0  0  0  0  0  0
    4.5429    2.1413   -0.4020 C   0  0  0  0  0  0  0  0  0  0  0  0
    5.3459    0.8600   -0.5771 C   0  0  0  0  0  0  0  0  0  0  0  0
    4.8035   -0.2894    0.2756 C   0  0  0  0  0  0  0  0  0  0  0  0
    3.3011   -0.4431    0.0907 C   0  0  0  0  0  0  0  0  0  0  0  0
    2.7069   -1.5590    0.9295 C   0  0  0  0  0  0  0  0  0  0  0  0
    1.2211   -1.7961    0.6574 C   0  0  0  0  0  0  0  0  0  0  0  0
    0.6240   -0.8157   -0.3264 C   0  0  0  0  0  0  0  0  0  0  0  0
   -0.8941   -0.9358   -0.4431 C   0  0  0  0  0  0  0  0  0  0  0  0
   -1.4732   -1.9409    0.5356 C   0  0  0  0  0  0  0  0  0  0  0  0
   -2.9587   -2.1752    0.3228 C   0  0  0  0  0  0  0  0  0  0  0  0
   -3.7607   -0.9453   -0.0576 C   0  0  0  0  0  0  0  0  0  0  0  0
   -5.0705   -0.9278    0.7551 C   0  0  0  0  0  0  0  0  0  0  0  0
   -5.9390    0.2432    0.3180 C   0  0  0  0  0  0  0  0  0  0  0  0
   -5.7704   -2.1544    0.5252 O   0  0  0  0  0  0  0  0  0  0  0  0
   -4.1526   -1.0315   -1.5333 C   0  0  0  0  0  0  0  0  0  0  0  0
   -1.1011   -1.4669   -1.8674 C   0  0  0  0  0  0  0  0  0  0  0  0
    1.0732   -1.2180   -1.7363 C   0  0  0  0  0  0  0  0  0  0  0  0
    5.4734   -1.5778   -0.2688 C   0  0  0  0  0  0  0  0  0  0  0  0
    5.2367   -0.1401    1.7271 C   0  0  0  0  0  0  0  0  0  0  0  0
    6.6564   -0.2766    1.8169 O   0  0  0  0  0  0  0  0  0  0  0  0
    5.3305    0.4696   -1.9551 O   0  0  0  0  0  0  0  0  0  0  0  0
    2.5867    1.4007    1.6619 C   0  0  0  0  0  0  0  0  0  0  0  0
   -6.0650    2.6375   -0.3370 C   0  0  0  0  0  0  0  0  0  0  0  0
   -4.6469    3.0092    1.9122 H   0  0  0  0  0  0  0  0  0  0  0  0
   -6.0829    2.0405    2.3215 H   0  0  0  0  0  0  0  0  0  0  0  0
   -4.4628    1.3075    2.4007 H   0  0  0  0  0  0  0  0  0  0  0  0
   -3.9251    1.5484   -1.3288 H   0  0  0  0  0  0  0  0  0  0  0  0
   -3.3109    2.4699    0.0443 H   0  0  0  0  0  0  0  0  0  0  0  0
   -2.9430    0.4312    1.3512 H   0  0  0  0  0  0  0  0  0  0  0  0
   -1.6626    2.4346   -0.5952 H   0  0  0  0  0  0  0  0  0  0  0  0
    0.4951    1.2506   -2.0604 H   0  0  0  0  0  0  0  0  0  0  0  0
    0.7527    2.5735   -0.8944 H   0  0  0  0  0  0  0  0  0  0  0  0
    0.5301    0.8538    0.9484 H   0  0  0  0  0  0  0  0  0  0  0  0
    2.9627    1.5631   -1.7523 H   0  0  0  0  0  0  0  0  0  0  0  0
    2.5198    2.8347   -0.5915 H   0  0  0  0  0  0  0  0  0  0  0  0
    4.9283    2.8952   -1.1051 H   0  0  0  0  0  0  0  0  0  0  0  0
    4.6633    2.5382    0.6014 H   0  0  0  0  0  0  0  0  0  0  0  0
    6.3864    1.0487   -0.2869 H   0  0  0  0  0  0  0  0  0  0  0  0
    3.2386   -0.7573   -0.9781 H   0  0  0  0  0  0  0  0  0  0  0  0
    3.2389   -2.4991    0.7304 H   0  0  0  0  0  0  0  0  0  0  0  0
    2.8343   -1.3413    1.9966 H   0  0  0  0  0  0  0  0  0  0  0  0
    1.0931   -2.8188    0.2756 H   0  0  0  0  0  0  0  0  0  0  0  0
    0.6799   -1.7354    1.6117 H   0  0  0  0  0  0  0  0  0  0  0  0
   -0.9514   -2.8972    0.4320 H   0  0  0  0  0  0  0  0  0  0  0  0
   -1.3218   -1.5819    1.5589 H   0  0  0  0  0  0  0  0  0  0  0  0
   -3.0918   -2.9381   -0.4472 H   0  0  0  0  0  0  0  0  0  0  0  0
   -3.3741   -2.5806    1.2533 H   0  0  0  0  0  0  0  0  0  0  0  0
   -4.8279   -0.8444    1.8128 H   0  0  0  0  0  0  0  0  0  0  0  0
   -6.8196    0.2851    0.9820 H   0  0  0  0  0  0  0  0  0  0  0  0
   -6.3244    0.0863   -0.6908 H   0  0  0  0  0  0  0  0  0  0  0  0
   -6.6088   -2.2241    1.0019 H   0  0  0  0  0  0  0  0  0  0  0  0
   -4.4620   -2.0499   -1.7682 H   0  0  0  0  0  0  0  0  0  0  0  0
   -4.9771   -0.3465   -1.7309 H   0  0  0  0  0  0  0  0  0  0  0  0
   -3.2978   -0.7595   -2.1526 H   0  0  0  0  0  0  0  0  0  0  0  0
   -0.4864   -2.3546   -2.0170 H   0  0  0  0  0  0  0  0  0  0  0  0
   -2.1507   -1.7235   -2.0105 H   0  0  0  0  0  0  0  0  0  0  0  0
   -0.8131   -0.7001   -2.5865 H   0  0  0  0  0  0  0  0  0  0  0  0
    0.8920   -2.2824   -1.8855 H   0  0  0  0  0  0  0  0  0  0  0  0
    0.5099   -0.6466   -2.4741 H   0  0  0  0  0  0  0  0  0  0  0  0
    2.1372   -1.0109   -1.8516 H   0  0  0  0  0  0  0  0  0  0  0  0
    6.5558   -1.4929   -0.1728 H   0  0  0  0  0  0  0  0  0  0  0  0
    5.1243   -2.4380    0.3025 H   0  0  0  0  0  0  0  0  0  0  0  0
    5.2108   -1.7082   -1.3186 H   0  0  0  0  0  0  0  0  0  0  0  0
    4.9422    0.8427    2.0950 H   0  0  0  0  0  0  0  0  0  0  0  0
    4.7587   -0.9120    2.3302 H   0  0  0  0  0  0  0  0  0  0  0  0
    7.0035   -0.1924    2.7155 H   0  0  0  0  0  0  0  0  0  0  0  0
    5.7092    1.1271   -2.5545 H   0  0  0  0  0  0  0  0  0  0  0  0
    2.3110    0.6212    2.3722 H   0  0  0  0  0  0  0  0  0  0  0  0
    3.6050    1.7327    1.8641 H   0  0  0  0  0  0  0  0  0  0  0  0
    1.9028    2.2434    1.7637 H   0  0  0  0  0  0  0  0  0  0  0  0
   -5.5729    3.6079   -0.2716 H   0  0  0  0  0  0  0  0  0  0  0  0
   -6.1701    2.3532   -1.3840 H   0  0  0  0  0  0  0  0  0  0  0  0
   -7.0509    2.6984    0.1238 H   0  0  0  0  0  0  0  0  0  0  0  0
  1  2  1  0  0  0  0
  2  3  1  0  0  0  0
  3  4  1  0  0  0  0
  4  5  1  0  0  0  0
  5  6  2  0  0  0  0
  6  7  1  0  0  0  0
  7  8  1  0  0  0  0
  8  9  1  0  0  0  0
  9 10  1  0  0  0  0
 10 11  1  0  0  0  0
 11 12  1  0  0  0  0
 12 13  1  0  0  0  0
 13 14  1  0  0  0  0
  9 14  1  0  0  0  0
 14 15  1  0  0  0  0
 15 16  1  0  0  0  0
 16 17  1  0  0  0  0
  8 17  1  0  0  0  0
 17 18  1  0  0  0  0
  5 18  1  0  0  0  0
 18 19  1  0  0  0  0
 19 20  1  0  0  0  0
 20 21  1  0  0  0  0
  4 21  1  0  0  0  0
 21 22  1  0  0  0  0
 22 23  1  0  0  0  0
  2 23  1  0  0  0  0
 22 24  1  0  0  0  0
 21 25  1  0  0  0  0
 18 26  1  0  0  0  0
 17 27  1  0  0  0  0
 13 28  1  0  0  0  0
 13 29  1  0  0  0  0
 29 30  1  0  0  0  0
 12 31  1  0  0  0  0
  9 32  1  0  0  0  0
  2 33  1  0  0  0  0
  1 34  1  0  0  0  0
  1 35  1  0  0  0  0
  1 36  1  0  0  0  0
  3 37  1  0  0  0  0
  3 38  1  0  0  0  0
  4 39  1  0  0  0  0
  6 40  1  0  0  0  0
  7 41  1  0  0  0  0
  7 42  1  0  0  0  0
  8 43  1  0  0  0  0
 10 44  1  0  0  0  0
 10 45  1  0  0  0  0
 11 46  1  0  0  0  0
 11 47  1  0  0  0  0
 12 48  1  0  0  0  0
 14 49  1  0  0  0  0
 15 50  1  0  0  0  0
 15 51  1  0  0  0  0
 16 52  1  0  0  0  0
 16 53  1  0  0  0  0
 19 54  1  0  0  0  0
 19 55  1  0  0  0  0
 20 56  1  0  0  0  0
 20 57  1  0  0  0  0
 22 58  1  0  0  0  0
 23 59  1  0  0  0  0
 23 60  1  0  0  0  0
 24 61  1  0  0  0  0
 25 62  1  0  0  0  0
 25 63  1  0  0  0  0
 25 64  1  0  0  0  0
 26 65  1  0  0  0  0
 26 66  1  0  0  0  0
 26 67  1  0  0  0  0
 27 68  1  0  0  0  0
 27 69  1  0  0  0  0
 27 70  1  0  0  0  0
 28 71  1  0  0  0  0
 28 72  1  0  0  0  0
 28 73  1  0  0  0  0
 29 74  1  0  0  0  0
 29 75  1  0  0  0  0
 30 76  1  0  0  0  0
 31 77  1  0  0  0  0
 32 78  1  0  0  0  0
 32 79  1  0  0  0  0
 32 80  1  0  0  0  0
 33 81  1  0  0  0  0
 33 82  1  0  0  0  0
 33 83  1  0  0  0  0
M  END
$$$$
