H6Te
APtclcactv06211806363D 0   0.00000     0.00000
 
  7  6  0  0  0  0  0  0  0  0999 V2000
   -0.0000    0.0000    0.0000 Te  0  0  0  0  0  0  0  0  0  0  0  0
   -1.2587   -0.0000    1.2587 H   0  0  0  0  0  0  0  0  0  0  0  0
    1.2587    0.0000   -1.2587 H   0  0  0  0  0  0  0  0  0  0  0  0
    1.2587   -0.0000    1.2587 H   0  0  0  0  0  0  0  0  0  0  0  0
   -1.2587    0.0000   -1.2587 H   0  0  0  0  0  0  0  0  0  0  0  0
   -0.0000   -1.7800   -0.0000 H   0  0  0  0  0  0  0  0  0  0  0  0
    0.0000    1.7800   -0.0000 H   0  0  0  0  0  0  0  0  0  0  0  0
  1  2  1  0  0  0  0
  1  3  1  0  0  0  0
  1  4  1  0  0  0  0
  1  5  1  0  0  0  0
  1  6  1  0  0  0  0
  1  7  1  0  0  0  0
M  CHG  1   1   4
M  END
$$$$
