C7H13NO2
APtclcactv06211806363D 0   0.00000     0.00000
 
 23 23  0  0  0  0  0  0  0  0999 V2000
   -0.0430    1.5293    0.8908 C   0  0  0  0  0  0  0  0  0  0  0  0
    0.7291    0.6792   -0.0252 N   0  3  0  0  0  0  0  0  0  0  0  0
    1.8044   -0.0082    0.7212 C   0  0  0  0  0  0  0  0  0  0  0  0
    1.9076   -1.4083    0.0666 C   0  0  0  0  0  0  0  0  0  0  0  0
    0.4195   -1.7210   -0.2408 C   0  0  0  0  0  0  0  0  0  0  0  0
   -0.1547   -0.3398   -0.6203 C   0  0  0  0  0  0  0  0  0  0  0  0
   -1.5492   -0.1949   -0.0676 C   0  0  0  0  0  0  0  0  0  0  0  0
   -1.7325   -0.2162    1.1376 O   0  0  0  0  0  0  0  0  0  0  0  0
   -2.4941   -0.0564   -0.8256 O   0  5  0  0  0  0  0  0  0  0  0  0
    1.3157    1.5036   -1.0902 C   0  0  0  0  0  0  0  0  0  0  0  0
    0.5672    2.3776    1.2007 H   0  0  0  0  0  0  0  0  0  0  0  0
   -0.9375    1.8910    0.3838 H   0  0  0  0  0  0  0  0  0  0  0  0
   -0.3317    0.9499    1.7678 H   0  0  0  0  0  0  0  0  0  0  0  0
    2.7455    0.5312    0.6138 H   0  0  0  0  0  0  0  0  0  0  0  0
    1.5367   -0.1002    1.7738 H   0  0  0  0  0  0  0  0  0  0  0  0
    2.4957   -1.3683   -0.8504 H   0  0  0  0  0  0  0  0  0  0  0  0
    2.3235   -2.1357    0.7638 H   0  0  0  0  0  0  0  0  0  0  0  0
    0.3363   -2.4158   -1.0766 H   0  0  0  0  0  0  0  0  0  0  0  0
   -0.0815   -2.1172    0.6424 H   0  0  0  0  0  0  0  0  0  0  0  0
   -0.1701   -0.2298   -1.7047 H   0  0  0  0  0  0  0  0  0  0  0  0
    1.9637    2.2606   -0.6485 H   0  0  0  0  0  0  0  0  0  0  0  0
    1.8993    0.8713   -1.7594 H   0  0  0  0  0  0  0  0  0  0  0  0
    0.5193    1.9905   -1.6531 H   0  0  0  0  0  0  0  0  0  0  0  0
  1  2  1  0  0  0  0
  2  3  1  0  0  0  0
  3  4  1  0  0  0  0
  4  5  1  0  0  0  0
  5  6  1  0  0  0  0
  2  6  1  0  0  0  0
  6  7  1  0  0  0  0
  7  8  2  0  0  0  0
  7  9  1  0  0  0  0
  2 10  1  0  0  0  0
  1 11  1  0  0  0  0
  1 12  1  0  0  0  0
  1 13  1  0  0  0  0
  3 14  1  0  0  0  0
  3 15  1  0  0  0  0
  4 16  1  0  0  0  0
  4 17  1  0  0  0  0
  5 18  1  0  0  0  0
  5 19  1  0  0  0  0
  6 20  1  0  0  0  0
 10 21  1  0  0  0  0
 10 22  1  0  0  0  0
 10 23  1  0  0  0  0
M  CHG  2   2   1   9  -1
M  END
$$$$
