C7H12O
APtclcactv06211806023D 0   0.00000     0.00000
 
 20 20  0  0  0  0  0  0  0  0999 V2000
    2.8153    0.0000   -0.2217 C   0  0  0  0  0  0  0  0  0  0  0  0
    1.3764    0.0000    0.2984 C   0  0  0  0  0  0  0  0  0  0  0  0
    0.6544    1.2516   -0.2035 C   0  0  0  0  0  0  0  0  0  0  0  0
   -0.7566    1.2987    0.3923 C   0  0  0  0  0  0  0  0  0  0  0  0
   -1.4601   -0.0000    0.0656 C   0  0  0  0  0  0  0  0  0  0  0  0
   -2.5552   -0.0000   -0.4433 O   0  0  0  0  0  0  0  0  0  0  0  0
   -0.7565   -1.2987    0.3922 C   0  0  0  0  0  0  0  0  0  0  0  0
    0.6544   -1.2516   -0.2035 C   0  0  0  0  0  0  0  0  0  0  0  0
    3.3326    0.8884    0.1406 H   0  0  0  0  0  0  0  0  0  0  0  0
    3.3308   -0.8915    0.1354 H   0  0  0  0  0  0  0  0  0  0  0  0
    2.8076    0.0032   -1.3117 H   0  0  0  0  0  0  0  0  0  0  0  0
    1.3852   -0.0006    1.3883 H   0  0  0  0  0  0  0  0  0  0  0  0
    1.2084    2.1386    0.1035 H   0  0  0  0  0  0  0  0  0  0  0  0
    0.5890    1.2220   -1.2911 H   0  0  0  0  0  0  0  0  0  0  0  0
   -0.6935    1.4189    1.4738 H   0  0  0  0  0  0  0  0  0  0  0  0
   -1.3088    2.1331   -0.0400 H   0  0  0  0  0  0  0  0  0  0  0  0
   -0.6935   -1.4189    1.4738 H   0  0  0  0  0  0  0  0  0  0  0  0
   -1.3088   -2.1330   -0.0401 H   0  0  0  0  0  0  0  0  0  0  0  0
    0.5890   -1.2219   -1.2912 H   0  0  0  0  0  0  0  0  0  0  0  0
    1.2085   -2.1386    0.1035 H   0  0  0  0  0  0  0  0  0  0  0  0
  1  2  1  0  0  0  0
  2  3  1  0  0  0  0
  3  4  1  0  0  0  0
  4  5  1  0  0  0  0
  5  6  2  0  0  0  0
  5  7  1  0  0  0  0
  7  8  1  0  0  0  0
  2  8  1  0  0  0  0
  1  9  1  0  0  0  0
  1 10  1  0  0  0  0
  1 11  1  0  0  0  0
  2 12  1  0  0  0  0
  3 13  1  0  0  0  0
  3 14  1  0  0  0  0
  4 15  1  0  0  0  0
  4 16  1  0  0  0  0
  7 17  1  0  0  0  0
  7 18  1  0  0  0  0
  8 19  1  0  0  0  0
  8 20  1  0  0  0  0
M  END
$$$$
