C16H12O4
APtclcactv06281817333D 0   0.00000     0.00000
 
 32 34  0  0  0  0  0  0  0  0999 V2000
    5.0218    0.1165   -0.0028 C   0  0  0  0  0  0  0  0  0  0  0  0
    3.5264    0.3028   -0.0178 C   0  0  0  0  0  0  0  0  0  0  0  0
    2.9877    1.5806   -0.1191 C   0  0  0  0  0  0  0  0  0  0  0  0
    1.6141    1.7695   -0.1337 C   0  0  0  0  0  0  0  0  0  0  0  0
    0.7630    0.6791   -0.0470 C   0  0  0  0  0  0  0  0  0  0  0  0
    1.3051   -0.6141    0.0551 C   0  0  0  0  0  0  0  0  0  0  0  0
    2.6933   -0.7979    0.0636 C   0  0  0  0  0  0  0  0  0  0  0  0
    3.2172   -2.0460    0.1621 O   0  0  0  0  0  0  0  0  0  0  0  0
    0.3816   -1.7574    0.1461 C   0  0  0  0  0  0  0  0  0  0  0  0
    0.7959   -2.9015    0.2368 O   0  0  0  0  0  0  0  0  0  0  0  0
   -1.0066   -1.4767    0.1247 C   0  0  0  0  0  0  0  0  0  0  0  0
   -1.4282   -0.1889    0.0230 C   0  0  0  0  0  0  0  0  0  0  0  0
   -0.5765    0.8453   -0.0589 O   0  0  0  0  0  0  0  0  0  0  0  0
   -2.8796    0.0833    0.0023 C   0  0  0  0  0  0  0  0  0  0  0  0
   -3.3968    1.1835    0.6896 C   0  0  0  0  0  0  0  0  0  0  0  0
   -4.7533    1.4321    0.6656 C   0  0  0  0  0  0  0  0  0  0  0  0
   -5.6012    0.5944   -0.0373 C   0  0  0  0  0  0  0  0  0  0  0  0
   -5.0955   -0.4974   -0.7206 C   0  0  0  0  0  0  0  0  0  0  0  0
   -3.7404   -0.7549   -0.7095 C   0  0  0  0  0  0  0  0  0  0  0  0
    3.8146    2.6538   -0.2040 O   0  0  0  0  0  0  0  0  0  0  0  0
    5.3822    0.1528    1.0252 H   0  0  0  0  0  0  0  0  0  0  0  0
    5.2720   -0.8493   -0.4417 H   0  0  0  0  0  0  0  0  0  0  0  0
    5.4927    0.9114   -0.5812 H   0  0  0  0  0  0  0  0  0  0  0  0
    1.2072    2.7668   -0.2124 H   0  0  0  0  0  0  0  0  0  0  0  0
    3.3650   -2.4788   -0.6899 H   0  0  0  0  0  0  0  0  0  0  0  0
   -1.7249   -2.2806    0.1884 H   0  0  0  0  0  0  0  0  0  0  0  0
   -2.7362    1.8379    1.2390 H   0  0  0  0  0  0  0  0  0  0  0  0
   -5.1547    2.2823    1.1970 H   0  0  0  0  0  0  0  0  0  0  0  0
   -6.6625    0.7935   -0.0525 H   0  0  0  0  0  0  0  0  0  0  0  0
   -5.7629   -1.1474   -1.2670 H   0  0  0  0  0  0  0  0  0  0  0  0
   -3.3470   -1.6074   -1.2432 H   0  0  0  0  0  0  0  0  0  0  0  0
    4.0542    2.8950   -1.1092 H   0  0  0  0  0  0  0  0  0  0  0  0
  1  2  1  0  0  0  0
  2  3  2  0  0  0  0
  3  4  1  0  0  0  0
  4  5  2  0  0  0  0
  5  6  1  0  0  0  0
  6  7  2  0  0  0  0
  2  7  1  0  0  0  0
  7  8  1  0  0  0  0
  6  9  1  0  0  0  0
  9 10  2  0  0  0  0
  9 11  1  0  0  0  0
 11 12  2  0  0  0  0
 12 13  1  0  0  0  0
  5 13  1  0  0  0  0
 12 14  1  0  0  0  0
 14 15  2  0  0  0  0
 15 16  1  0  0  0  0
 16 17  2  0  0  0  0
 17 18  1  0  0  0  0
 18 19  2  0  0  0  0
 14 19  1  0  0  0  0
  3 20  1  0  0  0  0
  1 21  1  0  0  0  0
  1 22  1  0  0  0  0
  1 23  1  0  0  0  0
  4 24  1  0  0  0  0
  8 25  1  0  0  0  0
 11 26  1  0  0  0  0
 15 27  1  0  0  0  0
 16 28  1  0  0  0  0
 17 29  1  0  0  0  0
 18 30  1  0  0  0  0
 19 31  1  0  0  0  0
 20 32  1  0  0  0  0
M  END
$$$$
