C5H10O
APtclcactv06211806023D 0   0.00000     0.00000
 
 16 15  0  0  0  0  0  0  0  0999 V2000
    2.2692   -0.6228   -0.1623 C   0  0  0  0  0  0  0  0  0  0  0  0
    0.9721   -0.0064    0.3654 C   0  0  0  0  0  0  0  0  0  0  0  0
    0.8855    1.4557   -0.0768 C   0  0  0  0  0  0  0  0  0  0  0  0
   -0.2241   -0.7798   -0.1928 C   0  0  0  0  0  0  0  0  0  0  0  0
   -1.4948   -0.2519    0.4219 C   0  0  0  0  0  0  0  0  0  0  0  0
   -2.3937    0.1330   -0.2866 O   0  0  0  0  0  0  0  0  0  0  0  0
    3.1215   -0.0718    0.2354 H   0  0  0  0  0  0  0  0  0  0  0  0
    2.3309   -1.6645    0.1528 H   0  0  0  0  0  0  0  0  0  0  0  0
    2.2793   -0.5713   -1.2510 H   0  0  0  0  0  0  0  0  0  0  0  0
    0.9620   -0.0579    1.4542 H   0  0  0  0  0  0  0  0  0  0  0  0
    0.8956    1.5072   -1.1656 H   0  0  0  0  0  0  0  0  0  0  0  0
   -0.0386    1.8949    0.2991 H   0  0  0  0  0  0  0  0  0  0  0  0
    1.7378    2.0067    0.3209 H   0  0  0  0  0  0  0  0  0  0  0  0
   -0.2648   -0.6547   -1.2749 H   0  0  0  0  0  0  0  0  0  0  0  0
   -0.1167   -1.8377    0.0468 H   0  0  0  0  0  0  0  0  0  0  0  0
   -1.6014   -0.2179    1.4961 H   0  0  0  0  0  0  0  0  0  0  0  0
  1  2  1  0  0  0  0
  2  3  1  0  0  0  0
  2  4  1  0  0  0  0
  4  5  1  0  0  0  0
  5  6  2  0  0  0  0
  1  7  1  0  0  0  0
  1  8  1  0  0  0  0
  1  9  1  0  0  0  0
  2 10  1  0  0  0  0
  3 11  1  0  0  0  0
  3 12  1  0  0  0  0
  3 13  1  0  0  0  0
  4 14  1  0  0  0  0
  4 15  1  0  0  0  0
  5 16  1  0  0  0  0
M  END
$$$$
