C18H21N5O5
APtclcactv06281817333D 0   0.00000     0.00000
 
 49 52  0  0  0  0  0  0  0  0999 V2000
   -7.6699   -1.3675   -0.6931 C   0  0  0  0  0  0  0  0  0  0  0  0
   -7.3316   -1.0033    0.5967 C   0  0  0  0  0  0  0  0  0  0  0  0
   -6.2116   -0.2256    0.8241 C   0  0  0  0  0  0  0  0  0  0  0  0
   -5.4296    0.1874   -0.2384 C   0  0  0  0  0  0  0  0  0  0  0  0
   -5.7674   -0.1776   -1.5282 C   0  0  0  0  0  0  0  0  0  0  0  0
   -6.8882   -0.9541   -1.7557 C   0  0  0  0  0  0  0  0  0  0  0  0
   -4.2091    1.0360    0.0094 C   0  0  0  0  0  0  0  0  0  0  0  0
   -3.0450    0.1699    0.2118 N   0  0  0  0  0  0  0  0  0  0  0  0
   -1.8024    0.7271    0.4578 C   0  0  0  0  0  0  0  0  0  0  0  0
   -1.6476    2.0457    0.5137 N   0  0  0  0  0  0  0  0  0  0  0  0
   -0.4655    2.5863    0.7480 C   0  0  0  0  0  0  0  0  0  0  0  0
    0.6173    1.8625    0.9374 N   0  0  0  0  0  0  0  0  0  0  0  0
    0.5601    0.5350    0.8997 C   0  0  0  0  0  0  0  0  0  0  0  0
   -0.6759   -0.0886    0.6601 C   0  0  0  0  0  0  0  0  0  0  0  0
   -0.4576   -1.4255    0.6727 N   0  0  0  0  0  0  0  0  0  0  0  0
    0.8029   -1.6565    0.8994 C   0  0  0  0  0  0  0  0  0  0  0  0
    1.4722   -0.4786    1.0511 N   0  0  0  0  0  0  0  0  0  0  0  0
    2.9043   -0.3235    1.3179 C   0  0  0  0  0  0  0  0  0  0  0  0
    3.6518   -1.5682    0.8326 C   0  0  0  0  0  0  0  0  0  0  0  0
    3.4732   -1.7032   -0.6827 C   0  0  0  0  0  0  0  0  0  0  0  0
    3.9731   -0.4238   -1.3606 C   0  0  0  0  0  0  0  0  0  0  0  0
    3.2132    0.7768   -0.7906 C   0  0  0  0  0  0  0  0  0  0  0  0
    3.3962    0.8260    0.6258 O   0  0  0  0  0  0  0  0  0  0  0  0
    3.7487    2.0648   -1.4193 C   0  0  0  0  0  0  0  0  0  0  0  0
    2.9633    3.1734   -0.9761 O   0  0  0  0  0  0  0  0  0  0  0  0
    5.3713   -0.2661   -1.1110 O   0  0  0  0  0  0  0  0  0  0  0  0
    4.2279   -2.8208   -1.1553 O   0  0  0  0  0  0  0  0  0  0  0  0
    5.0415   -1.4409    1.1403 O   0  0  0  0  0  0  0  0  0  0  0  0
   -8.5425   -1.9788   -0.8704 H   0  0  0  0  0  0  0  0  0  0  0  0
   -7.9425   -1.3259    1.4268 H   0  0  0  0  0  0  0  0  0  0  0  0
   -5.9476    0.0596    1.8318 H   0  0  0  0  0  0  0  0  0  0  0  0
   -5.1569    0.1456   -2.3583 H   0  0  0  0  0  0  0  0  0  0  0  0
   -7.1524   -1.2390   -2.7634 H   0  0  0  0  0  0  0  0  0  0  0  0
   -4.0356    1.6828   -0.8507 H   0  0  0  0  0  0  0  0  0  0  0  0
   -4.3660    1.6474    0.8980 H   0  0  0  0  0  0  0  0  0  0  0  0
   -3.1453   -0.7942    0.1733 H   0  0  0  0  0  0  0  0  0  0  0  0
   -0.3844    3.6626    0.7851 H   0  0  0  0  0  0  0  0  0  0  0  0
    1.2518   -2.6368    0.9617 H   0  0  0  0  0  0  0  0  0  0  0  0
    3.0630   -0.1986    2.3890 H   0  0  0  0  0  0  0  0  0  0  0  0
    3.2478   -2.4516    1.3271 H   0  0  0  0  0  0  0  0  0  0  0  0
    2.4182   -1.8500   -0.9139 H   0  0  0  0  0  0  0  0  0  0  0  0
    3.7989   -0.4886   -2.4346 H   0  0  0  0  0  0  0  0  0  0  0  0
    2.1517    0.6758   -1.0167 H   0  0  0  0  0  0  0  0  0  0  0  0
    4.7862    2.2115   -1.1192 H   0  0  0  0  0  0  0  0  0  0  0  0
    3.6916    1.9901   -2.5052 H   0  0  0  0  0  0  0  0  0  0  0  0
    3.2468    4.0250   -1.3360 H   0  0  0  0  0  0  0  0  0  0  0  0
    5.9145   -0.9946   -1.4418 H   0  0  0  0  0  0  0  0  0  0  0  0
    4.1608   -2.9657   -2.1090 H   0  0  0  0  0  0  0  0  0  0  0  0
    5.5770   -2.1959    0.8604 H   0  0  0  0  0  0  0  0  0  0  0  0
  1  2  2  0  0  0  0
  2  3  1  0  0  0  0
  3  4  2  0  0  0  0
  4  5  1  0  0  0  0
  5  6  2  0  0  0  0
  1  6  1  0  0  0  0
  4  7  1  0  0  0  0
  7  8  1  0  0  0  0
  8  9  1  0  0  0  0
  9 10  2  0  0  0  0
 10 11  1  0  0  0  0
 11 12  2  0  0  0  0
 12 13  1  0  0  0  0
 13 14  2  0  0  0  0
  9 14  1  0  0  0  0
 14 15  1  0  0  0  0
 15 16  2  0  0  0  0
 16 17  1  0  0  0  0
 13 17  1  0  0  0  0
 17 18  1  0  0  0  0
 18 19  1  0  0  0  0
 19 20  1  0  0  0  0
 20 21  1  0  0  0  0
 21 22  1  0  0  0  0
 22 23  1  0  0  0  0
 18 23  1  0  0  0  0
 22 24  1  0  0  0  0
 24 25  1  0  0  0  0
 21 26  1  0  0  0  0
 20 27  1  0  0  0  0
 19 28  1  0  0  0  0
  1 29  1  0  0  0  0
  2 30  1  0  0  0  0
  3 31  1  0  0  0  0
  5 32  1  0  0  0  0
  6 33  1  0  0  0  0
  7 34  1  0  0  0  0
  7 35  1  0  0  0  0
  8 36  1  0  0  0  0
 11 37  1  0  0  0  0
 16 38  1  0  0  0  0
 18 39  1  0  0  0  0
 19 40  1  0  0  0  0
 20 41  1  0  0  0  0
 21 42  1  0  0  0  0
 22 43  1  0  0  0  0
 24 44  1  0  0  0  0
 24 45  1  0  0  0  0
 25 46  1  0  0  0  0
 26 47  1  0  0  0  0
 27 48  1  0  0  0  0
 28 49  1  0  0  0  0
M  END
$$$$
