C15H12O6
APtclcactv06281817333D 0   0.00000     0.00000
 
 33 35  0  0  0  0  0  0  0  0999 V2000
    3.2886    3.2222   -0.1404 C   0  0  0  0  0  0  0  0  0  0  0  0
    3.5329    1.8182   -0.2459 O   0  0  0  0  0  0  0  0  0  0  0  0
    2.4564    0.9961   -0.1487 C   0  0  0  0  0  0  0  0  0  0  0  0
    2.6316   -0.3827   -0.2438 C   0  0  0  0  0  0  0  0  0  0  0  0
    1.5363   -1.2269   -0.1502 C   0  0  0  0  0  0  0  0  0  0  0  0
    0.2600   -0.6814    0.0356 C   0  0  0  0  0  0  0  0  0  0  0  0
    0.0858    0.7104    0.1428 C   0  0  0  0  0  0  0  0  0  0  0  0
    1.1960    1.5376    0.0497 C   0  0  0  0  0  0  0  0  0  0  0  0
   -1.1361    1.2447    0.3456 O   0  0  0  0  0  0  0  0  0  0  0  0
   -2.2660    0.5389    0.1357 C   0  0  0  0  0  0  0  0  0  0  0  0
   -2.2366   -0.8575    0.0161 C   0  0  0  0  0  0  0  0  0  0  0  0
   -0.9306   -1.5460    0.1149 C   0  0  0  0  0  0  0  0  0  0  0  0
   -0.8450   -2.7529    0.2525 O   0  0  0  0  0  0  0  0  0  0  0  0
   -3.4131   -1.5756   -0.1946 C   0  0  0  0  0  0  0  0  0  0  0  0
   -4.6135   -0.9058   -0.2901 C   0  0  0  0  0  0  0  0  0  0  0  0
   -4.6514    0.4758   -0.1773 C   0  0  0  0  0  0  0  0  0  0  0  0
   -3.4926    1.1988    0.0345 C   0  0  0  0  0  0  0  0  0  0  0  0
   -3.5467    2.5532    0.1432 O   0  0  0  0  0  0  0  0  0  0  0  0
    1.6994   -2.5721   -0.2383 O   0  0  0  0  0  0  0  0  0  0  0  0
    3.8773   -0.9004   -0.4289 O   0  0  0  0  0  0  0  0  0  0  0  0
    4.6306   -1.2137    0.7443 C   0  0  0  0  0  0  0  0  0  0  0  0
    2.6098    3.5335   -0.9344 H   0  0  0  0  0  0  0  0  0  0  0  0
    2.8395    3.4411    0.8283 H   0  0  0  0  0  0  0  0  0  0  0  0
    4.2303    3.7629   -0.2348 H   0  0  0  0  0  0  0  0  0  0  0  0
    1.0764    2.6084    0.1238 H   0  0  0  0  0  0  0  0  0  0  0  0
   -3.3836   -2.6516   -0.2829 H   0  0  0  0  0  0  0  0  0  0  0  0
   -5.5270   -1.4581   -0.4535 H   0  0  0  0  0  0  0  0  0  0  0  0
   -5.5965    0.9925   -0.2557 H   0  0  0  0  0  0  0  0  0  0  0  0
   -3.6753    2.8703    1.0477 H   0  0  0  0  0  0  0  0  0  0  0  0
    1.8555   -3.0059    0.6117 H   0  0  0  0  0  0  0  0  0  0  0  0
    5.6013   -1.6171    0.4559 H   0  0  0  0  0  0  0  0  0  0  0  0
    4.7741   -0.3097    1.3362 H   0  0  0  0  0  0  0  0  0  0  0  0
    4.0910   -1.9534    1.3357 H   0  0  0  0  0  0  0  0  0  0  0  0
  1  2  1  0  0  0  0
  2  3  1  0  0  0  0
  3  4  2  0  0  0  0
  4  5  1  0  0  0  0
  5  6  2  0  0  0  0
  6  7  1  0  0  0  0
  7  8  2  0  0  0  0
  3  8  1  0  0  0  0
  7  9  1  0  0  0  0
  9 10  1  0  0  0  0
 10 11  2  0  0  0  0
 11 12  1  0  0  0  0
  6 12  1  0  0  0  0
 12 13  2  0  0  0  0
 11 14  1  0  0  0  0
 14 15  2  0  0  0  0
 15 16  1  0  0  0  0
 16 17  2  0  0  0  0
 10 17  1  0  0  0  0
 17 18  1  0  0  0  0
  5 19  1  0  0  0  0
  4 20  1  0  0  0  0
 20 21  1  0  0  0  0
  1 22  1  0  0  0  0
  1 23  1  0  0  0  0
  1 24  1  0  0  0  0
  8 25  1  0  0  0  0
 14 26  1  0  0  0  0
 15 27  1  0  0  0  0
 16 28  1  0  0  0  0
 18 29  1  0  0  0  0
 19 30  1  0  0  0  0
 21 31  1  0  0  0  0
 21 32  1  0  0  0  0
 21 33  1  0  0  0  0
M  END
$$$$
