C8H18
APtclcactv06201821353D 0   0.00000     0.00000
 
 26 25  0  0  0  0  0  0  0  0999 V2000
    4.0913    0.1916   -0.2094 C   0  0  0  0  0  0  0  0  0  0  0  0
    2.7895   -0.4398    0.2883 C   0  0  0  0  0  0  0  0  0  0  0  0
    1.6018    0.4022   -0.1822 C   0  0  0  0  0  0  0  0  0  0  0  0
    0.3001   -0.2291    0.3155 C   0  0  0  0  0  0  0  0  0  0  0  0
   -0.8876    0.6129   -0.1550 C   0  0  0  0  0  0  0  0  0  0  0  0
   -2.1894   -0.0185    0.3427 C   0  0  0  0  0  0  0  0  0  0  0  0
   -3.3672    0.8881   -0.0202 C   0  0  0  0  0  0  0  0  0  0  0  0
   -2.3770   -1.3866   -0.3160 C   0  0  0  0  0  0  0  0  0  0  0  0
    4.1811    1.2017    0.1902 H   0  0  0  0  0  0  0  0  0  0  0  0
    4.9374   -0.4083    0.1258 H   0  0  0  0  0  0  0  0  0  0  0  0
    4.0827    0.2311   -1.2986 H   0  0  0  0  0  0  0  0  0  0  0  0
    2.6997   -1.4499   -0.1113 H   0  0  0  0  0  0  0  0  0  0  0  0
    2.7981   -0.4793    1.3775 H   0  0  0  0  0  0  0  0  0  0  0  0
    1.6917    1.4124    0.2174 H   0  0  0  0  0  0  0  0  0  0  0  0
    1.5933    0.4418   -1.2714 H   0  0  0  0  0  0  0  0  0  0  0  0
    0.2102   -1.2393   -0.0841 H   0  0  0  0  0  0  0  0  0  0  0  0
    0.3086   -0.2687    1.4047 H   0  0  0  0  0  0  0  0  0  0  0  0
   -0.7978    1.6230    0.2446 H   0  0  0  0  0  0  0  0  0  0  0  0
   -0.8962    0.6524   -1.2442 H   0  0  0  0  0  0  0  0  0  0  0  0
   -2.1440   -0.1395    1.4250 H   0  0  0  0  0  0  0  0  0  0  0  0
   -3.4126    1.0091   -1.1025 H   0  0  0  0  0  0  0  0  0  0  0  0
   -4.2946    0.4383    0.3344 H   0  0  0  0  0  0  0  0  0  0  0  0
   -3.2335    1.8628    0.4491 H   0  0  0  0  0  0  0  0  0  0  0  0
   -2.4224   -1.2657   -1.3983 H   0  0  0  0  0  0  0  0  0  0  0  0
   -1.5379   -2.0325   -0.0575 H   0  0  0  0  0  0  0  0  0  0  0  0
   -3.3044   -1.8365    0.0385 H   0  0  0  0  0  0  0  0  0  0  0  0
  1  2  1  0  0  0  0
  2  3  1  0  0  0  0
  3  4  1  0  0  0  0
  4  5  1  0  0  0  0
  5  6  1  0  0  0  0
  6  7  1  0  0  0  0
  6  8  1  0  0  0  0
  1  9  1  0  0  0  0
  1 10  1  0  0  0  0
  1 11  1  0  0  0  0
  2 12  1  0  0  0  0
  2 13  1  0  0  0  0
  3 14  1  0  0  0  0
  3 15  1  0  0  0  0
  4 16  1  0  0  0  0
  4 17  1  0  0  0  0
  5 18  1  0  0  0  0
  5 19  1  0  0  0  0
  6 20  1  0  0  0  0
  7 21  1  0  0  0  0
  7 22  1  0  0  0  0
  7 23  1  0  0  0  0
  8 24  1  0  0  0  0
  8 25  1  0  0  0  0
  8 26  1  0  0  0  0
M  END
$$$$
