C5H8O3
APtclcactv06211806023D 0   0.00000     0.00000
 
 16 15  0  0  0  0  0  0  0  0999 V2000
    3.1306   -0.7024   -0.0000 C   0  0  0  0  0  0  0  0  0  0  0  0
    1.8554    0.1006    0.0000 C   0  0  0  0  0  0  0  0  0  0  0  0
    1.9018    1.3073    0.0000 O   0  0  0  0  0  0  0  0  0  0  0  0
    0.5224   -0.6022   -0.0000 C   0  0  0  0  0  0  0  0  0  0  0  0
   -0.5442    0.3830   -0.0000 O   0  0  0  0  0  0  0  0  0  0  0  0
   -1.8034   -0.0821   -0.0000 C   0  0  0  0  0  0  0  0  0  0  0  0
   -2.0076   -1.2729    0.0000 O   0  0  0  0  0  0  0  0  0  0  0  0
   -2.9624    0.8811   -0.0000 C   0  0  0  0  0  0  0  0  0  0  0  0
    3.4381   -0.8960    1.0277 H   0  0  0  0  0  0  0  0  0  0  0  0
    2.9638   -1.6491   -0.5138 H   0  0  0  0  0  0  0  0  0  0  0  0
    3.9123   -0.1429   -0.5138 H   0  0  0  0  0  0  0  0  0  0  0  0
    0.4406   -1.2262   -0.8900 H   0  0  0  0  0  0  0  0  0  0  0  0
    0.4406   -1.2262    0.8900 H   0  0  0  0  0  0  0  0  0  0  0  0
   -3.2418    1.1134   -1.0277 H   0  0  0  0  0  0  0  0  0  0  0  0
   -3.8107    0.4289    0.5138 H   0  0  0  0  0  0  0  0  0  0  0  0
   -2.6730    1.7978    0.5138 H   0  0  0  0  0  0  0  0  0  0  0  0
  1  2  1  0  0  0  0
  2  3  2  0  0  0  0
  2  4  1  0  0  0  0
  4  5  1  0  0  0  0
  5  6  1  0  0  0  0
  6  7  2  0  0  0  0
  6  8  1  0  0  0  0
  1  9  1  0  0  0  0
  1 10  1  0  0  0  0
  1 11  1  0  0  0  0
  4 12  1  0  0  0  0
  4 13  1  0  0  0  0
  8 14  1  0  0  0  0
  8 15  1  0  0  0  0
  8 16  1  0  0  0  0
M  END
$$$$
