C17H16O5
APtclcactv06281817333D 0   0.00000     0.00000
 
 38 40  0  0  0  0  0  0  0  0999 V2000
    3.2902    2.4760    0.3873 C   0  0  0  0  0  0  0  0  0  0  0  0
    2.2966    1.4015    0.0278 C   0  0  0  0  0  0  0  0  0  0  0  0
    1.1194    1.7287   -0.4576 C   0  0  0  0  0  0  0  0  0  0  0  0
    0.1436    0.6794   -0.8109 C   0  0  0  0  0  0  0  0  0  0  0  0
    0.4610   -0.5867   -0.6638 C   0  0  0  0  0  0  0  0  0  0  0  0
   -0.4750   -1.6478   -1.0490 C   0  0  0  0  0  0  0  0  0  0  0  0
   -1.7572   -1.6177   -0.8732 C   0  0  0  0  0  0  0  0  0  0  0  0
   -2.5004   -0.5157   -0.2512 C   0  0  0  0  0  0  0  0  0  0  0  0
   -2.1664    0.7329   -0.4796 C   0  0  0  0  0  0  0  0  0  0  0  0
   -1.0900    1.0425   -1.2440 O   0  0  0  0  0  0  0  0  0  0  0  0
   -2.9703    1.8260    0.1030 C   0  0  0  0  0  0  0  0  0  0  0  0
   -3.9950    1.5525    0.8797 C   0  0  0  0  0  0  0  0  0  0  0  0
   -4.3426    0.1510    1.1708 C   0  0  0  0  0  0  0  0  0  0  0  0
   -3.6382   -0.8227    0.6377 C   0  0  0  0  0  0  0  0  0  0  0  0
   -3.9593   -2.1187    0.9063 O   0  0  0  0  0  0  0  0  0  0  0  0
    1.7783   -0.9527   -0.1067 C   0  0  0  0  0  0  0  0  0  0  0  0
    2.6448   -0.0177    0.2138 C   0  0  0  0  0  0  0  0  0  0  0  0
    3.8590   -0.3602    0.7270 O   0  0  0  0  0  0  0  0  0  0  0  0
    3.9556   -0.4671    2.1487 C   0  0  0  0  0  0  0  0  0  0  0  0
    2.0988   -2.2645    0.0711 O   0  0  0  0  0  0  0  0  0  0  0  0
    2.7890   -2.9144   -0.9981 C   0  0  0  0  0  0  0  0  0  0  0  0
    0.7990    3.0406   -0.6344 O   0  0  0  0  0  0  0  0  0  0  0  0
    3.1467    2.7704    1.4269 H   0  0  0  0  0  0  0  0  0  0  0  0
    4.3024    2.0941    0.2542 H   0  0  0  0  0  0  0  0  0  0  0  0
    3.1401    3.3406   -0.2593 H   0  0  0  0  0  0  0  0  0  0  0  0
   -0.0603   -2.5273   -1.5188 H   0  0  0  0  0  0  0  0  0  0  0  0
   -2.3254   -2.4715   -1.2115 H   0  0  0  0  0  0  0  0  0  0  0  0
   -2.7153    2.8537   -0.1096 H   0  0  0  0  0  0  0  0  0  0  0  0
   -4.5809    2.3544    1.3041 H   0  0  0  0  0  0  0  0  0  0  0  0
   -5.1745   -0.0763    1.8209 H   0  0  0  0  0  0  0  0  0  0  0  0
   -4.5940   -2.5033    0.2864 H   0  0  0  0  0  0  0  0  0  0  0  0
    4.9909   -0.6617    2.4289 H   0  0  0  0  0  0  0  0  0  0  0  0
    3.6244    0.4650    2.6065 H   0  0  0  0  0  0  0  0  0  0  0  0
    3.3253   -1.2861    2.4952 H   0  0  0  0  0  0  0  0  0  0  0  0
    3.0410   -3.9327   -0.7021 H   0  0  0  0  0  0  0  0  0  0  0  0
    2.1498   -2.9402   -1.8806 H   0  0  0  0  0  0  0  0  0  0  0  0
    3.7027   -2.3660   -1.2273 H   0  0  0  0  0  0  0  0  0  0  0  0
    1.0359    3.3895   -1.5047 H   0  0  0  0  0  0  0  0  0  0  0  0
  1  2  1  0  0  0  0
  2  3  2  0  0  0  0
  3  4  1  0  0  0  0
  4  5  2  0  0  0  0
  5  6  1  0  0  0  0
  6  7  2  0  0  0  0
  7  8  1  0  0  0  0
  8  9  2  0  0  0  0
  9 10  1  0  0  0  0
  4 10  1  0  0  0  0
  9 11  1  0  0  0  0
 11 12  2  0  0  0  0
 12 13  1  0  0  0  0
 13 14  2  0  0  0  0
  8 14  1  0  0  0  0
 14 15  1  0  0  0  0
  5 16  1  0  0  0  0
 16 17  2  0  0  0  0
  2 17  1  0  0  0  0
 17 18  1  0  0  0  0
 18 19  1  0  0  0  0
 16 20  1  0  0  0  0
 20 21  1  0  0  0  0
  3 22  1  0  0  0  0
  1 23  1  0  0  0  0
  1 24  1  0  0  0  0
  1 25  1  0  0  0  0
  6 26  1  0  0  0  0
  7 27  1  0  0  0  0
 11 28  1  0  0  0  0
 12 29  1  0  0  0  0
 13 30  1  0  0  0  0
 15 31  1  0  0  0  0
 19 32  1  0  0  0  0
 19 33  1  0  0  0  0
 19 34  1  0  0  0  0
 21 35  1  0  0  0  0
 21 36  1  0  0  0  0
 21 37  1  0  0  0  0
 22 38  1  0  0  0  0
M  END
$$$$
