C2H6Se
APtclcactv06211806023D 0   0.00000     0.00000
 
  9  8  0  0  0  0  0  0  0  0999 V2000
    1.5124   -0.8901   -0.0000 C   0  0  0  0  0  0  0  0  0  0  0  0
   -0.0000    0.3566    0.0000 Se  0  0  0  0  0  0  0  0  0  0  0  0
   -1.5124   -0.8901    0.0000 C   0  0  0  0  0  0  0  0  0  0  0  0
    1.4659   -1.5177    0.8900 H   0  0  0  0  0  0  0  0  0  0  0  0
    1.4659   -1.5177   -0.8900 H   0  0  0  0  0  0  0  0  0  0  0  0
    2.4464   -0.3282   -0.0000 H   0  0  0  0  0  0  0  0  0  0  0  0
   -1.4659   -1.5177   -0.8900 H   0  0  0  0  0  0  0  0  0  0  0  0
   -1.4659   -1.5177    0.8900 H   0  0  0  0  0  0  0  0  0  0  0  0
   -2.4464   -0.3282    0.0000 H   0  0  0  0  0  0  0  0  0  0  0  0
  1  2  1  0  0  0  0
  2  3  1  0  0  0  0
  1  4  1  0  0  0  0
  1  5  1  0  0  0  0
  1  6  1  0  0  0  0
  3  7  1  0  0  0  0
  3  8  1  0  0  0  0
  3  9  1  0  0  0  0
M  END
$$$$
