C16H12O5
APtclcactv06281817333D 0   0.00000     0.00000
 
 33 35  0  0  0  0  0  0  0  0999 V2000
    3.6404   -2.0766    0.6702 C   0  0  0  0  0  0  0  0  0  0  0  0
    2.5918   -1.0743    0.2614 C   0  0  0  0  0  0  0  0  0  0  0  0
    2.8131    0.2132    0.4199 C   0  0  0  0  0  0  0  0  0  0  0  0
    1.7884    1.1898    0.0176 C   0  0  0  0  0  0  0  0  0  0  0  0
    1.9892    2.3690    0.1714 O   0  0  0  0  0  0  0  0  0  0  0  0
    0.5159    0.7316   -0.5741 C   0  0  0  0  0  0  0  0  0  0  0  0
    0.2893   -0.5549   -0.7164 C   0  0  0  0  0  0  0  0  0  0  0  0
    1.3206   -1.5333   -0.3216 C   0  0  0  0  0  0  0  0  0  0  0  0
    1.1178   -2.7130   -0.4686 O   0  0  0  0  0  0  0  0  0  0  0  0
   -0.8988   -1.0009   -1.1977 O   0  0  0  0  0  0  0  0  0  0  0  0
   -2.0276   -0.7459   -0.4902 C   0  0  0  0  0  0  0  0  0  0  0  0
   -2.4514    0.4820   -0.3061 C   0  0  0  0  0  0  0  0  0  0  0  0
   -1.7484    1.6180   -0.9141 C   0  0  0  0  0  0  0  0  0  0  0  0
   -0.4635    1.7247   -1.0253 C   0  0  0  0  0  0  0  0  0  0  0  0
   -3.6505    0.7321    0.5175 C   0  0  0  0  0  0  0  0  0  0  0  0
   -4.3153   -0.2744    1.0405 C   0  0  0  0  0  0  0  0  0  0  0  0
   -3.8616   -1.6556    0.8030 C   0  0  0  0  0  0  0  0  0  0  0  0
   -2.7848   -1.8772    0.0823 C   0  0  0  0  0  0  0  0  0  0  0  0
   -4.0693    2.0095    0.7368 O   0  0  0  0  0  0  0  0  0  0  0  0
    3.9894    0.6415    0.9564 O   0  0  0  0  0  0  0  0  0  0  0  0
    4.8590    1.3866    0.1017 C   0  0  0  0  0  0  0  0  0  0  0  0
    3.5393   -2.2949    1.7333 H   0  0  0  0  0  0  0  0  0  0  0  0
    3.5091   -2.9942    0.0967 H   0  0  0  0  0  0  0  0  0  0  0  0
    4.6311   -1.6655    0.4763 H   0  0  0  0  0  0  0  0  0  0  0  0
   -2.3504    2.4280   -1.2987 H   0  0  0  0  0  0  0  0  0  0  0  0
   -0.0802    2.6215   -1.4895 H   0  0  0  0  0  0  0  0  0  0  0  0
   -5.1920   -0.0890    1.6432 H   0  0  0  0  0  0  0  0  0  0  0  0
   -4.4129   -2.4851    1.2204 H   0  0  0  0  0  0  0  0  0  0  0  0
   -2.4527   -2.8900   -0.0917 H   0  0  0  0  0  0  0  0  0  0  0  0
   -4.6957    2.3368    0.0768 H   0  0  0  0  0  0  0  0  0  0  0  0
    5.0594    0.8122   -0.8027 H   0  0  0  0  0  0  0  0  0  0  0  0
    4.3845    2.3309   -0.1653 H   0  0  0  0  0  0  0  0  0  0  0  0
    5.7965    1.5852    0.6212 H   0  0  0  0  0  0  0  0  0  0  0  0
  1  2  1  0  0  0  0
  2  3  2  0  0  0  0
  3  4  1  0  0  0  0
  4  5  2  0  0  0  0
  4  6  1  0  0  0  0
  6  7  2  0  0  0  0
  7  8  1  0  0  0  0
  2  8  1  0  0  0  0
  8  9  2  0  0  0  0
  7 10  1  0  0  0  0
 10 11  1  0  0  0  0
 11 12  2  0  0  0  0
 12 13  1  0  0  0  0
 13 14  2  0  0  0  0
  6 14  1  0  0  0  0
 12 15  1  0  0  0  0
 15 16  2  0  0  0  0
 16 17  1  0  0  0  0
 17 18  2  0  0  0  0
 11 18  1  0  0  0  0
 15 19  1  0  0  0  0
  3 20  1  0  0  0  0
 20 21  1  0  0  0  0
  1 22  1  0  0  0  0
  1 23  1  0  0  0  0
  1 24  1  0  0  0  0
 13 25  1  0  0  0  0
 14 26  1  0  0  0  0
 16 27  1  0  0  0  0
 17 28  1  0  0  0  0
 18 29  1  0  0  0  0
 19 30  1  0  0  0  0
 21 31  1  0  0  0  0
 21 32  1  0  0  0  0
 21 33  1  0  0  0  0
M  END
$$$$
