C23H24O6
APtclcactv06281817333D 0   0.00000     0.00000
 
 53 56  0  0  0  0  0  0  0  0999 V2000
    5.7467   -2.7203   -0.2833 C   0  0  0  0  0  0  0  0  0  0  0  0
    5.6689   -1.7956    0.9041 C   0  0  0  0  0  0  0  0  0  0  0  0
    5.3167   -0.5447    0.7383 C   0  0  0  0  0  0  0  0  0  0  0  0
    4.8688   -0.0614   -0.6170 C   0  0  0  0  0  0  0  0  0  0  0  0
    3.5200    0.5995   -0.4942 C   0  0  0  0  0  0  0  0  0  0  0  0
    3.4349    1.9630   -0.2374 C   0  0  0  0  0  0  0  0  0  0  0  0
    2.2020    2.5877   -0.1267 C   0  0  0  0  0  0  0  0  0  0  0  0
    1.0323    1.8549   -0.2686 C   0  0  0  0  0  0  0  0  0  0  0  0
    1.1186    0.4733   -0.5159 C   0  0  0  0  0  0  0  0  0  0  0  0
    2.3666   -0.1496   -0.6425 C   0  0  0  0  0  0  0  0  0  0  0  0
    2.4438   -1.4800   -0.8972 O   0  0  0  0  0  0  0  0  0  0  0  0
   -0.1314   -0.2987   -0.6355 C   0  0  0  0  0  0  0  0  0  0  0  0
   -0.1486   -1.4391   -1.0633 O   0  0  0  0  0  0  0  0  0  0  0  0
   -1.3623    0.3958   -0.2039 C   0  0  0  0  0  0  0  0  0  0  0  0
   -2.5537   -0.3128   -0.0161 C   0  0  0  0  0  0  0  0  0  0  0  0
   -2.5687   -1.7989   -0.2690 C   0  0  0  0  0  0  0  0  0  0  0  0
   -3.7919   -2.4257    0.4045 C   0  0  0  0  0  0  0  0  0  0  0  0
   -5.0239   -1.5886    0.0364 C   0  0  0  0  0  0  0  0  0  0  0  0
   -4.8650   -0.2851    0.5975 O   0  0  0  0  0  0  0  0  0  0  0  0
   -3.6839    0.3573    0.3934 C   0  0  0  0  0  0  0  0  0  0  0  0
   -3.6305    1.7398    0.6141 C   0  0  0  0  0  0  0  0  0  0  0  0
   -2.4562    2.4435    0.4257 C   0  0  0  0  0  0  0  0  0  0  0  0
   -1.3067    1.7809    0.0141 C   0  0  0  0  0  0  0  0  0  0  0  0
   -0.1633    2.4714   -0.1760 O   0  0  0  0  0  0  0  0  0  0  0  0
   -4.7479    2.3973    1.0181 O   0  0  0  0  0  0  0  0  0  0  0  0
   -5.1402   -1.4841   -1.4856 C   0  0  0  0  0  0  0  0  0  0  0  0
   -6.2827   -2.2454    0.6065 C   0  0  0  0  0  0  0  0  0  0  0  0
    4.5713    2.6909   -0.0931 O   0  0  0  0  0  0  0  0  0  0  0  0
    5.9964   -2.3098    2.2823 C   0  0  0  0  0  0  0  0  0  0  0  0
    6.4055   -2.2891   -1.0370 H   0  0  0  0  0  0  0  0  0  0  0  0
    6.1401   -3.6861    0.0335 H   0  0  0  0  0  0  0  0  0  0  0  0
    4.7506   -2.8543   -0.7052 H   0  0  0  0  0  0  0  0  0  0  0  0
    5.3473    0.1401    1.5728 H   0  0  0  0  0  0  0  0  0  0  0  0
    5.5916    0.6570   -1.0037 H   0  0  0  0  0  0  0  0  0  0  0  0
    4.7976   -0.9083   -1.2995 H   0  0  0  0  0  0  0  0  0  0  0  0
    2.1520    3.6482    0.0712 H   0  0  0  0  0  0  0  0  0  0  0  0
    2.4609   -1.6998   -1.8387 H   0  0  0  0  0  0  0  0  0  0  0  0
   -2.6114   -1.9836   -1.3423 H   0  0  0  0  0  0  0  0  0  0  0  0
   -1.6618   -2.2451    0.1391 H   0  0  0  0  0  0  0  0  0  0  0  0
   -3.9230   -3.4482    0.0504 H   0  0  0  0  0  0  0  0  0  0  0  0
   -3.6568   -2.4251    1.4861 H   0  0  0  0  0  0  0  0  0  0  0  0
   -2.4318    3.5091    0.5998 H   0  0  0  0  0  0  0  0  0  0  0  0
   -4.8508    2.4446    1.9784 H   0  0  0  0  0  0  0  0  0  0  0  0
   -5.2411   -2.4822   -1.9117 H   0  0  0  0  0  0  0  0  0  0  0  0
   -6.0163   -0.8889   -1.7430 H   0  0  0  0  0  0  0  0  0  0  0  0
   -4.2461   -1.0066   -1.8864 H   0  0  0  0  0  0  0  0  0  0  0  0
   -6.1999   -2.3087    1.6915 H   0  0  0  0  0  0  0  0  0  0  0  0
   -7.1554   -1.6480    0.3429 H   0  0  0  0  0  0  0  0  0  0  0  0
   -6.3895   -3.2475    0.1912 H   0  0  0  0  0  0  0  0  0  0  0  0
    4.9060    3.0656   -0.9193 H   0  0  0  0  0  0  0  0  0  0  0  0
    6.2655   -3.3643    2.2222 H   0  0  0  0  0  0  0  0  0  0  0  0
    6.8332   -1.7440    2.6918 H   0  0  0  0  0  0  0  0  0  0  0  0
    5.1273   -2.1929    2.9297 H   0  0  0  0  0  0  0  0  0  0  0  0
  1  2  1  0  0  0  0
  2  3  2  0  0  0  0
  3  4  1  0  0  0  0
  4  5  1  0  0  0  0
  5  6  2  0  0  0  0
  6  7  1  0  0  0  0
  7  8  2  0  0  0  0
  8  9  1  0  0  0  0
  9 10  2  0  0  0  0
  5 10  1  0  0  0  0
 10 11  1  0  0  0  0
  9 12  1  0  0  0  0
 12 13  2  0  0  0  0
 12 14  1  0  0  0  0
 14 15  2  0  0  0  0
 15 16  1  0  0  0  0
 16 17  1  0  0  0  0
 17 18  1  0  0  0  0
 18 19  1  0  0  0  0
 19 20  1  0  0  0  0
 15 20  1  0  0  0  0
 20 21  2  0  0  0  0
 21 22  1  0  0  0  0
 22 23  2  0  0  0  0
 14 23  1  0  0  0  0
 23 24  1  0  0  0  0
  8 24  1  0  0  0  0
 21 25  1  0  0  0  0
 18 26  1  0  0  0  0
 18 27  1  0  0  0  0
  6 28  1  0  0  0  0
  2 29  1  0  0  0  0
  1 30  1  0  0  0  0
  1 31  1  0  0  0  0
  1 32  1  0  0  0  0
  3 33  1  0  0  0  0
  4 34  1  0  0  0  0
  4 35  1  0  0  0  0
  7 36  1  0  0  0  0
 11 37  1  0  0  0  0
 16 38  1  0  0  0  0
 16 39  1  0  0  0  0
 17 40  1  0  0  0  0
 17 41  1  0  0  0  0
 22 42  1  0  0  0  0
 25 43  1  0  0  0  0
 26 44  1  0  0  0  0
 26 45  1  0  0  0  0
 26 46  1  0  0  0  0
 27 47  1  0  0  0  0
 27 48  1  0  0  0  0
 27 49  1  0  0  0  0
 28 50  1  0  0  0  0
 29 51  1  0  0  0  0
 29 52  1  0  0  0  0
 29 53  1  0  0  0  0
M  END
$$$$
