C17H12O7
APtclcactv06281817333D 0   0.00000     0.00000
 
 36 39  0  0  0  0  0  0  0  0999 V2000
   -4.3779    2.2178    2.0328 C   0  0  0  0  0  0  0  0  0  0  0  0
   -5.0471    1.1493    1.3601 O   0  0  0  0  0  0  0  0  0  0  0  0
   -4.3011    0.3881    0.5154 C   0  0  0  0  0  0  0  0  0  0  0  0
   -4.8898   -0.6696   -0.1725 C   0  0  0  0  0  0  0  0  0  0  0  0
   -4.1311   -1.4469   -1.0340 C   0  0  0  0  0  0  0  0  0  0  0  0
   -2.7897   -1.1750   -1.2128 C   0  0  0  0  0  0  0  0  0  0  0  0
   -2.1949   -0.1178   -0.5264 C   0  0  0  0  0  0  0  0  0  0  0  0
   -2.9582    0.6680    0.3352 C   0  0  0  0  0  0  0  0  0  0  0  0
   -0.7533    0.1743   -0.7172 C   0  0  0  0  0  0  0  0  0  0  0  0
   -0.3456    1.3377   -1.2870 C   0  0  0  0  0  0  0  0  0  0  0  0
    0.9369    1.6365   -1.4944 O   0  0  0  0  0  0  0  0  0  0  0  0
    1.9227    0.9593   -0.8738 C   0  0  0  0  0  0  0  0  0  0  0  0
    3.2101    1.4751   -0.8318 C   0  0  0  0  0  0  0  0  0  0  0  0
    4.2258    0.7716   -0.2031 C   0  0  0  0  0  0  0  0  0  0  0  0
    3.9679   -0.4629    0.3942 C   0  0  0  0  0  0  0  0  0  0  0  0
    2.6882   -0.9931    0.3665 C   0  0  0  0  0  0  0  0  0  0  0  0
    1.6608   -0.2796   -0.2603 C   0  0  0  0  0  0  0  0  0  0  0  0
    0.2800   -0.7885   -0.2878 C   0  0  0  0  0  0  0  0  0  0  0  0
    0.0062   -1.9359    0.0207 O   0  0  0  0  0  0  0  0  0  0  0  0
    2.4334   -2.1967    0.9419 O   0  0  0  0  0  0  0  0  0  0  0  0
    5.1303   -0.9390    0.9328 O   0  0  0  0  0  0  0  0  0  0  0  0
    6.0059    0.2006    1.0203 C   0  0  0  0  0  0  0  0  0  0  0  0
    5.5477    1.0666   -0.0344 O   0  0  0  0  0  0  0  0  0  0  0  0
   -6.2111   -0.9409    0.0013 O   0  0  0  0  0  0  0  0  0  0  0  0
   -3.9694    2.9109    1.2973 H   0  0  0  0  0  0  0  0  0  0  0  0
   -5.0857    2.7436    2.6737 H   0  0  0  0  0  0  0  0  0  0  0  0
   -3.5681    1.8140    2.6404 H   0  0  0  0  0  0  0  0  0  0  0  0
   -4.5904   -2.2669   -1.5660 H   0  0  0  0  0  0  0  0  0  0  0  0
   -2.2007   -1.7820   -1.8844 H   0  0  0  0  0  0  0  0  0  0  0  0
   -2.5001    1.4879    0.8684 H   0  0  0  0  0  0  0  0  0  0  0  0
   -1.0959    2.0545   -1.5864 H   0  0  0  0  0  0  0  0  0  0  0  0
    3.4221    2.4291   -1.2916 H   0  0  0  0  0  0  0  0  0  0  0  0
    2.1756   -2.1411    1.8723 H   0  0  0  0  0  0  0  0  0  0  0  0
    5.9026    0.6894    1.9890 H   0  0  0  0  0  0  0  0  0  0  0  0
    7.0403   -0.0972    0.8489 H   0  0  0  0  0  0  0  0  0  0  0  0
   -6.7927   -0.4749   -0.6149 H   0  0  0  0  0  0  0  0  0  0  0  0
  1  2  1  0  0  0  0
  2  3  1  0  0  0  0
  3  4  2  0  0  0  0
  4  5  1  0  0  0  0
  5  6  2  0  0  0  0
  6  7  1  0  0  0  0
  7  8  2  0  0  0  0
  3  8  1  0  0  0  0
  7  9  1  0  0  0  0
  9 10  2  0  0  0  0
 10 11  1  0  0  0  0
 11 12  1  0  0  0  0
 12 13  2  0  0  0  0
 13 14  1  0  0  0  0
 14 15  2  0  0  0  0
 15 16  1  0  0  0  0
 16 17  2  0  0  0  0
 12 17  1  0  0  0  0
 17 18  1  0  0  0  0
  9 18  1  0  0  0  0
 18 19  2  0  0  0  0
 16 20  1  0  0  0  0
 15 21  1  0  0  0  0
 21 22  1  0  0  0  0
 22 23  1  0  0  0  0
 14 23  1  0  0  0  0
  4 24  1  0  0  0  0
  1 25  1  0  0  0  0
  1 26  1  0  0  0  0
  1 27  1  0  0  0  0
  5 28  1  0  0  0  0
  6 29  1  0  0  0  0
  8 30  1  0  0  0  0
 10 31  1  0  0  0  0
 13 32  1  0  0  0  0
 20 33  1  0  0  0  0
 22 34  1  0  0  0  0
 22 35  1  0  0  0  0
 24 36  1  0  0  0  0
M  END
$$$$
