C14H30
APtclcactv06211806363D 0   0.00000     0.00000
 
 44 43  0  0  0  0  0  0  0  0999 V2000
    7.7701    0.3471    0.1437 C   0  0  0  0  0  0  0  0  0  0  0  0
    6.5066   -0.4057   -0.2782 C   0  0  0  0  0  0  0  0  0  0  0  0
    5.2719    0.3824    0.1637 C   0  0  0  0  0  0  0  0  0  0  0  0
    4.0085   -0.3703   -0.2582 C   0  0  0  0  0  0  0  0  0  0  0  0
    2.7738    0.4177    0.1837 C   0  0  0  0  0  0  0  0  0  0  0  0
    1.5103   -0.3350   -0.2382 C   0  0  0  0  0  0  0  0  0  0  0  0
    0.2756    0.4530    0.2037 C   0  0  0  0  0  0  0  0  0  0  0  0
   -0.9878   -0.2997   -0.2183 C   0  0  0  0  0  0  0  0  0  0  0  0
   -2.2225    0.4884    0.2237 C   0  0  0  0  0  0  0  0  0  0  0  0
   -3.4860   -0.2644   -0.1983 C   0  0  0  0  0  0  0  0  0  0  0  0
   -3.5632   -1.5937    0.5553 C   0  0  0  0  0  0  0  0  0  0  0  0
   -4.7176    0.5812    0.1318 C   0  0  0  0  0  0  0  0  0  0  0  0
   -5.9716   -0.1143   -0.4018 C   0  0  0  0  0  0  0  0  0  0  0  0
   -7.2032    0.7313   -0.0718 C   0  0  0  0  0  0  0  0  0  0  0  0
    7.7803    0.4607    1.2277 H   0  0  0  0  0  0  0  0  0  0  0  0
    8.6497   -0.2143   -0.1711 H   0  0  0  0  0  0  0  0  0  0  0  0
    7.7802    1.3312   -0.3249 H   0  0  0  0  0  0  0  0  0  0  0  0
    6.4964   -0.5193   -1.3622 H   0  0  0  0  0  0  0  0  0  0  0  0
    6.4965   -1.3897    0.1904 H   0  0  0  0  0  0  0  0  0  0  0  0
    5.2822    0.4961    1.2477 H   0  0  0  0  0  0  0  0  0  0  0  0
    5.2821    1.3665   -0.3049 H   0  0  0  0  0  0  0  0  0  0  0  0
    3.9982   -0.4840   -1.3422 H   0  0  0  0  0  0  0  0  0  0  0  0
    3.9983   -1.3544    0.2104 H   0  0  0  0  0  0  0  0  0  0  0  0
    2.7840    0.5314    1.2677 H   0  0  0  0  0  0  0  0  0  0  0  0
    2.7839    1.4018   -0.2849 H   0  0  0  0  0  0  0  0  0  0  0  0
    1.5001   -0.4487   -1.3222 H   0  0  0  0  0  0  0  0  0  0  0  0
    1.5002   -1.3191    0.2304 H   0  0  0  0  0  0  0  0  0  0  0  0
    0.2859    0.5667    1.2877 H   0  0  0  0  0  0  0  0  0  0  0  0
    0.2858    1.4371   -0.2649 H   0  0  0  0  0  0  0  0  0  0  0  0
   -0.9981   -0.4134   -1.3023 H   0  0  0  0  0  0  0  0  0  0  0  0
   -0.9980   -1.2838    0.2504 H   0  0  0  0  0  0  0  0  0  0  0  0
   -2.2123    0.6020    1.3077 H   0  0  0  0  0  0  0  0  0  0  0  0
   -2.2124    1.4724   -0.2449 H   0  0  0  0  0  0  0  0  0  0  0  0
   -3.4536   -0.4561   -1.2708 H   0  0  0  0  0  0  0  0  0  0  0  0
   -4.4633   -2.1300    0.2547 H   0  0  0  0  0  0  0  0  0  0  0  0
   -2.6857   -2.1962    0.3201 H   0  0  0  0  0  0  0  0  0  0  0  0
   -3.5956   -1.4021    1.6278 H   0  0  0  0  0  0  0  0  0  0  0  0
   -4.7990    0.6983    1.2124 H   0  0  0  0  0  0  0  0  0  0  0  0
   -4.6203    1.5620   -0.3336 H   0  0  0  0  0  0  0  0  0  0  0  0
   -5.8902   -0.2313   -1.4824 H   0  0  0  0  0  0  0  0  0  0  0  0
   -6.0690   -1.0951    0.0636 H   0  0  0  0  0  0  0  0  0  0  0  0
   -8.0966    0.2359   -0.4519 H   0  0  0  0  0  0  0  0  0  0  0  0
   -7.2847    0.8484    1.0089 H   0  0  0  0  0  0  0  0  0  0  0  0
   -7.1059    1.7122   -0.5372 H   0  0  0  0  0  0  0  0  0  0  0  0
  1  2  1  0  0  0  0
  2  3  1  0  0  0  0
  3  4  1  0  0  0  0
  4  5  1  0  0  0  0
  5  6  1  0  0  0  0
  6  7  1  0  0  0  0
  7  8  1  0  0  0  0
  8  9  1  0  0  0  0
  9 10  1  0  0  0  0
 10 11  1  0  0  0  0
 10 12  1  0  0  0  0
 12 13  1  0  0  0  0
 13 14  1  0  0  0  0
  1 15  1  0  0  0  0
  1 16  1  0  0  0  0
  1 17  1  0  0  0  0
  2 18  1  0  0  0  0
  2 19  1  0  0  0  0
  3 20  1  0  0  0  0
  3 21  1  0  0  0  0
  4 22  1  0  0  0  0
  4 23  1  0  0  0  0
  5 24  1  0  0  0  0
  5 25  1  0  0  0  0
  6 26  1  0  0  0  0
  6 27  1  0  0  0  0
  7 28  1  0  0  0  0
  7 29  1  0  0  0  0
  8 30  1  0  0  0  0
  8 31  1  0  0  0  0
  9 32  1  0  0  0  0
  9 33  1  0  0  0  0
 10 34  1  0  0  0  0
 11 35  1  0  0  0  0
 11 36  1  0  0  0  0
 11 37  1  0  0  0  0
 12 38  1  0  0  0  0
 12 39  1  0  0  0  0
 13 40  1  0  0  0  0
 13 41  1  0  0  0  0
 14 42  1  0  0  0  0
 14 43  1  0  0  0  0
 14 44  1  0  0  0  0
M  END
$$$$
