C4H4N2O2
APtclcactv06211804333D 0   0.00000     0.00000
 
 12 12  0  0  0  0  0  0  0  0999 V2000
    1.1649   -1.1065   -0.0004 C   0  0  0  0  0  0  0  0  0  0  0  0
   -0.0311   -1.7333   -0.0001 C   0  0  0  0  0  0  0  0  0  0  0  0
   -1.1831   -0.9949    0.0003 N   0  0  0  0  0  0  0  0  0  0  0  0
   -1.1352    0.3497   -0.0000 C   0  0  0  0  0  0  0  0  0  0  0  0
   -2.1711    0.9863   -0.0001 O   0  0  0  0  0  0  0  0  0  0  0  0
    0.0432    1.0000    0.0001 N   0  0  0  0  0  0  0  0  0  0  0  0
    1.2009    0.3087   -0.0003 C   0  0  0  0  0  0  0  0  0  0  0  0
    2.2676    0.8963    0.0002 O   0  0  0  0  0  0  0  0  0  0  0  0
    2.0817   -1.6773    0.0037 H   0  0  0  0  0  0  0  0  0  0  0  0
   -0.0782   -2.8122   -0.0006 H   0  0  0  0  0  0  0  0  0  0  0  0
   -2.0423   -1.4450    0.0005 H   0  0  0  0  0  0  0  0  0  0  0  0
    0.0597    1.9699   -0.0002 H   0  0  0  0  0  0  0  0  0  0  0  0
  1  2  2  0  0  0  0
  2  3  1  0  0  0  0
  3  4  1  0  0  0  0
  4  5  2  0  0  0  0
  4  6  1  0  0  0  0
  6  7  1  0  0  0  0
  1  7  1  0  0  0  0
  7  8  2  0  0  0  0
  1  9  1  0  0  0  0
  2 10  1  0  0  0  0
  3 11  1  0  0  0  0
  6 12  1  0  0  0  0
M  END
$$$$
