C5H8O2
APtclcactv06211806023D 0   0.00000     0.00000
 
 15 14  0  0  0  0  0  0  0  0999 V2000
    2.7129   -0.0649   -0.0000 C   0  0  0  0  0  0  0  0  0  0  0  0
    1.3643   -0.7876   -0.0000 C   0  0  0  0  0  0  0  0  0  0  0  0
    0.2504    0.2275    0.0000 C   0  0  0  0  0  0  0  0  0  0  0  0
    0.5087    1.4075    0.0000 O   0  0  0  0  0  0  0  0  0  0  0  0
   -1.1660   -0.2233    0.0000 C   0  0  0  0  0  0  0  0  0  0  0  0
   -1.4242   -1.4032   -0.0000 O   0  0  0  0  0  0  0  0  0  0  0  0
   -2.2798    0.7918    0.0000 C   0  0  0  0  0  0  0  0  0  0  0  0
    2.7904    0.5596    0.8900 H   0  0  0  0  0  0  0  0  0  0  0  0
    3.5185   -0.7992    0.0000 H   0  0  0  0  0  0  0  0  0  0  0  0
    2.7904    0.5596   -0.8900 H   0  0  0  0  0  0  0  0  0  0  0  0
    1.2867   -1.4121   -0.8900 H   0  0  0  0  0  0  0  0  0  0  0  0
    1.2867   -1.4121    0.8900 H   0  0  0  0  0  0  0  0  0  0  0  0
   -2.5484    1.0365   -1.0277 H   0  0  0  0  0  0  0  0  0  0  0  0
   -3.1479    0.3788    0.5138 H   0  0  0  0  0  0  0  0  0  0  0  0
   -1.9489    1.6943    0.5138 H   0  0  0  0  0  0  0  0  0  0  0  0
  1  2  1  0  0  0  0
  2  3  1  0  0  0  0
  3  4  2  0  0  0  0
  3  5  1  0  0  0  0
  5  6  2  0  0  0  0
  5  7  1  0  0  0  0
  1  8  1  0  0  0  0
  1  9  1  0  0  0  0
  1 10  1  0  0  0  0
  2 11  1  0  0  0  0
  2 12  1  0  0  0  0
  7 13  1  0  0  0  0
  7 14  1  0  0  0  0
  7 15  1  0  0  0  0
M  END
$$$$
