C36H30O16
APtclcactv06281817333D 0   0.00000     0.00000
 
 82 86  0  0  0  0  0  0  0  0999 V2000
    5.1125   -2.1773   -2.4827 C   0  0  0  0  0  0  0  0  0  0  0  0
    4.9308   -1.8949   -3.8237 C   0  0  0  0  0  0  0  0  0  0  0  0
    4.7848   -0.5818   -4.2416 C   0  0  0  0  0  0  0  0  0  0  0  0
    4.8215    0.4501   -3.3088 C   0  0  0  0  0  0  0  0  0  0  0  0
    5.0040    0.1602   -1.9662 C   0  0  0  0  0  0  0  0  0  0  0  0
    5.1491   -1.1520   -1.5560 C   0  0  0  0  0  0  0  0  0  0  0  0
    5.3474   -1.4655   -0.0953 C   0  0  0  0  0  0  0  0  0  0  0  0
    3.9861   -1.6759    0.5706 C   0  0  0  0  0  0  0  0  0  0  0  0
    4.1876   -2.1092    1.9998 C   0  0  0  0  0  0  0  0  0  0  0  0
    3.8249   -1.3952    2.9044 O   0  0  0  0  0  0  0  0  0  0  0  0
    4.7701   -3.2885    2.2677 O   0  0  0  0  0  0  0  0  0  0  0  0
    3.2364   -0.4327    0.5429 O   0  0  0  0  0  0  0  0  0  0  0  0
    1.8987   -0.5288    0.4882 C   0  0  0  0  0  0  0  0  0  0  0  0
    1.3716   -1.6158    0.4642 O   0  0  0  0  0  0  0  0  0  0  0  0
    1.0542    0.7189    0.4566 C   0  0  0  0  0  0  0  0  0  0  0  0
   -0.4208    0.3302    0.3956 C   0  0  0  0  0  0  0  0  0  0  0  0
   -0.8693   -0.2665    1.7017 C   0  0  0  0  0  0  0  0  0  0  0  0
   -0.3915    0.2000    2.8747 C   0  0  0  0  0  0  0  0  0  0  0  0
    0.6222    1.2633    2.8717 C   0  0  0  0  0  0  0  0  0  0  0  0
    1.3250    1.5362    1.6922 C   0  0  0  0  0  0  0  0  0  0  0  0
    2.2659    2.5454    1.6717 C   0  0  0  0  0  0  0  0  0  0  0  0
    2.5215    3.2810    2.8292 C   0  0  0  0  0  0  0  0  0  0  0  0
    1.8325    3.0026    4.0023 C   0  0  0  0  0  0  0  0  0  0  0  0
    0.8861    2.0007    4.0295 C   0  0  0  0  0  0  0  0  0  0  0  0
    3.4485    4.2734    2.8087 O   0  0  0  0  0  0  0  0  0  0  0  0
    2.9432    2.8221    0.5253 O   0  0  0  0  0  0  0  0  0  0  0  0
   -1.8053   -1.3314    1.7005 C   0  0  0  0  0  0  0  0  0  0  0  0
   -2.2554   -1.7467    2.7516 O   0  0  0  0  0  0  0  0  0  0  0  0
   -2.1970   -1.8840    0.5336 O   0  0  0  0  0  0  0  0  0  0  0  0
   -3.0263   -3.0452    0.6117 C   0  0  0  0  0  0  0  0  0  0  0  0
   -3.7651   -3.2345   -0.7147 C   0  0  0  0  0  0  0  0  0  0  0  0
   -4.7524   -2.1119   -0.9044 C   0  0  0  0  0  0  0  0  0  0  0  0
   -4.3883   -0.9868   -1.6205 C   0  0  0  0  0  0  0  0  0  0  0  0
   -5.2949    0.0463   -1.7958 C   0  0  0  0  0  0  0  0  0  0  0  0
   -6.5711   -0.0519   -1.2498 C   0  0  0  0  0  0  0  0  0  0  0  0
   -6.9296   -1.1824   -0.5332 C   0  0  0  0  0  0  0  0  0  0  0  0
   -6.0222   -2.2119   -0.3667 C   0  0  0  0  0  0  0  0  0  0  0  0
   -7.4643    0.9596   -1.4188 O   0  0  0  0  0  0  0  0  0  0  0  0
   -4.9382    1.1539   -2.4996 O   0  0  0  0  0  0  0  0  0  0  0  0
   -2.1716   -4.2553    0.8878 C   0  0  0  0  0  0  0  0  0  0  0  0
   -0.9750   -4.1356    1.0055 O   0  0  0  0  0  0  0  0  0  0  0  0
   -2.7395   -5.4660    1.0029 O   0  0  0  0  0  0  0  0  0  0  0  0
   -1.2454    1.5568    0.1015 C   0  0  0  0  0  0  0  0  0  0  0  0
   -1.4254    1.9696   -1.2055 C   0  0  0  0  0  0  0  0  0  0  0  0
   -2.1833    3.0973   -1.4777 C   0  0  0  0  0  0  0  0  0  0  0  0
   -2.7618    3.8118   -0.4331 C   0  0  0  0  0  0  0  0  0  0  0  0
   -2.5773    3.3926    0.8747 C   0  0  0  0  0  0  0  0  0  0  0  0
   -1.8247    2.2635    1.1389 C   0  0  0  0  0  0  0  0  0  0  0  0
   -3.5061    4.9194   -0.6951 O   0  0  0  0  0  0  0  0  0  0  0  0
   -2.3611    3.5050   -2.7628 O   0  0  0  0  0  0  0  0  0  0  0  0
    4.6791    1.7405   -3.7141 O   0  0  0  0  0  0  0  0  0  0  0  0
    4.6064   -0.3023   -5.5605 O   0  0  0  0  0  0  0  0  0  0  0  0
    5.2217   -3.2014   -2.1577 H   0  0  0  0  0  0  0  0  0  0  0  0
    4.9030   -2.6976   -4.5457 H   0  0  0  0  0  0  0  0  0  0  0  0
    5.0332    0.9593   -1.2403 H   0  0  0  0  0  0  0  0  0  0  0  0
    5.9444   -2.3720    0.0039 H   0  0  0  0  0  0  0  0  0  0  0  0
    5.8637   -0.6358    0.3875 H   0  0  0  0  0  0  0  0  0  0  0  0
    3.4333   -2.4456    0.0320 H   0  0  0  0  0  0  0  0  0  0  0  0
    4.8778   -3.5233    3.1996 H   0  0  0  0  0  0  0  0  0  0  0  0
    1.3099    1.3059   -0.4255 H   0  0  0  0  0  0  0  0  0  0  0  0
   -0.5670   -0.3992   -0.4011 H   0  0  0  0  0  0  0  0  0  0  0  0
   -0.7520   -0.2051    3.8086 H   0  0  0  0  0  0  0  0  0  0  0  0
    2.0389    3.5725    4.8962 H   0  0  0  0  0  0  0  0  0  0  0  0
    0.3504    1.7862    4.9425 H   0  0  0  0  0  0  0  0  0  0  0  0
    3.0913    5.1405    2.5726 H   0  0  0  0  0  0  0  0  0  0  0  0
    2.5129    3.4812   -0.0364 H   0  0  0  0  0  0  0  0  0  0  0  0
   -3.7507   -2.9208    1.4166 H   0  0  0  0  0  0  0  0  0  0  0  0
   -3.0469   -3.2291   -1.5346 H   0  0  0  0  0  0  0  0  0  0  0  0
   -4.2955   -4.1867   -0.7025 H   0  0  0  0  0  0  0  0  0  0  0  0
   -3.3971   -0.9130   -2.0429 H   0  0  0  0  0  0  0  0  0  0  0  0
   -7.9194   -1.2610   -0.1083 H   0  0  0  0  0  0  0  0  0  0  0  0
   -6.3028   -3.0924    0.1921 H   0  0  0  0  0  0  0  0  0  0  0  0
   -8.0116    0.8727   -2.2113 H   0  0  0  0  0  0  0  0  0  0  0  0
   -5.1884    1.1242   -3.4332 H   0  0  0  0  0  0  0  0  0  0  0  0
   -2.1505   -6.2122    1.1801 H   0  0  0  0  0  0  0  0  0  0  0  0
   -0.9751    1.4135   -2.0144 H   0  0  0  0  0  0  0  0  0  0  0  0
   -3.0252    3.9454    1.6872 H   0  0  0  0  0  0  0  0  0  0  0  0
   -1.6817    1.9378    2.1587 H   0  0  0  0  0  0  0  0  0  0  0  0
   -4.4465    4.7386   -0.8296 H   0  0  0  0  0  0  0  0  0  0  0  0
   -3.1749    3.1781   -3.1702 H   0  0  0  0  0  0  0  0  0  0  0  0
    3.7630    2.0500   -3.7265 H   0  0  0  0  0  0  0  0  0  0  0  0
    3.6799   -0.2854   -5.8372 H   0  0  0  0  0  0  0  0  0  0  0  0
  1  2  2  0  0  0  0
  2  3  1  0  0  0  0
  3  4  2  0  0  0  0
  4  5  1  0  0  0  0
  5  6  2  0  0  0  0
  1  6  1  0  0  0  0
  6  7  1  0  0  0  0
  7  8  1  0  0  0  0
  8  9  1  0  0  0  0
  9 10  2  0  0  0  0
  9 11  1  0  0  0  0
  8 12  1  0  0  0  0
 12 13  1  0  0  0  0
 13 14  2  0  0  0  0
 13 15  1  0  0  0  0
 15 16  1  0  0  0  0
 16 17  1  0  0  0  0
 17 18  2  0  0  0  0
 18 19  1  0  0  0  0
 19 20  2  0  0  0  0
 15 20  1  0  0  0  0
 20 21  1  0  0  0  0
 21 22  2  0  0  0  0
 22 23  1  0  0  0  0
 23 24  2  0  0  0  0
 19 24  1  0  0  0  0
 22 25  1  0  0  0  0
 21 26  1  0  0  0  0
 17 27  1  0  0  0  0
 27 28  2  0  0  0  0
 27 29  1  0  0  0  0
 29 30  1  0  0  0  0
 30 31  1  0  0  0  0
 31 32  1  0  0  0  0
 32 33  2  0  0  0  0
 33 34  1  0  0  0  0
 34 35  2  0  0  0  0
 35 36  1  0  0  0  0
 36 37  2  0  0  0  0
 32 37  1  0  0  0  0
 35 38  1  0  0  0  0
 34 39  1  0  0  0  0
 30 40  1  0  0  0  0
 40 41  2  0  0  0  0
 40 42  1  0  0  0  0
 16 43  1  0  0  0  0
 43 44  2  0  0  0  0
 44 45  1  0  0  0  0
 45 46  2  0  0  0  0
 46 47  1  0  0  0  0
 47 48  2  0  0  0  0
 43 48  1  0  0  0  0
 46 49  1  0  0  0  0
 45 50  1  0  0  0  0
  4 51  1  0  0  0  0
  3 52  1  0  0  0  0
  1 53  1  0  0  0  0
  2 54  1  0  0  0  0
  5 55  1  0  0  0  0
  7 56  1  0  0  0  0
  7 57  1  0  0  0  0
  8 58  1  0  0  0  0
 11 59  1  0  0  0  0
 15 60  1  0  0  0  0
 16 61  1  0  0  0  0
 18 62  1  0  0  0  0
 23 63  1  0  0  0  0
 24 64  1  0  0  0  0
 25 65  1  0  0  0  0
 26 66  1  0  0  0  0
 30 67  1  0  0  0  0
 31 68  1  0  0  0  0
 31 69  1  0  0  0  0
 33 70  1  0  0  0  0
 36 71  1  0  0  0  0
 37 72  1  0  0  0  0
 38 73  1  0  0  0  0
 39 74  1  0  0  0  0
 42 75  1  0  0  0  0
 44 76  1  0  0  0  0
 47 77  1  0  0  0  0
 48 78  1  0  0  0  0
 49 79  1  0  0  0  0
 50 80  1  0  0  0  0
 51 81  1  0  0  0  0
 52 82  1  0  0  0  0
M  END
$$$$
