C20H22O7
APtclcactv06281817333D 0   0.00000     0.00000
 
 49 51  0  0  0  0  0  0  0  0999 V2000
    5.4538    3.0108   -0.0412 C   0  0  0  0  0  0  0  0  0  0  0  0
    6.0129    1.7292    0.2536 O   0  0  0  0  0  0  0  0  0  0  0  0
    5.2382    0.6426   -0.0083 C   0  0  0  0  0  0  0  0  0  0  0  0
    5.7192   -0.6365    0.2543 C   0  0  0  0  0  0  0  0  0  0  0  0
    4.9260   -1.7404   -0.0144 C   0  0  0  0  0  0  0  0  0  0  0  0
    3.6598   -1.5697   -0.5422 C   0  0  0  0  0  0  0  0  0  0  0  0
    3.1820   -0.2989   -0.8036 C   0  0  0  0  0  0  0  0  0  0  0  0
    3.9659    0.8069   -0.5321 C   0  0  0  0  0  0  0  0  0  0  0  0
    1.8011   -0.1186   -1.3794 C   0  0  0  0  0  0  0  0  0  0  0  0
    0.7868    0.0110   -0.2413 C   0  0  0  0  0  0  0  0  0  0  0  0
   -0.6177    0.3216   -0.8043 C   0  0  0  0  0  0  0  0  0  0  0  0
   -1.4578   -0.8832   -0.3292 C   0  0  0  0  0  0  0  0  0  0  0  0
   -0.6798   -1.4872    0.7478 O   0  0  0  0  0  0  0  0  0  0  0  0
    0.6268   -1.3134    0.4770 C   0  0  0  0  0  0  0  0  0  0  0  0
    1.5175   -2.0802    0.7576 O   0  0  0  0  0  0  0  0  0  0  0  0
   -2.7944   -0.4177    0.1882 C   0  0  0  0  0  0  0  0  0  0  0  0
   -3.9153   -0.5100   -0.6157 C   0  0  0  0  0  0  0  0  0  0  0  0
   -5.1451   -0.0825   -0.1415 C   0  0  0  0  0  0  0  0  0  0  0  0
   -5.2484    0.4393    1.1443 C   0  0  0  0  0  0  0  0  0  0  0  0
   -4.1209    0.5290    1.9449 C   0  0  0  0  0  0  0  0  0  0  0  0
   -2.8981    0.0954    1.4677 C   0  0  0  0  0  0  0  0  0  0  0  0
   -6.4530    0.8606    1.6141 O   0  0  0  0  0  0  0  0  0  0  0  0
   -6.2486   -0.1721   -0.9312 O   0  0  0  0  0  0  0  0  0  0  0  0
   -6.0675   -0.7175   -2.2396 C   0  0  0  0  0  0  0  0  0  0  0  0
   -1.1603    1.6252   -0.2153 C   0  0  0  0  0  0  0  0  0  0  0  0
   -2.4052    1.9476   -0.8384 O   0  0  0  0  0  0  0  0  0  0  0  0
    6.9653   -0.8027    0.7731 O   0  0  0  0  0  0  0  0  0  0  0  0
    5.2179    3.0686   -1.1038 H   0  0  0  0  0  0  0  0  0  0  0  0
    4.5436    3.1528    0.5414 H   0  0  0  0  0  0  0  0  0  0  0  0
    6.1736    3.7886    0.2140 H   0  0  0  0  0  0  0  0  0  0  0  0
    5.2971   -2.7342    0.1882 H   0  0  0  0  0  0  0  0  0  0  0  0
    3.0425   -2.4309   -0.7511 H   0  0  0  0  0  0  0  0  0  0  0  0
    3.5903    1.7986   -0.7372 H   0  0  0  0  0  0  0  0  0  0  0  0
    1.7776    0.7830   -1.9915 H   0  0  0  0  0  0  0  0  0  0  0  0
    1.5484   -0.9821   -1.9947 H   0  0  0  0  0  0  0  0  0  0  0  0
    1.0971    0.7888    0.4565 H   0  0  0  0  0  0  0  0  0  0  0  0
   -0.5944    0.3697   -1.8930 H   0  0  0  0  0  0  0  0  0  0  0  0
   -1.5932   -1.5950   -1.1436 H   0  0  0  0  0  0  0  0  0  0  0  0
   -3.8324   -0.9150   -1.6135 H   0  0  0  0  0  0  0  0  0  0  0  0
   -4.1984    0.9336    2.9433 H   0  0  0  0  0  0  0  0  0  0  0  0
   -2.0201    0.1659    2.0927 H   0  0  0  0  0  0  0  0  0  0  0  0
   -6.9615    0.1731    2.0655 H   0  0  0  0  0  0  0  0  0  0  0  0
   -5.3593   -0.1025   -2.7948 H   0  0  0  0  0  0  0  0  0  0  0  0
   -5.6814   -1.7337   -2.1594 H   0  0  0  0  0  0  0  0  0  0  0  0
   -7.0237   -0.7324   -2.7626 H   0  0  0  0  0  0  0  0  0  0  0  0
   -1.3115    1.5040    0.8574 H   0  0  0  0  0  0  0  0  0  0  0  0
   -0.4461    2.4292   -0.3930 H   0  0  0  0  0  0  0  0  0  0  0  0
   -2.8081    2.7642   -0.5130 H   0  0  0  0  0  0  0  0  0  0  0  0
    6.9912   -0.8088    1.7398 H   0  0  0  0  0  0  0  0  0  0  0  0
  1  2  1  0  0  0  0
  2  3  1  0  0  0  0
  3  4  2  0  0  0  0
  4  5  1  0  0  0  0
  5  6  2  0  0  0  0
  6  7  1  0  0  0  0
  7  8  2  0  0  0  0
  3  8  1  0  0  0  0
  7  9  1  0  0  0  0
  9 10  1  0  0  0  0
 10 11  1  0  0  0  0
 11 12  1  0  0  0  0
 12 13  1  0  0  0  0
 13 14  1  0  0  0  0
 10 14  1  0  0  0  0
 14 15  2  0  0  0  0
 12 16  1  0  0  0  0
 16 17  2  0  0  0  0
 17 18  1  0  0  0  0
 18 19  2  0  0  0  0
 19 20  1  0  0  0  0
 20 21  2  0  0  0  0
 16 21  1  0  0  0  0
 19 22  1  0  0  0  0
 18 23  1  0  0  0  0
 23 24  1  0  0  0  0
 11 25  1  0  0  0  0
 25 26  1  0  0  0  0
  4 27  1  0  0  0  0
  1 28  1  0  0  0  0
  1 29  1  0  0  0  0
  1 30  1  0  0  0  0
  5 31  1  0  0  0  0
  6 32  1  0  0  0  0
  8 33  1  0  0  0  0
  9 34  1  0  0  0  0
  9 35  1  0  0  0  0
 10 36  1  0  0  0  0
 11 37  1  0  0  0  0
 12 38  1  0  0  0  0
 17 39  1  0  0  0  0
 20 40  1  0  0  0  0
 21 41  1  0  0  0  0
 22 42  1  0  0  0  0
 24 43  1  0  0  0  0
 24 44  1  0  0  0  0
 24 45  1  0  0  0  0
 25 46  1  0  0  0  0
 25 47  1  0  0  0  0
 26 48  1  0  0  0  0
 27 49  1  0  0  0  0
M  END
$$$$
