C9H12N2O6
APtclcactv06211804333D 0   0.00000     0.00000
 
 29 30  0  0  0  0  0  0  0  0999 V2000
    2.2690    1.6765    0.1350 C   0  0  0  0  0  0  0  0  0  0  0  0
    1.0687    1.1894   -0.2457 C   0  0  0  0  0  0  0  0  0  0  0  0
    0.9141   -0.1562   -0.4399 N   0  0  0  0  0  0  0  0  0  0  0  0
    1.9468   -0.9984   -0.2546 C   0  0  0  0  0  0  0  0  0  0  0  0
    1.7872   -2.1906   -0.4324 O   0  0  0  0  0  0  0  0  0  0  0  0
    3.1541   -0.5398    0.1243 N   0  0  0  0  0  0  0  0  0  0  0  0
    3.3474    0.7793    0.3260 C   0  0  0  0  0  0  0  0  0  0  0  0
    4.4396    1.1951    0.6684 O   0  0  0  0  0  0  0  0  0  0  0  0
   -0.3883   -0.6848   -0.8530 C   0  0  0  0  0  0  0  0  0  0  0  0
   -1.0152   -1.5202    0.2852 C   0  0  0  0  0  0  0  0  0  0  0  0
   -1.9351   -0.5208    1.0216 C   0  0  0  0  0  0  0  0  0  0  0  0
   -1.7552    0.8002    0.2412 C   0  0  0  0  0  0  0  0  0  0  0  0
   -1.3215    0.3948   -1.0754 O   0  0  0  0  0  0  0  0  0  0  0  0
   -3.0841    1.5535    0.1557 C   0  0  0  0  0  0  0  0  0  0  0  0
   -2.8730    2.8227   -0.4661 O   0  0  0  0  0  0  0  0  0  0  0  0
   -3.2951   -0.9556    0.9633 O   0  0  0  0  0  0  0  0  0  0  0  0
   -1.7789   -2.6027   -0.2503 O   0  0  0  0  0  0  0  0  0  0  0  0
    2.4059    2.7369    0.2874 H   0  0  0  0  0  0  0  0  0  0  0  0
    0.2344    1.8587   -0.3959 H   0  0  0  0  0  0  0  0  0  0  0  0
    3.8880   -1.1608    0.2535 H   0  0  0  0  0  0  0  0  0  0  0  0
   -0.2832   -1.2894   -1.7538 H   0  0  0  0  0  0  0  0  0  0  0  0
   -0.2413   -1.8928    0.9563 H   0  0  0  0  0  0  0  0  0  0  0  0
   -1.6160   -0.3993    2.0568 H   0  0  0  0  0  0  0  0  0  0  0  0
   -0.9958    1.4212    0.7163 H   0  0  0  0  0  0  0  0  0  0  0  0
   -3.7934    0.9733   -0.4344 H   0  0  0  0  0  0  0  0  0  0  0  0
   -3.4825    1.7024    1.1593 H   0  0  0  0  0  0  0  0  0  0  0  0
   -3.6749    3.3560   -0.5537 H   0  0  0  0  0  0  0  0  0  0  0  0
   -3.9164   -0.3646    1.4103 H   0  0  0  0  0  0  0  0  0  0  0  0
   -2.1953   -3.1604    0.4211 H   0  0  0  0  0  0  0  0  0  0  0  0
  1  2  2  0  0  0  0
  2  3  1  0  0  0  0
  3  4  1  0  0  0  0
  4  5  2  0  0  0  0
  4  6  1  0  0  0  0
  6  7  1  0  0  0  0
  1  7  1  0  0  0  0
  7  8  2  0  0  0  0
  3  9  1  0  0  0  0
  9 10  1  0  0  0  0
 10 11  1  0  0  0  0
 11 12  1  0  0  0  0
 12 13  1  0  0  0  0
  9 13  1  0  0  0  0
 12 14  1  0  0  0  0
 14 15  1  0  0  0  0
 11 16  1  0  0  0  0
 10 17  1  0  0  0  0
  1 18  1  0  0  0  0
  2 19  1  0  0  0  0
  6 20  1  0  0  0  0
  9 21  1  0  0  0  0
 10 22  1  0  0  0  0
 11 23  1  0  0  0  0
 12 24  1  0  0  0  0
 14 25  1  0  0  0  0
 14 26  1  0  0  0  0
 15 27  1  0  0  0  0
 16 28  1  0  0  0  0
 17 29  1  0  0  0  0
M  END
$$$$
