C17H16O4
APtclcactv06281817343D 0   0.00000     0.00000
 
 37 38  0  0  0  0  0  0  0  0999 V2000
    3.7752    2.7279   -0.2778 C   0  0  0  0  0  0  0  0  0  0  0  0
    3.1635    1.3538   -0.1838 C   0  0  0  0  0  0  0  0  0  0  0  0
    3.8407    0.2574   -0.7018 C   0  0  0  0  0  0  0  0  0  0  0  0
    3.2855   -1.0135   -0.6207 C   0  0  0  0  0  0  0  0  0  0  0  0
    2.0525   -1.1966   -0.0229 C   0  0  0  0  0  0  0  0  0  0  0  0
    1.3611   -0.0931    0.5039 C   0  0  0  0  0  0  0  0  0  0  0  0
    1.9321    1.1873    0.4229 C   0  0  0  0  0  0  0  0  0  0  0  0
    1.2726    2.2595    0.9290 O   0  0  0  0  0  0  0  0  0  0  0  0
    0.0482   -0.2786    1.1415 C   0  0  0  0  0  0  0  0  0  0  0  0
   -0.0194   -0.5891    2.3176 O   0  0  0  0  0  0  0  0  0  0  0  0
   -1.1773   -0.0900    0.3624 C   0  0  0  0  0  0  0  0  0  0  0  0
   -2.3799   -0.1569    0.9701 C   0  0  0  0  0  0  0  0  0  0  0  0
   -3.6115    0.0327    0.1872 C   0  0  0  0  0  0  0  0  0  0  0  0
   -4.8602   -0.0359    0.8135 C   0  0  0  0  0  0  0  0  0  0  0  0
   -6.0095    0.1427    0.0730 C   0  0  0  0  0  0  0  0  0  0  0  0
   -5.9298    0.3895   -1.2866 C   0  0  0  0  0  0  0  0  0  0  0  0
   -4.6979    0.4589   -1.9137 C   0  0  0  0  0  0  0  0  0  0  0  0
   -3.5392    0.2881   -1.1861 C   0  0  0  0  0  0  0  0  0  0  0  0
    1.5116   -2.4384    0.0545 O   0  0  0  0  0  0  0  0  0  0  0  0
    2.2713   -3.5128   -0.5029 C   0  0  0  0  0  0  0  0  0  0  0  0
    5.0513    0.4286   -1.2907 O   0  0  0  0  0  0  0  0  0  0  0  0
    3.4612    3.2026   -1.2074 H   0  0  0  0  0  0  0  0  0  0  0  0
    3.4450    3.3312    0.5678 H   0  0  0  0  0  0  0  0  0  0  0  0
    4.8619    2.6437   -0.2618 H   0  0  0  0  0  0  0  0  0  0  0  0
    3.8184   -1.8608   -1.0263 H   0  0  0  0  0  0  0  0  0  0  0  0
    1.4753    2.4441    1.8564 H   0  0  0  0  0  0  0  0  0  0  0  0
   -1.1184    0.1027   -0.6986 H   0  0  0  0  0  0  0  0  0  0  0  0
   -2.4388   -0.3496    2.0311 H   0  0  0  0  0  0  0  0  0  0  0  0
   -4.9240   -0.2287    1.8742 H   0  0  0  0  0  0  0  0  0  0  0  0
   -6.9745    0.0897    0.5551 H   0  0  0  0  0  0  0  0  0  0  0  0
   -6.8336    0.5282   -1.8612 H   0  0  0  0  0  0  0  0  0  0  0  0
   -4.6439    0.6517   -2.9750 H   0  0  0  0  0  0  0  0  0  0  0  0
   -2.5786    0.3430   -1.6767 H   0  0  0  0  0  0  0  0  0  0  0  0
    2.4341   -3.3299   -1.5651 H   0  0  0  0  0  0  0  0  0  0  0  0
    3.2329   -3.5800    0.0058 H   0  0  0  0  0  0  0  0  0  0  0  0
    1.7262   -4.4480   -0.3747 H   0  0  0  0  0  0  0  0  0  0  0  0
    5.7989    0.3549   -0.6817 H   0  0  0  0  0  0  0  0  0  0  0  0
  1  2  1  0  0  0  0
  2  3  2  0  0  0  0
  3  4  1  0  0  0  0
  4  5  2  0  0  0  0
  5  6  1  0  0  0  0
  6  7  2  0  0  0  0
  2  7  1  0  0  0  0
  7  8  1  0  0  0  0
  6  9  1  0  0  0  0
  9 10  2  0  0  0  0
  9 11  1  0  0  0  0
 11 12  2  0  0  0  0
 12 13  1  0  0  0  0
 13 14  2  0  0  0  0
 14 15  1  0  0  0  0
 15 16  2  0  0  0  0
 16 17  1  0  0  0  0
 17 18  2  0  0  0  0
 13 18  1  0  0  0  0
  5 19  1  0  0  0  0
 19 20  1  0  0  0  0
  3 21  1  0  0  0  0
  1 22  1  0  0  0  0
  1 23  1  0  0  0  0
  1 24  1  0  0  0  0
  4 25  1  0  0  0  0
  8 26  1  0  0  0  0
 11 27  1  0  0  0  0
 12 28  1  0  0  0  0
 14 29  1  0  0  0  0
 15 30  1  0  0  0  0
 16 31  1  0  0  0  0
 17 32  1  0  0  0  0
 18 33  1  0  0  0  0
 20 34  1  0  0  0  0
 20 35  1  0  0  0  0
 20 36  1  0  0  0  0
 21 37  1  0  0  0  0
M  END
$$$$
