C23H27N3O15S
APtclcactv06291803063D 0   0.00000     0.00000
 
 69 69  0  0  0  0  0  0  0  0999 V2000
   -2.0620   -3.8117    1.6952 C   0  0  0  0  0  0  0  0  0  0  0  0
   -1.6035   -4.9970    2.1933 C   0  0  0  0  0  0  0  0  0  0  0  0
   -0.2779   -5.1281    2.5975 C   0  0  0  0  0  0  0  0  0  0  0  0
    0.5954   -4.0524    2.4981 C   0  0  0  0  0  0  0  0  0  0  0  0
    0.1433   -2.8382    1.9922 C   0  0  0  0  0  0  0  0  0  0  0  0
   -1.1986   -2.7129    1.5859 C   0  0  0  0  0  0  0  0  0  0  0  0
   -1.6901   -1.4406    1.0504 C   0  0  0  0  0  0  0  0  0  0  0  0
   -2.9815   -1.3239    0.6605 C   0  0  0  0  0  0  0  0  0  0  0  0
   -3.4560   -0.0957    0.1436 C   0  0  0  0  0  0  0  0  0  0  0  0
   -2.7035    0.8560    0.0493 O   0  0  0  0  0  0  0  0  0  0  0  0
   -4.7433    0.0207   -0.2451 O   0  0  0  0  0  0  0  0  0  0  0  0
   -5.1540    1.2899   -0.7575 C   0  0  0  0  0  0  0  0  0  0  0  0
   -6.2729    1.0885   -1.7815 C   0  0  0  0  0  0  0  0  0  0  0  0
   -5.8105    0.1306   -2.8490 C   0  0  0  0  0  0  0  0  0  0  0  0
   -6.3502   -0.9434   -2.9720 O   0  0  0  0  0  0  0  0  0  0  0  0
   -4.7989    0.4705   -3.6633 O   0  0  0  0  0  0  0  0  0  0  0  0
   -7.4258    0.5534   -1.1283 O   0  0  0  0  0  0  0  0  0  0  0  0
   -5.6570    2.1494    0.3736 C   0  0  0  0  0  0  0  0  0  0  0  0
   -5.6630    1.7192    1.5027 O   0  0  0  0  0  0  0  0  0  0  0  0
   -6.0982    3.3928    0.1267 O   0  0  0  0  0  0  0  0  0  0  0  0
    1.2417   -1.4667    1.8621 S   0  0  0  0  0  0  0  0  0  0  0  0
    1.9434   -1.6622    0.2007 C   0  0  0  0  0  0  0  0  0  0  0  0
    2.9348   -0.5289   -0.0707 C   0  0  0  0  0  0  0  0  0  0  0  0
    3.5178   -0.6913   -1.4509 C   0  0  0  0  0  0  0  0  0  0  0  0
    3.3685    0.1823   -2.2788 O   0  0  0  0  0  0  0  0  0  0  0  0
    4.2050   -1.8073   -1.7652 N   0  0  0  0  0  0  0  0  0  0  0  0
    4.7717   -1.9651   -3.1069 C   0  0  0  0  0  0  0  0  0  0  0  0
    5.4852   -3.2894   -3.1982 C   0  0  0  0  0  0  0  0  0  0  0  0
    5.5170   -4.0257   -2.2408 O   0  0  0  0  0  0  0  0  0  0  0  0
    6.0853   -3.6508   -4.3432 O   0  0  0  0  0  0  0  0  0  0  0  0
    2.2412    0.7584    0.0181 N   0  0  0  0  0  0  0  0  0  0  0  0
    2.9313    1.8764    0.3186 C   0  0  0  0  0  0  0  0  0  0  0  0
    4.1266    1.8167    0.5155 O   0  0  0  0  0  0  0  0  0  0  0  0
    2.2178    3.2007    0.4099 C   0  0  0  0  0  0  0  0  0  0  0  0
    3.2236    4.2987    0.7618 C   0  0  0  0  0  0  0  0  0  0  0  0
    2.4992    5.6431    0.8545 C   0  0  0  0  0  0  0  0  0  0  0  0
    3.4643    6.7027    1.3203 C   0  0  0  0  0  0  0  0  0  0  0  0
    3.9691    7.4540    0.5200 O   0  0  0  0  0  0  0  0  0  0  0  0
    3.7631    6.8117    2.6244 O   0  0  0  0  0  0  0  0  0  0  0  0
    1.9724    6.0077   -0.4674 N   0  0  0  0  0  0  0  0  0  0  0  0
    1.8905   -4.1862    2.8953 O   0  0  0  0  0  0  0  0  0  0  0  0
    0.1637   -6.3137    3.0920 O   0  0  0  0  0  0  0  0  0  0  0  0
   -3.0912   -3.7215    1.3805 H   0  0  0  0  0  0  0  0  0  0  0  0
   -2.2744   -5.8395    2.2747 H   0  0  0  0  0  0  0  0  0  0  0  0
   -1.0223   -0.5960    0.9667 H   0  0  0  0  0  0  0  0  0  0  0  0
   -3.6493   -2.1685    0.7441 H   0  0  0  0  0  0  0  0  0  0  0  0
   -4.3065    1.7797   -1.2370 H   0  0  0  0  0  0  0  0  0  0  0  0
   -6.5251    2.0461   -2.2371 H   0  0  0  0  0  0  0  0  0  0  0  0
   -4.5377   -0.1767   -4.3326 H   0  0  0  0  0  0  0  0  0  0  0  0
   -7.2743   -0.3000   -0.6997 H   0  0  0  0  0  0  0  0  0  0  0  0
   -6.4110    3.9061    0.8842 H   0  0  0  0  0  0  0  0  0  0  0  0
    2.4595   -2.6200    0.1347 H   0  0  0  0  0  0  0  0  0  0  0  0
    1.1427   -1.6292   -0.5381 H   0  0  0  0  0  0  0  0  0  0  0  0
    3.7356   -0.5619    0.6681 H   0  0  0  0  0  0  0  0  0  0  0  0
    4.3243   -2.5060   -1.1030 H   0  0  0  0  0  0  0  0  0  0  0  0
    3.9709   -1.9321   -3.8457 H   0  0  0  0  0  0  0  0  0  0  0  0
    5.4780   -1.1578   -3.3002 H   0  0  0  0  0  0  0  0  0  0  0  0
    6.5302   -4.5093   -4.3536 H   0  0  0  0  0  0  0  0  0  0  0  0
    1.2853    0.8062   -0.1394 H   0  0  0  0  0  0  0  0  0  0  0  0
    1.7512    3.4288   -0.5483 H   0  0  0  0  0  0  0  0  0  0  0  0
    1.4519    3.1481    1.1837 H   0  0  0  0  0  0  0  0  0  0  0  0
    3.6902    4.0705    1.7201 H   0  0  0  0  0  0  0  0  0  0  0  0
    3.9895    4.3513   -0.0120 H   0  0  0  0  0  0  0  0  0  0  0  0
    1.6760    5.5641    1.5645 H   0  0  0  0  0  0  0  0  0  0  0  0
    4.3873    7.5065    2.8751 H   0  0  0  0  0  0  0  0  0  0  0  0
    2.7167    6.0873   -1.1439 H   0  0  0  0  0  0  0  0  0  0  0  0
    1.2746    5.3463   -0.7736 H   0  0  0  0  0  0  0  0  0  0  0  0
    2.4882   -4.4816    2.1949 H   0  0  0  0  0  0  0  0  0  0  0  0
    0.5148   -6.9139    2.4200 H   0  0  0  0  0  0  0  0  0  0  0  0
  1  2  2  0  0  0  0
  2  3  1  0  0  0  0
  3  4  2  0  0  0  0
  4  5  1  0  0  0  0
  5  6  2  0  0  0  0
  1  6  1  0  0  0  0
  6  7  1  0  0  0  0
  7  8  2  0  0  0  0
  8  9  1  0  0  0  0
  9 10  2  0  0  0  0
  9 11  1  0  0  0  0
 11 12  1  0  0  0  0
 12 13  1  0  0  0  0
 13 14  1  0  0  0  0
 14 15  2  0  0  0  0
 14 16  1  0  0  0  0
 13 17  1  0  0  0  0
 12 18  1  0  0  0  0
 18 19  2  0  0  0  0
 18 20  1  0  0  0  0
  5 21  1  0  0  0  0
 21 22  1  0  0  0  0
 22 23  1  0  0  0  0
 23 24  1  0  0  0  0
 24 25  2  0  0  0  0
 24 26  1  0  0  0  0
 26 27  1  0  0  0  0
 27 28  1  0  0  0  0
 28 29  2  0  0  0  0
 28 30  1  0  0  0  0
 23 31  1  0  0  0  0
 31 32  1  0  0  0  0
 32 33  2  0  0  0  0
 32 34  1  0  0  0  0
 34 35  1  0  0  0  0
 35 36  1  0  0  0  0
 36 37  1  0  0  0  0
 37 38  2  0  0  0  0
 37 39  1  0  0  0  0
 36 40  1  0  0  0  0
  4 41  1  0  0  0  0
  3 42  1  0  0  0  0
  1 43  1  0  0  0  0
  2 44  1  0  0  0  0
  7 45  1  0  0  0  0
  8 46  1  0  0  0  0
 12 47  1  0  0  0  0
 13 48  1  0  0  0  0
 16 49  1  0  0  0  0
 17 50  1  0  0  0  0
 20 51  1  0  0  0  0
 22 52  1  0  0  0  0
 22 53  1  0  0  0  0
 23 54  1  0  0  0  0
 26 55  1  0  0  0  0
 27 56  1  0  0  0  0
 27 57  1  0  0  0  0
 30 58  1  0  0  0  0
 31 59  1  0  0  0  0
 34 60  1  0  0  0  0
 34 61  1  0  0  0  0
 35 62  1  0  0  0  0
 35 63  1  0  0  0  0
 36 64  1  0  0  0  0
 39 65  1  0  0  0  0
 40 66  1  0  0  0  0
 40 67  1  0  0  0  0
 41 68  1  0  0  0  0
 42 69  1  0  0  0  0
M  END
$$$$
