C17H12O5
APtclcactv06281817343D 0   0.00000     0.00000
 
 34 38  0  0  0  0  0  0  0  0999 V2000
   -6.7390    1.1162   -0.1992 C   0  0  0  0  0  0  0  0  0  0  0  0
   -5.9884   -0.0888   -0.0361 O   0  0  0  0  0  0  0  0  0  0  0  0
   -4.6350    0.0267   -0.0066 C   0  0  0  0  0  0  0  0  0  0  0  0
   -3.8523   -1.1079    0.1493 C   0  0  0  0  0  0  0  0  0  0  0  0
   -2.4729   -0.9996    0.1807 C   0  0  0  0  0  0  0  0  0  0  0  0
   -1.8866    0.2721    0.0367 C   0  0  0  0  0  0  0  0  0  0  0  0
   -2.6734    1.4041   -0.1125 C   0  0  0  0  0  0  0  0  0  0  0  0
   -4.0488    1.2794   -0.1386 C   0  0  0  0  0  0  0  0  0  0  0  0
   -0.4107    0.3233    0.0338 C   0  0  0  0  0  0  0  0  0  0  0  0
    0.2910   -0.8507   -0.0909 C   0  0  0  0  0  0  0  0  0  0  0  0
   -0.4066   -2.1744   -0.2368 C   0  0  0  0  0  0  0  0  0  0  0  0
   -1.6986   -2.0957    0.3716 O   0  0  0  0  0  0  0  0  0  0  0  0
    1.6860   -0.4920   -0.0441 C   0  0  0  0  0  0  0  0  0  0  0  0
    2.8571   -1.2663   -0.1162 C   0  0  0  0  0  0  0  0  0  0  0  0
    4.0378   -0.5390   -0.0297 C   0  0  0  0  0  0  0  0  0  0  0  0
    4.0612    0.8597    0.1163 C   0  0  0  0  0  0  0  0  0  0  0  0
    2.9062    1.6347    0.1860 C   0  0  0  0  0  0  0  0  0  0  0  0
    1.7101    0.9192    0.1016 C   0  0  0  0  0  0  0  0  0  0  0  0
    0.4381    1.3513    0.1350 O   0  0  0  0  0  0  0  0  0  0  0  0
    5.3525    1.2676    0.1724 O   0  0  0  0  0  0  0  0  0  0  0  0
    6.1292    0.1642   -0.3367 C   0  0  0  0  0  0  0  0  0  0  0  0
    5.3138   -0.9941   -0.0650 O   0  0  0  0  0  0  0  0  0  0  0  0
   -6.4649    1.5903   -1.1416 H   0  0  0  0  0  0  0  0  0  0  0  0
   -7.8037    0.8830   -0.2060 H   0  0  0  0  0  0  0  0  0  0  0  0
   -6.5208    1.7946    0.6257 H   0  0  0  0  0  0  0  0  0  0  0  0
   -4.3198   -2.0766    0.2467 H   0  0  0  0  0  0  0  0  0  0  0  0
   -2.2138    2.3765   -0.2109 H   0  0  0  0  0  0  0  0  0  0  0  0
   -4.6686    2.1562   -0.2542 H   0  0  0  0  0  0  0  0  0  0  0  0
   -0.5166   -2.4133   -1.2946 H   0  0  0  0  0  0  0  0  0  0  0  0
    0.1803   -2.9512    0.2535 H   0  0  0  0  0  0  0  0  0  0  0  0
    2.8404   -2.3402   -0.2293 H   0  0  0  0  0  0  0  0  0  0  0  0
    2.9335    2.7086    0.2973 H   0  0  0  0  0  0  0  0  0  0  0  0
    6.2913    0.2740   -1.4089 H   0  0  0  0  0  0  0  0  0  0  0  0
    7.0813    0.0928    0.1891 H   0  0  0  0  0  0  0  0  0  0  0  0
  1  2  1  0  0  0  0
  2  3  1  0  0  0  0
  3  4  2  0  0  0  0
  4  5  1  0  0  0  0
  5  6  2  0  0  0  0
  6  7  1  0  0  0  0
  7  8  2  0  0  0  0
  3  8  1  0  0  0  0
  6  9  1  0  0  0  0
  9 10  2  0  0  0  0
 10 11  1  0  0  0  0
 11 12  1  0  0  0  0
  5 12  1  0  0  0  0
 10 13  1  0  0  0  0
 13 14  2  0  0  0  0
 14 15  1  0  0  0  0
 15 16  2  0  0  0  0
 16 17  1  0  0  0  0
 17 18  2  0  0  0  0
 13 18  1  0  0  0  0
 18 19  1  0  0  0  0
  9 19  1  0  0  0  0
 16 20  1  0  0  0  0
 20 21  1  0  0  0  0
 21 22  1  0  0  0  0
 15 22  1  0  0  0  0
  1 23  1  0  0  0  0
  1 24  1  0  0  0  0
  1 25  1  0  0  0  0
  4 26  1  0  0  0  0
  7 27  1  0  0  0  0
  8 28  1  0  0  0  0
 11 29  1  0  0  0  0
 11 30  1  0  0  0  0
 14 31  1  0  0  0  0
 17 32  1  0  0  0  0
 21 33  1  0  0  0  0
 21 34  1  0  0  0  0
M  END
$$$$
