C19H16O5
APtclcactv06291803063D 0   0.00000     0.00000
 
 40 43  0  0  0  0  0  0  0  0999 V2000
   -4.6070    1.0273    1.7443 C   0  0  0  0  0  0  0  0  0  0  0  0
   -4.6056    1.1792    0.2219 C   0  0  0  0  0  0  0  0  0  0  0  0
   -3.5566    2.1835   -0.1772 C   0  0  0  0  0  0  0  0  0  0  0  0
   -2.3098    1.7819   -0.4181 C   0  0  0  0  0  0  0  0  0  0  0  0
   -2.0056    0.3408   -0.2932 C   0  0  0  0  0  0  0  0  0  0  0  0
   -0.6898   -0.1189   -0.1925 C   0  0  0  0  0  0  0  0  0  0  0  0
   -0.4576   -1.4999   -0.0754 C   0  0  0  0  0  0  0  0  0  0  0  0
   -1.5288   -2.3977   -0.0594 C   0  0  0  0  0  0  0  0  0  0  0  0
   -2.8254   -1.9317   -0.1599 C   0  0  0  0  0  0  0  0  0  0  0  0
   -3.0696   -0.5666   -0.2776 C   0  0  0  0  0  0  0  0  0  0  0  0
   -4.3382   -0.0886   -0.3786 O   0  0  0  0  0  0  0  0  0  0  0  0
   -3.8654   -2.8088   -0.1445 O   0  0  0  0  0  0  0  0  0  0  0  0
    0.9976   -1.6504    0.0074 C   0  0  0  0  0  0  0  0  0  0  0  0
    1.5095   -0.3989   -0.0633 C   0  0  0  0  0  0  0  0  0  0  0  0
    0.5096    0.4972   -0.1805 O   0  0  0  0  0  0  0  0  0  0  0  0
    2.9488   -0.0654   -0.0184 C   0  0  0  0  0  0  0  0  0  0  0  0
    3.3616    1.2649   -0.0999 C   0  0  0  0  0  0  0  0  0  0  0  0
    4.7113    1.5730   -0.0576 C   0  0  0  0  0  0  0  0  0  0  0  0
    5.6523    0.5609    0.0652 C   0  0  0  0  0  0  0  0  0  0  0  0
    5.2462   -0.7634    0.1461 C   0  0  0  0  0  0  0  0  0  0  0  0
    3.8982   -1.0797    0.1112 C   0  0  0  0  0  0  0  0  0  0  0  0
    6.1721   -1.7510    0.2653 O   0  0  0  0  0  0  0  0  0  0  0  0
    5.1144    2.8684   -0.1368 O   0  0  0  0  0  0  0  0  0  0  0  0
   -5.9789    1.6724   -0.2383 C   0  0  0  0  0  0  0  0  0  0  0  0
   -4.8292    1.9898    2.2053 H   0  0  0  0  0  0  0  0  0  0  0  0
   -5.3654    0.3009    2.0363 H   0  0  0  0  0  0  0  0  0  0  0  0
   -3.6274    0.6831    2.0760 H   0  0  0  0  0  0  0  0  0  0  0  0
   -3.8152    3.2281   -0.2684 H   0  0  0  0  0  0  0  0  0  0  0  0
   -1.5427    2.4892   -0.6972 H   0  0  0  0  0  0  0  0  0  0  0  0
   -1.3424   -3.4577    0.0312 H   0  0  0  0  0  0  0  0  0  0  0  0
   -4.2100   -2.9949    0.7396 H   0  0  0  0  0  0  0  0  0  0  0  0
    1.5501   -2.5732    0.1052 H   0  0  0  0  0  0  0  0  0  0  0  0
    2.6298    2.0533   -0.1962 H   0  0  0  0  0  0  0  0  0  0  0  0
    6.7040    0.8045    0.0976 H   0  0  0  0  0  0  0  0  0  0  0  0
    3.5829   -2.1107    0.1742 H   0  0  0  0  0  0  0  0  0  0  0  0
    6.3978   -1.9702    1.1797 H   0  0  0  0  0  0  0  0  0  0  0  0
    5.1881    3.3105    0.7200 H   0  0  0  0  0  0  0  0  0  0  0  0
   -6.1926    2.6359    0.2243 H   0  0  0  0  0  0  0  0  0  0  0  0
   -5.9810    1.7816   -1.3228 H   0  0  0  0  0  0  0  0  0  0  0  0
   -6.7413    0.9510    0.0557 H   0  0  0  0  0  0  0  0  0  0  0  0
  1  2  1  0  0  0  0
  2  3  1  0  0  0  0
  3  4  2  0  0  0  0
  4  5  1  0  0  0  0
  5  6  2  0  0  0  0
  6  7  1  0  0  0  0
  7  8  2  0  0  0  0
  8  9  1  0  0  0  0
  9 10  2  0  0  0  0
  5 10  1  0  0  0  0
 10 11  1  0  0  0  0
  2 11  1  0  0  0  0
  9 12  1  0  0  0  0
  7 13  1  0  0  0  0
 13 14  2  0  0  0  0
 14 15  1  0  0  0  0
  6 15  1  0  0  0  0
 14 16  1  0  0  0  0
 16 17  2  0  0  0  0
 17 18  1  0  0  0  0
 18 19  2  0  0  0  0
 19 20  1  0  0  0  0
 20 21  2  0  0  0  0
 16 21  1  0  0  0  0
 20 22  1  0  0  0  0
 18 23  1  0  0  0  0
  2 24  1  0  0  0  0
  1 25  1  0  0  0  0
  1 26  1  0  0  0  0
  1 27  1  0  0  0  0
  3 28  1  0  0  0  0
  4 29  1  0  0  0  0
  8 30  1  0  0  0  0
 12 31  1  0  0  0  0
 13 32  1  0  0  0  0
 17 33  1  0  0  0  0
 19 34  1  0  0  0  0
 21 35  1  0  0  0  0
 22 36  1  0  0  0  0
 23 37  1  0  0  0  0
 24 38  1  0  0  0  0
 24 39  1  0  0  0  0
 24 40  1  0  0  0  0
M  END
$$$$
