C5H4N4O2
APtclcactv06211804333D 0   0.00000     0.00000
 
 15 16  0  0  0  0  0  0  0  0999 V2000
    2.7044   -0.6109   -0.0003 C   0  0  0  0  0  0  0  0  0  0  0  0
    1.7617   -1.5186   -0.0001 N   0  0  0  0  0  0  0  0  0  0  0  0
    0.5643   -0.9275    0.0002 C   0  0  0  0  0  0  0  0  0  0  0  0
    0.7824    0.4446    0.0002 C   0  0  0  0  0  0  0  0  0  0  0  0
    2.1520    0.6180   -0.0001 N   0  0  0  0  0  0  0  0  0  0  0  0
   -0.3270    1.3173    0.0002 C   0  0  0  0  0  0  0  0  0  0  0  0
   -0.1616    2.5240   -0.0002 O   0  0  0  0  0  0  0  0  0  0  0  0
   -1.5728    0.7991    0.0001 N   0  0  0  0  0  0  0  0  0  0  0  0
   -1.7694   -0.5306    0.0001 C   0  0  0  0  0  0  0  0  0  0  0  0
   -2.9064   -0.9616   -0.0000 O   0  0  0  0  0  0  0  0  0  0  0  0
   -0.7391   -1.3973   -0.0002 N   0  0  0  0  0  0  0  0  0  0  0  0
    3.7648   -0.8159    0.0035 H   0  0  0  0  0  0  0  0  0  0  0  0
    2.6266    1.4639    0.0003 H   0  0  0  0  0  0  0  0  0  0  0  0
   -2.3381    1.3952    0.0004 H   0  0  0  0  0  0  0  0  0  0  0  0
   -0.9096   -2.3522   -0.0007 H   0  0  0  0  0  0  0  0  0  0  0  0
  1  2  2  0  0  0  0
  2  3  1  0  0  0  0
  3  4  2  0  0  0  0
  4  5  1  0  0  0  0
  1  5  1  0  0  0  0
  4  6  1  0  0  0  0
  6  7  2  0  0  0  0
  6  8  1  0  0  0  0
  8  9  1  0  0  0  0
  9 10  2  0  0  0  0
  9 11  1  0  0  0  0
  3 11  1  0  0  0  0
  1 12  1  0  0  0  0
  5 13  1  0  0  0  0
  8 14  1  0  0  0  0
 11 15  1  0  0  0  0
M  END
$$$$
