C6H6O3
APtclcactv06211806023D 0   0.00000     0.00000
 
 15 15  0  0  0  0  0  0  0  0999 V2000
    3.2030    0.5025   -0.0004 C   0  0  0  0  0  0  0  0  0  0  0  0
    1.7760    0.7709   -0.0012 O   0  0  0  0  0  0  0  0  0  0  0  0
    0.9520   -0.2972   -0.0003 C   0  0  0  0  0  0  0  0  0  0  0  0
    1.4145   -1.4220    0.0011 O   0  0  0  0  0  0  0  0  0  0  0  0
   -0.4997   -0.1022   -0.0009 C   0  0  0  0  0  0  0  0  0  0  0  0
   -1.4428   -1.0910   -0.0001 C   0  0  0  0  0  0  0  0  0  0  0  0
   -2.6936   -0.4552   -0.0007 C   0  0  0  0  0  0  0  0  0  0  0  0
   -2.4631    0.8767   -0.0018 C   0  0  0  0  0  0  0  0  0  0  0  0
   -1.1404    1.0853    0.0035 O   0  0  0  0  0  0  0  0  0  0  0  0
    3.7499    1.4454   -0.0013 H   0  0  0  0  0  0  0  0  0  0  0  0
    3.4648   -0.0686    0.8903 H   0  0  0  0  0  0  0  0  0  0  0  0
    3.4654   -0.0706   -0.8897 H   0  0  0  0  0  0  0  0  0  0  0  0
   -1.2607   -2.1555    0.0005 H   0  0  0  0  0  0  0  0  0  0  0  0
   -3.6591   -0.9392   -0.0006 H   0  0  0  0  0  0  0  0  0  0  0  0
   -3.2211    1.6460   -0.0030 H   0  0  0  0  0  0  0  0  0  0  0  0
  1  2  1  0  0  0  0
  2  3  1  0  0  0  0
  3  4  2  0  0  0  0
  3  5  1  0  0  0  0
  5  6  2  0  0  0  0
  6  7  1  0  0  0  0
  7  8  2  0  0  0  0
  8  9  1  0  0  0  0
  5  9  1  0  0  0  0
  1 10  1  0  0  0  0
  1 11  1  0  0  0  0
  1 12  1  0  0  0  0
  6 13  1  0  0  0  0
  7 14  1  0  0  0  0
  8 15  1  0  0  0  0
M  END
$$$$
