C20H22O6
APtclcactv06211806373D 0   0.00000     0.00000
 
 48 50  0  0  0  0  0  0  0  0999 V2000
    5.0026    2.7408   -0.5383 C   0  0  0  0  0  0  0  0  0  0  0  0
    5.7341    1.5155   -0.4634 O   0  0  0  0  0  0  0  0  0  0  0  0
    5.0093    0.3659   -0.4120 C   0  0  0  0  0  0  0  0  0  0  0  0
    5.6565   -0.8637   -0.3379 C   0  0  0  0  0  0  0  0  0  0  0  0
    4.9135   -2.0322   -0.2858 C   0  0  0  0  0  0  0  0  0  0  0  0
    3.5325   -1.9747   -0.3074 C   0  0  0  0  0  0  0  0  0  0  0  0
    2.8895   -0.7531   -0.3814 C   0  0  0  0  0  0  0  0  0  0  0  0
    3.6247    0.4168   -0.4275 C   0  0  0  0  0  0  0  0  0  0  0  0
    1.3837   -0.6962   -0.4051 C   0  0  0  0  0  0  0  0  0  0  0  0
    0.8544   -0.6001    1.0271 C   0  0  0  0  0  0  0  0  0  0  0  0
    1.2558    0.7455    1.6734 C   0  0  0  0  0  0  0  0  0  0  0  0
    0.1434    1.6394    1.3730 O   0  0  0  0  0  0  0  0  0  0  0  0
   -0.9975    0.9394    1.2986 C   0  0  0  0  0  0  0  0  0  0  0  0
   -2.1065    1.4036    1.4196 O   0  0  0  0  0  0  0  0  0  0  0  0
   -0.6884   -0.5191    1.0394 C   0  0  0  0  0  0  0  0  0  0  0  0
   -1.2551   -0.9512   -0.3146 C   0  0  0  0  0  0  0  0  0  0  0  0
   -2.7607   -0.9083   -0.2657 C   0  0  0  0  0  0  0  0  0  0  0  0
   -3.4293    0.2501   -0.6153 C   0  0  0  0  0  0  0  0  0  0  0  0
   -4.8136    0.2912   -0.5710 C   0  0  0  0  0  0  0  0  0  0  0  0
   -5.5277   -0.8353   -0.1741 C   0  0  0  0  0  0  0  0  0  0  0  0
   -4.8514   -1.9931    0.1749 C   0  0  0  0  0  0  0  0  0  0  0  0
   -3.4704   -2.0292    0.1231 C   0  0  0  0  0  0  0  0  0  0  0  0
   -6.8865   -0.7997   -0.1286 O   0  0  0  0  0  0  0  0  0  0  0  0
   -5.4729    1.4301   -0.9141 O   0  0  0  0  0  0  0  0  0  0  0  0
   -4.6750    2.5472   -1.3109 C   0  0  0  0  0  0  0  0  0  0  0  0
    7.0152   -0.9186   -0.3172 O   0  0  0  0  0  0  0  0  0  0  0  0
    4.3872    2.7421   -1.4379 H   0  0  0  0  0  0  0  0  0  0  0  0
    4.3634    2.8366    0.3394 H   0  0  0  0  0  0  0  0  0  0  0  0
    5.6993    3.5783   -0.5735 H   0  0  0  0  0  0  0  0  0  0  0  0
    5.4134   -2.9879   -0.2287 H   0  0  0  0  0  0  0  0  0  0  0  0
    2.9545   -2.8862   -0.2667 H   0  0  0  0  0  0  0  0  0  0  0  0
    3.1199    1.3698   -0.4852 H   0  0  0  0  0  0  0  0  0  0  0  0
    1.0620    0.1783   -0.9708 H   0  0  0  0  0  0  0  0  0  0  0  0
    0.9935   -1.5979   -0.8770 H   0  0  0  0  0  0  0  0  0  0  0  0
    1.2071   -1.4393    1.6267 H   0  0  0  0  0  0  0  0  0  0  0  0
    1.3715    0.6306    2.7511 H   0  0  0  0  0  0  0  0  0  0  0  0
    2.1771    1.1215    1.2287 H   0  0  0  0  0  0  0  0  0  0  0  0
   -1.0946   -1.1407    1.8374 H   0  0  0  0  0  0  0  0  0  0  0  0
   -0.8973   -0.2747   -1.0907 H   0  0  0  0  0  0  0  0  0  0  0  0
   -0.9276   -1.9664   -0.5382 H   0  0  0  0  0  0  0  0  0  0  0  0
   -2.8727    1.1231   -0.9226 H   0  0  0  0  0  0  0  0  0  0  0  0
   -5.4032   -2.8688    0.4833 H   0  0  0  0  0  0  0  0  0  0  0  0
   -2.9444   -2.9323    0.3954 H   0  0  0  0  0  0  0  0  0  0  0  0
   -7.3147   -1.0627   -0.9547 H   0  0  0  0  0  0  0  0  0  0  0  0
   -4.0111    2.8281   -0.4933 H   0  0  0  0  0  0  0  0  0  0  0  0
   -4.0816    2.2777   -2.1846 H   0  0  0  0  0  0  0  0  0  0  0  0
   -5.3236    3.3878   -1.5574 H   0  0  0  0  0  0  0  0  0  0  0  0
    7.3966   -0.8874    0.5708 H   0  0  0  0  0  0  0  0  0  0  0  0
  1  2  1  0  0  0  0
  2  3  1  0  0  0  0
  3  4  2  0  0  0  0
  4  5  1  0  0  0  0
  5  6  2  0  0  0  0
  6  7  1  0  0  0  0
  7  8  2  0  0  0  0
  3  8  1  0  0  0  0
  7  9  1  0  0  0  0
  9 10  1  0  0  0  0
 10 11  1  0  0  0  0
 11 12  1  0  0  0  0
 12 13  1  0  0  0  0
 13 14  2  0  0  0  0
 13 15  1  0  0  0  0
 10 15  1  0  0  0  0
 15 16  1  0  0  0  0
 16 17  1  0  0  0  0
 17 18  2  0  0  0  0
 18 19  1  0  0  0  0
 19 20  2  0  0  0  0
 20 21  1  0  0  0  0
 21 22  2  0  0  0  0
 17 22  1  0  0  0  0
 20 23  1  0  0  0  0
 19 24  1  0  0  0  0
 24 25  1  0  0  0  0
  4 26  1  0  0  0  0
  1 27  1  0  0  0  0
  1 28  1  0  0  0  0
  1 29  1  0  0  0  0
  5 30  1  0  0  0  0
  6 31  1  0  0  0  0
  8 32  1  0  0  0  0
  9 33  1  0  0  0  0
  9 34  1  0  0  0  0
 10 35  1  0  0  0  0
 11 36  1  0  0  0  0
 11 37  1  0  0  0  0
 15 38  1  0  0  0  0
 16 39  1  0  0  0  0
 16 40  1  0  0  0  0
 18 41  1  0  0  0  0
 21 42  1  0  0  0  0
 22 43  1  0  0  0  0
 23 44  1  0  0  0  0
 25 45  1  0  0  0  0
 25 46  1  0  0  0  0
 25 47  1  0  0  0  0
 26 48  1  0  0  0  0
M  END
$$$$
