C43H42O22
APtclcactv06281817343D 0   0.00000     0.00000
 
107112  0  0  0  0  0  0  0  0999 V2000
   -6.3189    3.2134   -2.2225 C   0  0  0  0  0  0  0  0  0  0  0  0
   -7.5646    3.7272   -2.5045 C   0  0  0  0  0  0  0  0  0  0  0  0
   -7.7930    4.3802   -3.7103 C   0  0  0  0  0  0  0  0  0  0  0  0
   -6.7662    4.5180   -4.6373 C   0  0  0  0  0  0  0  0  0  0  0  0
   -5.5169    4.0078   -4.3650 C   0  0  0  0  0  0  0  0  0  0  0  0
   -5.2814    3.3498   -3.1521 C   0  0  0  0  0  0  0  0  0  0  0  0
   -3.9492    2.8035   -2.8560 C   0  0  0  0  0  0  0  0  0  0  0  0
   -3.7247    2.1694   -1.6856 C   0  0  0  0  0  0  0  0  0  0  0  0
   -2.3981    1.6254   -1.3907 C   0  0  0  0  0  0  0  0  0  0  0  0
   -1.5217    1.6637   -2.2372 O   0  0  0  0  0  0  0  0  0  0  0  0
   -2.1233    1.0338   -0.0760 C   0  0  0  0  0  0  0  0  0  0  0  0
   -0.8201    0.6446    0.2389 C   0  0  0  0  0  0  0  0  0  0  0  0
   -0.4756    0.0691    1.4802 C   0  0  0  0  0  0  0  0  0  0  0  0
    0.8515   -0.2968    1.7247 C   0  0  0  0  0  0  0  0  0  0  0  0
    1.8586    0.0770    0.8248 C   0  0  0  0  0  0  0  0  0  0  0  0
    2.4976   -0.9107    0.0532 C   0  0  0  0  0  0  0  0  0  0  0  0
    3.5136   -0.6120   -0.8682 C   0  0  0  0  0  0  0  0  0  0  0  0
    4.1070   -1.6564   -1.6062 C   0  0  0  0  0  0  0  0  0  0  0  0
    3.4528   -2.8946   -1.7223 C   0  0  0  0  0  0  0  0  0  0  0  0
    4.0734   -3.9360   -2.3358 C   0  0  0  0  0  0  0  0  0  0  0  0
    3.3467   -5.1882   -2.5692 C   0  0  0  0  0  0  0  0  0  0  0  0
    3.9844   -6.2643   -3.2018 C   0  0  0  0  0  0  0  0  0  0  0  0
    3.3001   -7.4327   -3.4169 C   0  0  0  0  0  0  0  0  0  0  0  0
    1.9755   -7.5513   -3.0092 C   0  0  0  0  0  0  0  0  0  0  0  0
    1.3375   -6.4868   -2.3809 C   0  0  0  0  0  0  0  0  0  0  0  0
    2.0135   -5.3156   -2.1553 C   0  0  0  0  0  0  0  0  0  0  0  0
    1.3030   -8.7098   -3.2255 O   0  0  0  0  0  0  0  0  0  0  0  0
    5.3031   -1.4671   -2.2010 O   0  0  0  0  0  0  0  0  0  0  0  0
    3.9533    0.7189   -1.0707 C   0  0  0  0  0  0  0  0  0  0  0  0
    4.8328    0.9654   -1.8708 O   0  0  0  0  0  0  0  0  0  0  0  0
    3.3053    1.8275   -0.2707 C   0  0  0  0  0  0  0  0  0  0  0  0
    2.2121    1.4454    0.7032 C   0  0  0  0  0  0  0  0  0  0  0  0
    1.6550    2.2913    1.3726 O   0  0  0  0  0  0  0  0  0  0  0  0
    4.4067    2.5439    0.5132 C   0  0  0  0  0  0  0  0  0  0  0  0
    5.1393    1.5355    1.4020 C   0  0  0  0  0  0  0  0  0  0  0  0
    6.2784    2.2480    2.1377 C   0  0  0  0  0  0  0  0  0  0  0  0
    7.2079    2.8987    1.1085 C   0  0  0  0  0  0  0  0  0  0  0  0
    6.3954    3.8545    0.2311 C   0  0  0  0  0  0  0  0  0  0  0  0
    5.3343    3.1344   -0.3996 O   0  0  0  0  0  0  0  0  0  0  0  0
    5.8097    4.9703    1.0987 C   0  0  0  0  0  0  0  0  0  0  0  0
    5.2011    5.9553    0.2611 O   0  0  0  0  0  0  0  0  0  0  0  0
    8.2340    3.6274    1.7853 O   0  0  0  0  0  0  0  0  0  0  0  0
    5.7374    3.2538    2.9965 O   0  0  0  0  0  0  0  0  0  0  0  0
    4.2260    0.9861    2.3540 O   0  0  0  0  0  0  0  0  0  0  0  0
    2.7526    2.7672   -1.1945 O   0  0  0  0  0  0  0  0  0  0  0  0
    2.1193   -2.1958    0.2051 O   0  0  0  0  0  0  0  0  0  0  0  0
   -1.4551   -0.1437    2.4840 C   0  0  0  0  0  0  0  0  0  0  0  0
   -1.1537   -0.6385    3.5509 O   0  0  0  0  0  0  0  0  0  0  0  0
   -2.8843    0.2610    2.1944 C   0  0  0  0  0  0  0  0  0  0  0  0
   -3.1802    0.8761    0.8443 C   0  0  0  0  0  0  0  0  0  0  0  0
   -4.3087    1.2208    0.5554 O   0  0  0  0  0  0  0  0  0  0  0  0
   -3.7631   -0.9819    2.3496 C   0  0  0  0  0  0  0  0  0  0  0  0
   -3.3035   -2.0585    1.3631 C   0  0  0  0  0  0  0  0  0  0  0  0
   -4.1483   -3.3200    1.5659 C   0  0  0  0  0  0  0  0  0  0  0  0
   -4.0241   -3.7756    3.0230 C   0  0  0  0  0  0  0  0  0  0  0  0
   -4.4559   -2.6326    3.9455 C   0  0  0  0  0  0  0  0  0  0  0  0
   -3.6510   -1.4812    3.6839 O   0  0  0  0  0  0  0  0  0  0  0  0
   -5.9261   -2.2967    3.6878 C   0  0  0  0  0  0  0  0  0  0  0  0
   -6.3688   -1.3313    4.6439 O   0  0  0  0  0  0  0  0  0  0  0  0
   -4.8653   -4.9098    3.2421 O   0  0  0  0  0  0  0  0  0  0  0  0
   -5.5164   -3.0318    1.2701 O   0  0  0  0  0  0  0  0  0  0  0  0
   -3.4690   -1.5828    0.0258 O   0  0  0  0  0  0  0  0  0  0  0  0
   -3.2840    1.1996    3.1951 O   0  0  0  0  0  0  0  0  0  0  0  0
    0.1493    0.8258   -0.6814 O   0  0  0  0  0  0  0  0  0  0  0  0
   -9.0232    4.8847   -3.9838 O   0  0  0  0  0  0  0  0  0  0  0  0
   -6.1414    2.7099   -1.2837 H   0  0  0  0  0  0  0  0  0  0  0  0
   -8.3658    3.6225   -1.7879 H   0  0  0  0  0  0  0  0  0  0  0  0
   -6.9489    5.0258   -5.5727 H   0  0  0  0  0  0  0  0  0  0  0  0
   -4.7200    4.1147   -5.0861 H   0  0  0  0  0  0  0  0  0  0  0  0
   -3.1501    2.9095   -3.5748 H   0  0  0  0  0  0  0  0  0  0  0  0
   -4.5238    2.0634   -0.9668 H   0  0  0  0  0  0  0  0  0  0  0  0
    1.1005   -0.8674    2.6072 H   0  0  0  0  0  0  0  0  0  0  0  0
    2.4566   -3.0183   -1.3240 H   0  0  0  0  0  0  0  0  0  0  0  0
    5.1019   -3.8416   -2.6515 H   0  0  0  0  0  0  0  0  0  0  0  0
    5.0126   -6.1731   -3.5195 H   0  0  0  0  0  0  0  0  0  0  0  0
    3.7904   -8.2625   -3.9043 H   0  0  0  0  0  0  0  0  0  0  0  0
    0.3088   -6.5845   -2.0667 H   0  0  0  0  0  0  0  0  0  0  0  0
    1.5173   -4.4899   -1.6671 H   0  0  0  0  0  0  0  0  0  0  0  0
    1.3769   -9.3483   -2.5030 H   0  0  0  0  0  0  0  0  0  0  0  0
    5.5915   -2.2095   -2.7495 H   0  0  0  0  0  0  0  0  0  0  0  0
    3.9633    3.3216    1.1350 H   0  0  0  0  0  0  0  0  0  0  0  0
    5.5484    0.7357    0.7848 H   0  0  0  0  0  0  0  0  0  0  0  0
    6.8392    1.5245    2.7294 H   0  0  0  0  0  0  0  0  0  0  0  0
    7.6588    2.1264    0.4853 H   0  0  0  0  0  0  0  0  0  0  0  0
    7.0433    4.2882   -0.5307 H   0  0  0  0  0  0  0  0  0  0  0  0
    5.0606    4.5524    1.7713 H   0  0  0  0  0  0  0  0  0  0  0  0
    6.6056    5.4319    1.6830 H   0  0  0  0  0  0  0  0  0  0  0  0
    4.8079    6.6945    0.7449 H   0  0  0  0  0  0  0  0  0  0  0  0
    8.8603    4.0664    1.1935 H   0  0  0  0  0  0  0  0  0  0  0  0
    6.4043    3.7460    3.4946 H   0  0  0  0  0  0  0  0  0  0  0  0
    4.6030    0.2826    2.9000 H   0  0  0  0  0  0  0  0  0  0  0  0
    2.0843    2.3924   -1.7844 H   0  0  0  0  0  0  0  0  0  0  0  0
    1.2136   -2.4198   -0.0493 H   0  0  0  0  0  0  0  0  0  0  0  0
   -4.8014   -0.7208    2.1451 H   0  0  0  0  0  0  0  0  0  0  0  0
   -2.2534   -2.2909    1.5406 H   0  0  0  0  0  0  0  0  0  0  0  0
   -3.7896   -4.1093    0.9052 H   0  0  0  0  0  0  0  0  0  0  0  0
   -2.9886   -4.0427    3.2342 H   0  0  0  0  0  0  0  0  0  0  0  0
   -4.3289   -2.9364    4.9846 H   0  0  0  0  0  0  0  0  0  0  0  0
   -6.0349   -1.8890    2.6828 H   0  0  0  0  0  0  0  0  0  0  0  0
   -6.5271   -3.2014    3.7800 H   0  0  0  0  0  0  0  0  0  0  0  0
   -7.2943   -1.0708    4.5403 H   0  0  0  0  0  0  0  0  0  0  0  0
   -4.8364   -5.2522    4.1460 H   0  0  0  0  0  0  0  0  0  0  0  0
   -6.1097   -3.7877    1.3778 H   0  0  0  0  0  0  0  0  0  0  0  0
   -3.1969   -2.2153   -0.6532 H   0  0  0  0  0  0  0  0  0  0  0  0
   -2.7442    2.0015    3.2202 H   0  0  0  0  0  0  0  0  0  0  0  0
    0.2569    0.1334   -1.3478 H   0  0  0  0  0  0  0  0  0  0  0  0
   -9.1477    5.7981   -3.6916 H   0  0  0  0  0  0  0  0  0  0  0  0
  1  2  2  0  0  0  0
  2  3  1  0  0  0  0
  3  4  2  0  0  0  0
  4  5  1  0  0  0  0
  5  6  2  0  0  0  0
  1  6  1  0  0  0  0
  6  7  1  0  0  0  0
  7  8  2  0  0  0  0
  8  9  1  0  0  0  0
  9 10  2  0  0  0  0
  9 11  1  0  0  0  0
 11 12  2  0  0  0  0
 12 13  1  0  0  0  0
 13 14  2  0  0  0  0
 14 15  1  0  0  0  0
 15 16  2  0  0  0  0
 16 17  1  0  0  0  0
 17 18  2  0  0  0  0
 18 19  1  0  0  0  0
 19 20  2  0  0  0  0
 20 21  1  0  0  0  0
 21 22  2  0  0  0  0
 22 23  1  0  0  0  0
 23 24  2  0  0  0  0
 24 25  1  0  0  0  0
 25 26  2  0  0  0  0
 21 26  1  0  0  0  0
 24 27  1  0  0  0  0
 18 28  1  0  0  0  0
 17 29  1  0  0  0  0
 29 30  2  0  0  0  0
 29 31  1  0  0  0  0
 31 32  1  0  0  0  0
 15 32  1  0  0  0  0
 32 33  2  0  0  0  0
 31 34  1  0  0  0  0
 34 35  1  0  0  0  0
 35 36  1  0  0  0  0
 36 37  1  0  0  0  0
 37 38  1  0  0  0  0
 38 39  1  0  0  0  0
 34 39  1  0  0  0  0
 38 40  1  0  0  0  0
 40 41  1  0  0  0  0
 37 42  1  0  0  0  0
 36 43  1  0  0  0  0
 35 44  1  0  0  0  0
 31 45  1  0  0  0  0
 16 46  1  0  0  0  0
 13 47  1  0  0  0  0
 47 48  2  0  0  0  0
 47 49  1  0  0  0  0
 49 50  1  0  0  0  0
 11 50  1  0  0  0  0
 50 51  2  0  0  0  0
 49 52  1  0  0  0  0
 52 53  1  0  0  0  0
 53 54  1  0  0  0  0
 54 55  1  0  0  0  0
 55 56  1  0  0  0  0
 56 57  1  0  0  0  0
 52 57  1  0  0  0  0
 56 58  1  0  0  0  0
 58 59  1  0  0  0  0
 55 60  1  0  0  0  0
 54 61  1  0  0  0  0
 53 62  1  0  0  0  0
 49 63  1  0  0  0  0
 12 64  1  0  0  0  0
  3 65  1  0  0  0  0
  1 66  1  0  0  0  0
  2 67  1  0  0  0  0
  4 68  1  0  0  0  0
  5 69  1  0  0  0  0
  7 70  1  0  0  0  0
  8 71  1  0  0  0  0
 14 72  1  0  0  0  0
 19 73  1  0  0  0  0
 20 74  1  0  0  0  0
 22 75  1  0  0  0  0
 23 76  1  0  0  0  0
 25 77  1  0  0  0  0
 26 78  1  0  0  0  0
 27 79  1  0  0  0  0
 28 80  1  0  0  0  0
 34 81  1  0  0  0  0
 35 82  1  0  0  0  0
 36 83  1  0  0  0  0
 37 84  1  0  0  0  0
 38 85  1  0  0  0  0
 40 86  1  0  0  0  0
 40 87  1  0  0  0  0
 41 88  1  0  0  0  0
 42 89  1  0  0  0  0
 43 90  1  0  0  0  0
 44 91  1  0  0  0  0
 45 92  1  0  0  0  0
 46 93  1  0  0  0  0
 52 94  1  0  0  0  0
 53 95  1  0  0  0  0
 54 96  1  0  0  0  0
 55 97  1  0  0  0  0
 56 98  1  0  0  0  0
 58 99  1  0  0  0  0
 58100  1  0  0  0  0
 59101  1  0  0  0  0
 60102  1  0  0  0  0
 61103  1  0  0  0  0
 62104  1  0  0  0  0
 63105  1  0  0  0  0
 64106  1  0  0  0  0
 65107  1  0  0  0  0
M  END
$$$$
