C26H28O15
APtclcactv06281817343D 0   0.00000     0.00000
 
 69 73  0  0  0  0  0  0  0  0999 V2000
   -3.3764    3.2755    0.9590 C   0  0  0  0  0  0  0  0  0  0  0  0
   -4.2988    2.1031    0.5578 C   0  0  0  0  0  0  0  0  0  0  0  0
   -3.3753    1.1545   -0.2388 C   0  0  0  0  0  0  0  0  0  0  0  0
   -2.0042    1.8660   -0.2246 C   0  0  0  0  0  0  0  0  0  0  0  0
   -2.0435    2.7197    0.9396 O   0  0  0  0  0  0  0  0  0  0  0  0
   -0.9488    0.9100   -0.1050 O   0  0  0  0  0  0  0  0  0  0  0  0
    0.3217    1.3815   -0.1841 C   0  0  0  0  0  0  0  0  0  0  0  0
    0.5409    2.7413   -0.3736 C   0  0  0  0  0  0  0  0  0  0  0  0
    1.8311    3.2323   -0.4552 C   0  0  0  0  0  0  0  0  0  0  0  0
    2.9129    2.3501   -0.3456 C   0  0  0  0  0  0  0  0  0  0  0  0
    2.6884    0.9756   -0.1540 C   0  0  0  0  0  0  0  0  0  0  0  0
    1.3884    0.5030   -0.0695 C   0  0  0  0  0  0  0  0  0  0  0  0
    3.7380    0.1330   -0.0509 O   0  0  0  0  0  0  0  0  0  0  0  0
    5.0092    0.5586   -0.1248 C   0  0  0  0  0  0  0  0  0  0  0  0
    5.3325    1.8670   -0.3084 C   0  0  0  0  0  0  0  0  0  0  0  0
    4.3028    2.8302   -0.4273 C   0  0  0  0  0  0  0  0  0  0  0  0
    4.5565    4.0125   -0.5927 O   0  0  0  0  0  0  0  0  0  0  0  0
    6.0967   -0.4303   -0.0016 C   0  0  0  0  0  0  0  0  0  0  0  0
    5.7961   -1.7820    0.1882 C   0  0  0  0  0  0  0  0  0  0  0  0
    6.8185   -2.7042    0.3025 C   0  0  0  0  0  0  0  0  0  0  0  0
    8.1460   -2.2858    0.2288 C   0  0  0  0  0  0  0  0  0  0  0  0
    8.4446   -0.9434    0.0403 C   0  0  0  0  0  0  0  0  0  0  0  0
    7.4299   -0.0187   -0.0802 C   0  0  0  0  0  0  0  0  0  0  0  0
    9.1500   -3.1939    0.3423 O   0  0  0  0  0  0  0  0  0  0  0  0
    6.5295   -4.0203    0.4872 O   0  0  0  0  0  0  0  0  0  0  0  0
    2.0472    4.5593   -0.6405 O   0  0  0  0  0  0  0  0  0  0  0  0
   -3.2863   -0.1170    0.4073 O   0  0  0  0  0  0  0  0  0  0  0  0
   -3.0681   -1.2096   -0.4874 C   0  0  0  0  0  0  0  0  0  0  0  0
   -2.8656   -2.4960    0.3175 C   0  0  0  0  0  0  0  0  0  0  0  0
   -4.1384   -2.7956    1.1154 C   0  0  0  0  0  0  0  0  0  0  0  0
   -5.3223   -2.8952    0.1485 C   0  0  0  0  0  0  0  0  0  0  0  0
   -5.4299   -1.5934   -0.6498 C   0  0  0  0  0  0  0  0  0  0  0  0
   -4.2027   -1.3585   -1.3433 O   0  0  0  0  0  0  0  0  0  0  0  0
   -6.5732   -1.7075   -1.6602 C   0  0  0  0  0  0  0  0  0  0  0  0
   -6.7493   -0.4543   -2.3239 O   0  0  0  0  0  0  0  0  0  0  0  0
   -5.1165   -3.9892   -0.7474 O   0  0  0  0  0  0  0  0  0  0  0  0
   -3.9852   -4.0335    1.8126 O   0  0  0  0  0  0  0  0  0  0  0  0
   -2.5947   -3.5795   -0.5740 O   0  0  0  0  0  0  0  0  0  0  0  0
   -4.8443    1.4000    1.8024 C   0  0  0  0  0  0  0  0  0  0  0  0
   -5.6205    2.3229    2.5691 O   0  0  0  0  0  0  0  0  0  0  0  0
   -5.3698    2.5679   -0.2661 O   0  0  0  0  0  0  0  0  0  0  0  0
   -3.4594    4.0878    0.2370 H   0  0  0  0  0  0  0  0  0  0  0  0
   -3.6255    3.6291    1.9595 H   0  0  0  0  0  0  0  0  0  0  0  0
   -3.7357    1.0401   -1.2611 H   0  0  0  0  0  0  0  0  0  0  0  0
   -1.8767    2.4621   -1.1282 H   0  0  0  0  0  0  0  0  0  0  0  0
   -0.2985    3.4157   -0.4576 H   0  0  0  0  0  0  0  0  0  0  0  0
    1.2059   -0.5512    0.0775 H   0  0  0  0  0  0  0  0  0  0  0  0
    6.3681    2.1688   -0.3620 H   0  0  0  0  0  0  0  0  0  0  0  0
    4.7671   -2.1048    0.2458 H   0  0  0  0  0  0  0  0  0  0  0  0
    9.4746   -0.6233   -0.0158 H   0  0  0  0  0  0  0  0  0  0  0  0
    7.6650    1.0251   -0.2269 H   0  0  0  0  0  0  0  0  0  0  0  0
    9.4302   -3.5777   -0.4999 H   0  0  0  0  0  0  0  0  0  0  0  0
    6.4351   -4.5213   -0.3344 H   0  0  0  0  0  0  0  0  0  0  0  0
    2.1192    5.0645    0.1809 H   0  0  0  0  0  0  0  0  0  0  0  0
   -2.1811   -1.0144   -1.0900 H   0  0  0  0  0  0  0  0  0  0  0  0
   -2.0276   -2.3688    1.0028 H   0  0  0  0  0  0  0  0  0  0  0  0
   -4.3180   -1.9927    1.8303 H   0  0  0  0  0  0  0  0  0  0  0  0
   -6.2412   -3.0533    0.7130 H   0  0  0  0  0  0  0  0  0  0  0  0
   -5.6273   -0.7649    0.0305 H   0  0  0  0  0  0  0  0  0  0  0  0
   -6.3339   -2.4769   -2.3943 H   0  0  0  0  0  0  0  0  0  0  0  0
   -7.4927   -1.9754   -1.1397 H   0  0  0  0  0  0  0  0  0  0  0  0
   -7.4594   -0.4532   -2.9803 H   0  0  0  0  0  0  0  0  0  0  0  0
   -5.0342   -4.8469   -0.3085 H   0  0  0  0  0  0  0  0  0  0  0  0
   -3.2479   -4.0439    2.4383 H   0  0  0  0  0  0  0  0  0  0  0  0
   -1.8034   -3.4548   -1.1156 H   0  0  0  0  0  0  0  0  0  0  0  0
   -5.4713    0.5611    1.5003 H   0  0  0  0  0  0  0  0  0  0  0  0
   -4.0140    1.0341    2.4063 H   0  0  0  0  0  0  0  0  0  0  0  0
   -5.9986    1.9447    3.3747 H   0  0  0  0  0  0  0  0  0  0  0  0
   -5.9464    3.2133    0.1653 H   0  0  0  0  0  0  0  0  0  0  0  0
  1  2  1  0  0  0  0
  2  3  1  0  0  0  0
  3  4  1  0  0  0  0
  4  5  1  0  0  0  0
  1  5  1  0  0  0  0
  4  6  1  0  0  0  0
  6  7  1  0  0  0  0
  7  8  2  0  0  0  0
  8  9  1  0  0  0  0
  9 10  2  0  0  0  0
 10 11  1  0  0  0  0
 11 12  2  0  0  0  0
  7 12  1  0  0  0  0
 11 13  1  0  0  0  0
 13 14  1  0  0  0  0
 14 15  2  0  0  0  0
 15 16  1  0  0  0  0
 10 16  1  0  0  0  0
 16 17  2  0  0  0  0
 14 18  1  0  0  0  0
 18 19  2  0  0  0  0
 19 20  1  0  0  0  0
 20 21  2  0  0  0  0
 21 22  1  0  0  0  0
 22 23  2  0  0  0  0
 18 23  1  0  0  0  0
 21 24  1  0  0  0  0
 20 25  1  0  0  0  0
  9 26  1  0  0  0  0
  3 27  1  0  0  0  0
 27 28  1  0  0  0  0
 28 29  1  0  0  0  0
 29 30  1  0  0  0  0
 30 31  1  0  0  0  0
 31 32  1  0  0  0  0
 32 33  1  0  0  0  0
 28 33  1  0  0  0  0
 32 34  1  0  0  0  0
 34 35  1  0  0  0  0
 31 36  1  0  0  0  0
 30 37  1  0  0  0  0
 29 38  1  0  0  0  0
  2 39  1  0  0  0  0
 39 40  1  0  0  0  0
  2 41  1  0  0  0  0
  1 42  1  0  0  0  0
  1 43  1  0  0  0  0
  3 44  1  0  0  0  0
  4 45  1  0  0  0  0
  8 46  1  0  0  0  0
 12 47  1  0  0  0  0
 15 48  1  0  0  0  0
 19 49  1  0  0  0  0
 22 50  1  0  0  0  0
 23 51  1  0  0  0  0
 24 52  1  0  0  0  0
 25 53  1  0  0  0  0
 26 54  1  0  0  0  0
 28 55  1  0  0  0  0
 29 56  1  0  0  0  0
 30 57  1  0  0  0  0
 31 58  1  0  0  0  0
 32 59  1  0  0  0  0
 34 60  1  0  0  0  0
 34 61  1  0  0  0  0
 35 62  1  0  0  0  0
 36 63  1  0  0  0  0
 37 64  1  0  0  0  0
 38 65  1  0  0  0  0
 39 66  1  0  0  0  0
 39 67  1  0  0  0  0
 40 68  1  0  0  0  0
 41 69  1  0  0  0  0
M  END
$$$$
