C30H33O20
APtclcactv06281817343D 0   0.00000     0.00000
 
 83 87  0  0  0  0  0  0  0  0999 V2000
    4.2734    2.9927   -1.3215 C   0  0  0  0  0  0  0  0  0  0  0  0
    3.7007    1.9606   -0.5766 C   0  0  0  0  0  0  0  0  0  0  0  0
    4.3911    1.4204    0.5095 C   0  0  0  0  0  0  0  0  0  0  0  0
    5.6408    1.9087    0.8454 C   0  0  0  0  0  0  0  0  0  0  0  0
    6.2097    2.9382    0.1016 C   0  0  0  0  0  0  0  0  0  0  0  0
    5.5233    3.4780   -0.9821 C   0  0  0  0  0  0  0  0  0  0  0  0
    6.0814    4.4843   -1.7070 O   0  0  0  0  0  0  0  0  0  0  0  0
    7.4383    3.4171    0.4338 O   0  0  0  0  0  0  0  0  0  0  0  0
    6.3140    1.3827    1.9036 O   0  0  0  0  0  0  0  0  0  0  0  0
    2.3638    1.4403   -0.9375 C   0  0  0  0  0  0  0  0  0  0  0  0
    2.1366    0.0543   -0.8603 C   0  0  0  0  0  0  0  0  0  0  0  0
    0.8854   -0.4133   -1.1995 C   0  0  0  0  0  0  0  0  0  0  0  0
   -0.0449    0.5710   -1.5938 C   0  0  0  0  0  0  0  0  0  0  0  0
   -1.3591    0.2342   -1.9661 C   0  0  0  0  0  0  0  0  0  0  0  0
   -2.2287    1.2201   -2.3413 C   0  0  0  0  0  0  0  0  0  0  0  0
   -1.8224    2.5559   -2.3581 C   0  0  0  0  0  0  0  0  0  0  0  0
   -0.5411    2.9126   -1.9987 C   0  0  0  0  0  0  0  0  0  0  0  0
    0.3758    1.9250   -1.6075 C   0  0  0  0  0  0  0  0  0  0  0  0
    1.5102    2.2248   -1.2819 O   0  3  0  0  0  0  0  0  0  0  0  0
   -2.7037    3.5181   -2.7349 O   0  0  0  0  0  0  0  0  0  0  0  0
   -1.7614   -1.0623   -1.9532 O   0  0  0  0  0  0  0  0  0  0  0  0
   -3.1102   -1.3271   -2.3439 C   0  0  0  0  0  0  0  0  0  0  0  0
   -3.3416   -2.8398   -2.3873 C   0  0  0  0  0  0  0  0  0  0  0  0
   -3.1419   -3.4195   -0.9837 C   0  0  0  0  0  0  0  0  0  0  0  0
   -4.0924   -2.7137   -0.0117 C   0  0  0  0  0  0  0  0  0  0  0  0
   -3.8320   -1.2059   -0.0600 C   0  0  0  0  0  0  0  0  0  0  0  0
   -4.0047   -0.7366   -1.3987 O   0  0  0  0  0  0  0  0  0  0  0  0
   -4.8182   -0.4880    0.8636 C   0  0  0  0  0  0  0  0  0  0  0  0
   -4.4960    0.9271    0.9094 O   0  0  0  0  0  0  0  0  0  0  0  0
   -5.2723    1.7042    1.6810 C   0  0  0  0  0  0  0  0  0  0  0  0
   -6.1905    1.2180    2.2977 O   0  0  0  0  0  0  0  0  0  0  0  0
   -4.9985    3.1829    1.7780 C   0  0  0  0  0  0  0  0  0  0  0  0
   -6.0050    3.8206    2.7007 C   0  0  0  0  0  0  0  0  0  0  0  0
   -6.8573    3.1438    3.2255 O   0  0  0  0  0  0  0  0  0  0  0  0
   -5.9548    5.1406    2.9394 O   0  0  0  0  0  0  0  0  0  0  0  0
   -5.4449   -2.9771   -0.3905 O   0  0  0  0  0  0  0  0  0  0  0  0
   -3.4275   -4.8196   -0.9996 O   0  0  0  0  0  0  0  0  0  0  0  0
   -4.6742   -3.1065   -2.8290 O   0  0  0  0  0  0  0  0  0  0  0  0
    3.1198   -0.7967   -0.4642 O   0  0  0  0  0  0  0  0  0  0  0  0
    2.7941   -2.1873   -0.4170 C   0  0  0  0  0  0  0  0  0  0  0  0
    4.0489   -2.9942   -0.0736 C   0  0  0  0  0  0  0  0  0  0  0  0
    4.5447   -2.5855    1.3169 C   0  0  0  0  0  0  0  0  0  0  0  0
    3.4184   -2.8019    2.3323 C   0  0  0  0  0  0  0  0  0  0  0  0
    2.1879   -2.0024    1.8960 C   0  0  0  0  0  0  0  0  0  0  0  0
    1.7978   -2.4098    0.5830 O   0  0  0  0  0  0  0  0  0  0  0  0
    1.0390   -2.2607    2.8728 C   0  0  0  0  0  0  0  0  0  0  0  0
   -0.0709   -1.4269    2.5338 O   0  0  0  0  0  0  0  0  0  0  0  0
    3.0890   -4.1912    2.3913 O   0  0  0  0  0  0  0  0  0  0  0  0
    5.6728   -3.3856    1.6765 O   0  0  0  0  0  0  0  0  0  0  0  0
    3.7362   -4.3886   -0.0784 O   0  0  0  0  0  0  0  0  0  0  0  0
    3.7428    3.4091   -2.1650 H   0  0  0  0  0  0  0  0  0  0  0  0
    3.9497    0.6219    1.0874 H   0  0  0  0  0  0  0  0  0  0  0  0
    6.6195    4.1814   -2.4511 H   0  0  0  0  0  0  0  0  0  0  0  0
    8.1698    2.9615   -0.0047 H   0  0  0  0  0  0  0  0  0  0  0  0
    6.8846    0.6362    1.6750 H   0  0  0  0  0  0  0  0  0  0  0  0
    0.6340   -1.4631   -1.1660 H   0  0  0  0  0  0  0  0  0  0  0  0
   -3.2380    0.9636   -2.6275 H   0  0  0  0  0  0  0  0  0  0  0  0
   -0.2429    3.9505   -2.0179 H   0  0  0  0  0  0  0  0  0  0  0  0
   -3.2196    3.8866   -2.0048 H   0  0  0  0  0  0  0  0  0  0  0  0
   -3.2926   -0.9029   -3.3312 H   0  0  0  0  0  0  0  0  0  0  0  0
   -2.6305   -3.2974   -3.0750 H   0  0  0  0  0  0  0  0  0  0  0  0
   -2.1114   -3.2599   -0.6664 H   0  0  0  0  0  0  0  0  0  0  0  0
   -3.9182   -3.0813    0.9996 H   0  0  0  0  0  0  0  0  0  0  0  0
   -2.8126   -1.0024    0.2679 H   0  0  0  0  0  0  0  0  0  0  0  0
   -5.8317   -0.6178    0.4841 H   0  0  0  0  0  0  0  0  0  0  0  0
   -4.7490   -0.9090    1.8666 H   0  0  0  0  0  0  0  0  0  0  0  0
   -3.9941    3.3414    2.1707 H   0  0  0  0  0  0  0  0  0  0  0  0
   -5.0768    3.6327    0.7883 H   0  0  0  0  0  0  0  0  0  0  0  0
   -6.6215    5.5041    3.5380 H   0  0  0  0  0  0  0  0  0  0  0  0
   -5.6788   -3.9154   -0.3868 H   0  0  0  0  0  0  0  0  0  0  0  0
   -2.8663   -5.3287   -1.6004 H   0  0  0  0  0  0  0  0  0  0  0  0
   -4.8726   -2.7625   -3.7107 H   0  0  0  0  0  0  0  0  0  0  0  0
    2.4123   -2.5043   -1.3875 H   0  0  0  0  0  0  0  0  0  0  0  0
    4.8255   -2.7916   -0.8113 H   0  0  0  0  0  0  0  0  0  0  0  0
    4.8301   -1.5336    1.3076 H   0  0  0  0  0  0  0  0  0  0  0  0
    3.7440   -2.4618    3.3154 H   0  0  0  0  0  0  0  0  0  0  0  0
    2.4284   -0.9393    1.8903 H   0  0  0  0  0  0  0  0  0  0  0  0
    0.7392   -3.3069    2.8127 H   0  0  0  0  0  0  0  0  0  0  0  0
    1.3669   -2.0344    3.8874 H   0  0  0  0  0  0  0  0  0  0  0  0
   -0.8375   -1.5378    3.1128 H   0  0  0  0  0  0  0  0  0  0  0  0
    3.8252   -4.7590    2.6571 H   0  0  0  0  0  0  0  0  0  0  0  0
    6.4225   -3.3030    1.0713 H   0  0  0  0  0  0  0  0  0  0  0  0
    3.4108   -4.7158   -0.9282 H   0  0  0  0  0  0  0  0  0  0  0  0
  1  2  2  0  0  0  0
  2  3  1  0  0  0  0
  3  4  2  0  0  0  0
  4  5  1  0  0  0  0
  5  6  2  0  0  0  0
  1  6  1  0  0  0  0
  6  7  1  0  0  0  0
  5  8  1  0  0  0  0
  4  9  1  0  0  0  0
  2 10  1  0  0  0  0
 10 11  2  0  0  0  0
 11 12  1  0  0  0  0
 12 13  2  0  0  0  0
 13 14  1  0  0  0  0
 14 15  2  0  0  0  0
 15 16  1  0  0  0  0
 16 17  2  0  0  0  0
 17 18  1  0  0  0  0
 13 18  1  0  0  0  0
 18 19  2  0  0  0  0
 10 19  1  0  0  0  0
 16 20  1  0  0  0  0
 14 21  1  0  0  0  0
 21 22  1  0  0  0  0
 22 23  1  0  0  0  0
 23 24  1  0  0  0  0
 24 25  1  0  0  0  0
 25 26  1  0  0  0  0
 26 27  1  0  0  0  0
 22 27  1  0  0  0  0
 26 28  1  0  0  0  0
 28 29  1  0  0  0  0
 29 30  1  0  0  0  0
 30 31  2  0  0  0  0
 30 32  1  0  0  0  0
 32 33  1  0  0  0  0
 33 34  2  0  0  0  0
 33 35  1  0  0  0  0
 25 36  1  0  0  0  0
 24 37  1  0  0  0  0
 23 38  1  0  0  0  0
 11 39  1  0  0  0  0
 39 40  1  0  0  0  0
 40 41  1  0  0  0  0
 41 42  1  0  0  0  0
 42 43  1  0  0  0  0
 43 44  1  0  0  0  0
 44 45  1  0  0  0  0
 40 45  1  0  0  0  0
 44 46  1  0  0  0  0
 46 47  1  0  0  0  0
 43 48  1  0  0  0  0
 42 49  1  0  0  0  0
 41 50  1  0  0  0  0
  1 51  1  0  0  0  0
  3 52  1  0  0  0  0
  7 53  1  0  0  0  0
  8 54  1  0  0  0  0
  9 55  1  0  0  0  0
 12 56  1  0  0  0  0
 15 57  1  0  0  0  0
 17 58  1  0  0  0  0
 20 59  1  0  0  0  0
 22 60  1  0  0  0  0
 23 61  1  0  0  0  0
 24 62  1  0  0  0  0
 25 63  1  0  0  0  0
 26 64  1  0  0  0  0
 28 65  1  0  0  0  0
 28 66  1  0  0  0  0
 32 67  1  0  0  0  0
 32 68  1  0  0  0  0
 35 69  1  0  0  0  0
 36 70  1  0  0  0  0
 37 71  1  0  0  0  0
 38 72  1  0  0  0  0
 40 73  1  0  0  0  0
 41 74  1  0  0  0  0
 42 75  1  0  0  0  0
 43 76  1  0  0  0  0
 44 77  1  0  0  0  0
 46 78  1  0  0  0  0
 46 79  1  0  0  0  0
 47 80  1  0  0  0  0
 48 81  1  0  0  0  0
 49 82  1  0  0  0  0
 50 83  1  0  0  0  0
M  CHG  1  19   1
M  END
$$$$
