C8H8O3
APtclcactv06211806023D 0   0.00000     0.00000
 
 19 19  0  0  0  0  0  0  0  0999 V2000
   -2.2476    1.4709   -0.0521 C   0  0  0  0  0  0  0  0  0  0  0  0
   -2.8796    0.2945   -0.4097 C   0  0  0  0  0  0  0  0  0  0  0  0
   -2.2103   -0.9098   -0.3063 C   0  0  0  0  0  0  0  0  0  0  0  0
   -0.9030   -0.9378    0.1568 C   0  0  0  0  0  0  0  0  0  0  0  0
   -0.2709    0.2443    0.5151 C   0  0  0  0  0  0  0  0  0  0  0  0
   -0.9444    1.4456    0.4099 C   0  0  0  0  0  0  0  0  0  0  0  0
    1.1491    0.2174    1.0190 C   0  0  0  0  0  0  0  0  0  0  0  0
    2.0980    0.2340   -0.1516 C   0  0  0  0  0  0  0  0  0  0  0  0
    1.6655    0.2645   -1.2794 O   0  0  0  0  0  0  0  0  0  0  0  0
    3.4235    0.2149    0.0586 O   0  0  0  0  0  0  0  0  0  0  0  0
   -0.2427   -2.1211    0.2598 O   0  0  0  0  0  0  0  0  0  0  0  0
   -2.7710    2.4117   -0.1379 H   0  0  0  0  0  0  0  0  0  0  0  0
   -3.8975    0.3169   -0.7699 H   0  0  0  0  0  0  0  0  0  0  0  0
   -2.7046   -1.8285   -0.5855 H   0  0  0  0  0  0  0  0  0  0  0  0
   -0.4528    2.3659    0.6886 H   0  0  0  0  0  0  0  0  0  0  0  0
    1.3290    1.0914    1.6450 H   0  0  0  0  0  0  0  0  0  0  0  0
    1.3098   -0.6880    1.6042 H   0  0  0  0  0  0  0  0  0  0  0  0
    3.9923    0.2267   -0.7234 H   0  0  0  0  0  0  0  0  0  0  0  0
    0.2435   -2.3709   -0.5379 H   0  0  0  0  0  0  0  0  0  0  0  0
  1  2  2  0  0  0  0
  2  3  1  0  0  0  0
  3  4  2  0  0  0  0
  4  5  1  0  0  0  0
  5  6  2  0  0  0  0
  1  6  1  0  0  0  0
  5  7  1  0  0  0  0
  7  8  1  0  0  0  0
  8  9  2  0  0  0  0
  8 10  1  0  0  0  0
  4 11  1  0  0  0  0
  1 12  1  0  0  0  0
  2 13  1  0  0  0  0
  3 14  1  0  0  0  0
  6 15  1  0  0  0  0
  7 16  1  0  0  0  0
  7 17  1  0  0  0  0
 10 18  1  0  0  0  0
 11 19  1  0  0  0  0
M  END
$$$$
