C27H36O13
APtclcactv06281817343D 0   0.00000     0.00000
 
 76 78  0  0  0  0  0  0  0  0999 V2000
    6.1888    2.2118   -2.2431 C   0  0  0  0  0  0  0  0  0  0  0  0
    4.8728    2.0979   -1.6980 O   0  0  0  0  0  0  0  0  0  0  0  0
    4.5290    0.8970   -1.1603 C   0  0  0  0  0  0  0  0  0  0  0  0
    5.4389   -0.1457   -1.1588 C   0  0  0  0  0  0  0  0  0  0  0  0
    5.0855   -1.3777   -0.6070 C   0  0  0  0  0  0  0  0  0  0  0  0
    3.8149   -1.5552   -0.0579 C   0  0  0  0  0  0  0  0  0  0  0  0
    2.9085   -0.5096   -0.0618 C   0  0  0  0  0  0  0  0  0  0  0  0
    3.2651    0.7194   -0.6073 C   0  0  0  0  0  0  0  0  0  0  0  0
    2.3724    1.7461   -0.6095 O   0  0  0  0  0  0  0  0  0  0  0  0
    2.2921    2.5385    0.5769 C   0  0  0  0  0  0  0  0  0  0  0  0
    3.3780    3.6159    0.5450 C   0  0  0  0  0  0  0  0  0  0  0  0
    3.1207    4.5198   -0.5315 O   0  0  0  0  0  0  0  0  0  0  0  0
    0.9162    3.2033    0.6540 C   0  0  0  0  0  0  0  0  0  0  0  0
   -0.1560    2.1452    0.6119 C   0  0  0  0  0  0  0  0  0  0  0  0
   -0.5053    1.4708    1.7670 C   0  0  0  0  0  0  0  0  0  0  0  0
   -1.4909    0.4976    1.7299 C   0  0  0  0  0  0  0  0  0  0  0  0
   -2.1272    0.2015    0.5283 C   0  0  0  0  0  0  0  0  0  0  0  0
   -1.7723    0.8812   -0.6259 C   0  0  0  0  0  0  0  0  0  0  0  0
   -0.7921    1.8550   -0.5808 C   0  0  0  0  0  0  0  0  0  0  0  0
   -3.0949   -0.7531    0.4868 O   0  0  0  0  0  0  0  0  0  0  0  0
   -3.6595   -1.0493   -0.7921 C   0  0  0  0  0  0  0  0  0  0  0  0
   -4.4973   -2.3271   -0.6968 C   0  0  0  0  0  0  0  0  0  0  0  0
   -5.6545   -2.0978    0.2804 C   0  0  0  0  0  0  0  0  0  0  0  0
   -6.4782   -0.8965   -0.1937 C   0  0  0  0  0  0  0  0  0  0  0  0
   -5.5638    0.3260   -0.3085 C   0  0  0  0  0  0  0  0  0  0  0  0
   -4.4923    0.0349   -1.2081 O   0  0  0  0  0  0  0  0  0  0  0  0
   -6.3665    1.5155   -0.8390 C   0  0  0  0  0  0  0  0  0  0  0  0
   -5.5434    2.6837   -0.8389 O   0  0  0  0  0  0  0  0  0  0  0  0
   -7.0523   -1.1850   -1.4701 O   0  0  0  0  0  0  0  0  0  0  0  0
   -6.4841   -3.2606    0.3201 O   0  0  0  0  0  0  0  0  0  0  0  0
   -5.0190   -2.6534   -1.9865 O   0  0  0  0  0  0  0  0  0  0  0  0
   -1.8354   -0.1670    2.8653 O   0  0  0  0  0  0  0  0  0  0  0  0
   -1.1399    0.1890    4.0618 C   0  0  0  0  0  0  0  0  0  0  0  0
    0.8108    3.9399    1.8740 O   0  0  0  0  0  0  0  0  0  0  0  0
    1.6701   -0.6819    0.4732 O   0  0  0  0  0  0  0  0  0  0  0  0
    1.3324   -1.9977    0.9167 C   0  0  0  0  0  0  0  0  0  0  0  0
    6.0551   -2.4929   -0.6046 C   0  0  0  0  0  0  0  0  0  0  0  0
    5.7183   -3.6632   -0.0799 C   0  0  0  0  0  0  0  0  0  0  0  0
    6.7071   -4.8004   -0.0775 C   0  0  0  0  0  0  0  0  0  0  0  0
    6.7061   -5.4297    1.2055 O   0  0  0  0  0  0  0  0  0  0  0  0
    6.3328    3.2176   -2.6379 H   0  0  0  0  0  0  0  0  0  0  0  0
    6.9238    2.0197   -1.4614 H   0  0  0  0  0  0  0  0  0  0  0  0
    6.3138    1.4851   -3.0458 H   0  0  0  0  0  0  0  0  0  0  0  0
    6.4215   -0.0061   -1.5846 H   0  0  0  0  0  0  0  0  0  0  0  0
    3.5391   -2.5080    0.3694 H   0  0  0  0  0  0  0  0  0  0  0  0
    2.4375    1.9019    1.4496 H   0  0  0  0  0  0  0  0  0  0  0  0
    3.3746    4.1632    1.4877 H   0  0  0  0  0  0  0  0  0  0  0  0
    4.3512    3.1467    0.4008 H   0  0  0  0  0  0  0  0  0  0  0  0
    3.7712    5.2308   -0.6120 H   0  0  0  0  0  0  0  0  0  0  0  0
    0.7920    3.8804   -0.1911 H   0  0  0  0  0  0  0  0  0  0  0  0
   -0.0097    1.7023    2.6982 H   0  0  0  0  0  0  0  0  0  0  0  0
   -2.2646    0.6533   -1.5598 H   0  0  0  0  0  0  0  0  0  0  0  0
   -0.5164    2.3840   -1.4811 H   0  0  0  0  0  0  0  0  0  0  0  0
   -2.8593   -1.1927   -1.5183 H   0  0  0  0  0  0  0  0  0  0  0  0
   -3.8737   -3.1456   -0.3372 H   0  0  0  0  0  0  0  0  0  0  0  0
   -5.2572   -1.8976    1.2755 H   0  0  0  0  0  0  0  0  0  0  0  0
   -7.2712   -0.6920    0.5256 H   0  0  0  0  0  0  0  0  0  0  0  0
   -5.1581    0.5699    0.6733 H   0  0  0  0  0  0  0  0  0  0  0  0
   -6.6988    1.3053   -1.8556 H   0  0  0  0  0  0  0  0  0  0  0  0
   -7.2340    1.6823   -0.2004 H   0  0  0  0  0  0  0  0  0  0  0  0
   -6.0089    3.4928   -1.0911 H   0  0  0  0  0  0  0  0  0  0  0  0
   -7.6405   -1.9525   -1.4724 H   0  0  0  0  0  0  0  0  0  0  0  0
   -6.0247   -4.0620    0.6059 H   0  0  0  0  0  0  0  0  0  0  0  0
   -4.3402   -2.8073   -2.6579 H   0  0  0  0  0  0  0  0  0  0  0  0
   -0.0731    0.0088    3.9292 H   0  0  0  0  0  0  0  0  0  0  0  0
   -1.3060    1.2442    4.2783 H   0  0  0  0  0  0  0  0  0  0  0  0
   -1.5101   -0.4146    4.8905 H   0  0  0  0  0  0  0  0  0  0  0  0
    0.9117    3.3996    2.6697 H   0  0  0  0  0  0  0  0  0  0  0  0
    0.2925   -2.0155    1.2428 H   0  0  0  0  0  0  0  0  0  0  0  0
    1.4683   -2.7034    0.0972 H   0  0  0  0  0  0  0  0  0  0  0  0
    1.9788   -2.2779    1.7484 H   0  0  0  0  0  0  0  0  0  0  0  0
    7.0381   -2.3547   -1.0301 H   0  0  0  0  0  0  0  0  0  0  0  0
    4.7353   -3.8014    0.3456 H   0  0  0  0  0  0  0  0  0  0  0  0
    6.4261   -5.5278   -0.8391 H   0  0  0  0  0  0  0  0  0  0  0  0
    7.7039   -4.4156   -0.2927 H   0  0  0  0  0  0  0  0  0  0  0  0
    7.3208   -6.1724    1.2798 H   0  0  0  0  0  0  0  0  0  0  0  0
  1  2  1  0  0  0  0
  2  3  1  0  0  0  0
  3  4  2  0  0  0  0
  4  5  1  0  0  0  0
  5  6  2  0  0  0  0
  6  7  1  0  0  0  0
  7  8  2  0  0  0  0
  3  8  1  0  0  0  0
  8  9  1  0  0  0  0
  9 10  1  0  0  0  0
 10 11  1  0  0  0  0
 11 12  1  0  0  0  0
 10 13  1  0  0  0  0
 13 14  1  0  0  0  0
 14 15  2  0  0  0  0
 15 16  1  0  0  0  0
 16 17  2  0  0  0  0
 17 18  1  0  0  0  0
 18 19  2  0  0  0  0
 14 19  1  0  0  0  0
 17 20  1  0  0  0  0
 20 21  1  0  0  0  0
 21 22  1  0  0  0  0
 22 23  1  0  0  0  0
 23 24  1  0  0  0  0
 24 25  1  0  0  0  0
 25 26  1  0  0  0  0
 21 26  1  0  0  0  0
 25 27  1  0  0  0  0
 27 28  1  0  0  0  0
 24 29  1  0  0  0  0
 23 30  1  0  0  0  0
 22 31  1  0  0  0  0
 16 32  1  0  0  0  0
 32 33  1  0  0  0  0
 13 34  1  0  0  0  0
  7 35  1  0  0  0  0
 35 36  1  0  0  0  0
  5 37  1  0  0  0  0
 37 38  2  0  0  0  0
 38 39  1  0  0  0  0
 39 40  1  0  0  0  0
  1 41  1  0  0  0  0
  1 42  1  0  0  0  0
  1 43  1  0  0  0  0
  4 44  1  0  0  0  0
  6 45  1  0  0  0  0
 10 46  1  0  0  0  0
 11 47  1  0  0  0  0
 11 48  1  0  0  0  0
 12 49  1  0  0  0  0
 13 50  1  0  0  0  0
 15 51  1  0  0  0  0
 18 52  1  0  0  0  0
 19 53  1  0  0  0  0
 21 54  1  0  0  0  0
 22 55  1  0  0  0  0
 23 56  1  0  0  0  0
 24 57  1  0  0  0  0
 25 58  1  0  0  0  0
 27 59  1  0  0  0  0
 27 60  1  0  0  0  0
 28 61  1  0  0  0  0
 29 62  1  0  0  0  0
 30 63  1  0  0  0  0
 31 64  1  0  0  0  0
 33 65  1  0  0  0  0
 33 66  1  0  0  0  0
 33 67  1  0  0  0  0
 34 68  1  0  0  0  0
 36 69  1  0  0  0  0
 36 70  1  0  0  0  0
 36 71  1  0  0  0  0
 37 72  1  0  0  0  0
 38 73  1  0  0  0  0
 39 74  1  0  0  0  0
 39 75  1  0  0  0  0
 40 76  1  0  0  0  0
M  END
$$$$
