C6H8O7
APtclcactv06211804333D 0   0.00000     0.00000
 
 21 20  0  0  0  0  0  0  0  0999 V2000
    0.4777    0.8728   -0.4784 C   0  0  0  0  0  0  0  0  0  0  0  0
    0.0023   -0.3384    0.3266 C   0  0  0  0  0  0  0  0  0  0  0  0
   -1.4188   -0.7097   -0.1021 C   0  0  0  0  0  0  0  0  0  0  0  0
   -2.3628    0.4047    0.2693 C   0  0  0  0  0  0  0  0  0  0  0  0
   -2.9501    1.0120   -0.5945 O   0  0  0  0  0  0  0  0  0  0  0  0
   -2.5513    0.7226    1.5597 O   0  0  0  0  0  0  0  0  0  0  0  0
   -1.4524   -0.9110   -1.5164 O   0  0  0  0  0  0  0  0  0  0  0  0
    0.9240   -1.5033    0.0730 C   0  0  0  0  0  0  0  0  0  0  0  0
    1.4308   -1.6472   -1.0143 O   0  0  0  0  0  0  0  0  0  0  0  0
    1.1821   -2.3811    1.0552 O   0  0  0  0  0  0  0  0  0  0  0  0
    1.8267    1.3143    0.0278 C   0  0  0  0  0  0  0  0  0  0  0  0
    2.3538    0.7211    0.9390 O   0  0  0  0  0  0  0  0  0  0  0  0
    2.4428    2.3665   -0.5335 O   0  0  0  0  0  0  0  0  0  0  0  0
    0.5557    0.6014   -1.5312 H   0  0  0  0  0  0  0  0  0  0  0  0
   -0.2373    1.6877   -0.3653 H   0  0  0  0  0  0  0  0  0  0  0  0
    0.0092   -0.0940    1.3888 H   0  0  0  0  0  0  0  0  0  0  0  0
   -1.7226   -1.6267    0.4028 H   0  0  0  0  0  0  0  0  0  0  0  0
   -3.1664    1.4445    1.7487 H   0  0  0  0  0  0  0  0  0  0  0  0
   -1.1931   -0.1341   -2.0306 H   0  0  0  0  0  0  0  0  0  0  0  0
    1.7793   -3.1120    0.8451 H   0  0  0  0  0  0  0  0  0  0  0  0
    3.3066    2.6121   -0.1749 H   0  0  0  0  0  0  0  0  0  0  0  0
  1  2  1  0  0  0  0
  2  3  1  0  0  0  0
  3  4  1  0  0  0  0
  4  5  2  0  0  0  0
  4  6  1  0  0  0  0
  3  7  1  0  0  0  0
  2  8  1  0  0  0  0
  8  9  2  0  0  0  0
  8 10  1  0  0  0  0
  1 11  1  0  0  0  0
 11 12  2  0  0  0  0
 11 13  1  0  0  0  0
  1 14  1  0  0  0  0
  1 15  1  0  0  0  0
  2 16  1  0  0  0  0
  3 17  1  0  0  0  0
  6 18  1  0  0  0  0
  7 19  1  0  0  0  0
 10 20  1  0  0  0  0
 13 21  1  0  0  0  0
M  END
$$$$
