C28H46O
APtclcactv06281817343D 0   0.00000     0.00000
 
 75 78  0  0  0  0  0  0  0  0999 V2000
    8.4736   -0.4658   -1.3468 C   0  0  0  0  0  0  0  0  0  0  0  0
    7.0680   -1.0434   -1.1693 C   0  0  0  0  0  0  0  0  0  0  0  0
    7.1406   -2.3068   -0.3094 C   0  0  0  0  0  0  0  0  0  0  0  0
    6.1747   -0.0090   -0.4815 C   0  0  0  0  0  0  0  0  0  0  0  0
    6.1021    1.2544   -1.3414 C   0  0  0  0  0  0  0  0  0  0  0  0
    4.7691   -0.5866   -0.3040 C   0  0  0  0  0  0  0  0  0  0  0  0
    3.9105    0.3971    0.4936 C   0  0  0  0  0  0  0  0  0  0  0  0
    2.5049   -0.1805    0.6712 C   0  0  0  0  0  0  0  0  0  0  0  0
    2.5775   -1.4439    1.5311 C   0  0  0  0  0  0  0  0  0  0  0  0
    1.6155    0.8493    1.3559 C   0  0  0  0  0  0  0  0  0  0  0  0
    1.6861    2.1994    0.6255 C   0  0  0  0  0  0  0  0  0  0  0  0
    0.2969    2.4316    0.0071 C   0  0  0  0  0  0  0  0  0  0  0  0
   -0.2283    0.9962   -0.0976 C   0  0  0  0  0  0  0  0  0  0  0  0
    0.1230    0.4654    1.2867 C   0  0  0  0  0  0  0  0  0  0  0  0
   -0.2253   -1.0054    1.3742 C   0  0  0  0  0  0  0  0  0  0  0  0
   -1.6928   -1.2512    1.0347 C   0  0  0  0  0  0  0  0  0  0  0  0
   -2.4423   -0.0135    0.5770 C   0  0  0  0  0  0  0  0  0  0  0  0
   -1.6728    0.7800   -0.4632 C   0  0  0  0  0  0  0  0  0  0  0  0
   -2.4112    2.0885   -0.7730 C   0  0  0  0  0  0  0  0  0  0  0  0
   -3.7018    1.7599   -1.5214 C   0  0  0  0  0  0  0  0  0  0  0  0
   -4.3647    0.5276   -0.9785 C   0  0  0  0  0  0  0  0  0  0  0  0
   -5.5659    0.2058   -1.5318 C   0  0  0  0  0  0  0  0  0  0  0  0
   -6.2200   -0.9918   -0.9715 C   0  0  0  0  0  0  0  0  0  0  0  0
   -7.4059   -0.9941   -0.6967 O   0  0  0  0  0  0  0  0  0  0  0  0
   -5.3645   -2.2152   -0.7553 C   0  0  0  0  0  0  0  0  0  0  0  0
   -3.9790   -1.8413   -0.2424 C   0  0  0  0  0  0  0  0  0  0  0  0
   -3.8324   -0.3715    0.0759 C   0  0  0  0  0  0  0  0  0  0  0  0
   -4.7016   -0.1252    1.3112 C   0  0  0  0  0  0  0  0  0  0  0  0
   -0.5524    1.2462    2.4219 C   0  0  0  0  0  0  0  0  0  0  0  0
    8.8903   -0.2175   -0.3707 H   0  0  0  0  0  0  0  0  0  0  0  0
    9.1100   -1.2027   -1.8368 H   0  0  0  0  0  0  0  0  0  0  0  0
    8.4218    0.4343   -1.9594 H   0  0  0  0  0  0  0  0  0  0  0  0
    6.6512   -1.2917   -2.1454 H   0  0  0  0  0  0  0  0  0  0  0  0
    7.5573   -2.0585    0.6667 H   0  0  0  0  0  0  0  0  0  0  0  0
    6.1392   -2.7183   -0.1829 H   0  0  0  0  0  0  0  0  0  0  0  0
    7.7770   -3.0437   -0.7994 H   0  0  0  0  0  0  0  0  0  0  0  0
    6.5914    0.2393    0.4946 H   0  0  0  0  0  0  0  0  0  0  0  0
    5.4657    1.9913   -0.8514 H   0  0  0  0  0  0  0  0  0  0  0  0
    7.1035    1.6659   -1.4679 H   0  0  0  0  0  0  0  0  0  0  0  0
    5.6853    1.0061   -2.3175 H   0  0  0  0  0  0  0  0  0  0  0  0
    4.3180   -0.7521   -1.2824 H   0  0  0  0  0  0  0  0  0  0  0  0
    4.8304   -1.5333    0.2327 H   0  0  0  0  0  0  0  0  0  0  0  0
    4.3615    0.5626    1.4720 H   0  0  0  0  0  0  0  0  0  0  0  0
    3.8492    1.3438   -0.0430 H   0  0  0  0  0  0  0  0  0  0  0  0
    2.0881   -0.4288   -0.3049 H   0  0  0  0  0  0  0  0  0  0  0  0
    3.1119   -2.2231    0.9876 H   0  0  0  0  0  0  0  0  0  0  0  0
    3.1041   -1.2219    2.4593 H   0  0  0  0  0  0  0  0  0  0  0  0
    1.5682   -1.7868    1.7590 H   0  0  0  0  0  0  0  0  0  0  0  0
    1.9070    0.9745    2.4000 H   0  0  0  0  0  0  0  0  0  0  0  0
    1.9173    2.9950    1.3336 H   0  0  0  0  0  0  0  0  0  0  0  0
    2.4425    2.1617   -0.1576 H   0  0  0  0  0  0  0  0  0  0  0  0
   -0.3249    3.0669    0.6242 H   0  0  0  0  0  0  0  0  0  0  0  0
    0.4015    2.8699   -0.9928 H   0  0  0  0  0  0  0  0  0  0  0  0
    0.3950    0.4687   -0.8548 H   0  0  0  0  0  0  0  0  0  0  0  0
    0.3875   -1.5927    0.6773 H   0  0  0  0  0  0  0  0  0  0  0  0
   -0.0199   -1.3751    2.3880 H   0  0  0  0  0  0  0  0  0  0  0  0
   -1.7357   -2.0128    0.2416 H   0  0  0  0  0  0  0  0  0  0  0  0
   -2.1920   -1.6772    1.9147 H   0  0  0  0  0  0  0  0  0  0  0  0
   -2.6496    0.6247    1.4344 H   0  0  0  0  0  0  0  0  0  0  0  0
   -1.6908    0.1834   -1.4000 H   0  0  0  0  0  0  0  0  0  0  0  0
   -2.6464    2.6063    0.1563 H   0  0  0  0  0  0  0  0  0  0  0  0
   -1.7809    2.7246   -1.3951 H   0  0  0  0  0  0  0  0  0  0  0  0
   -4.3937    2.5981   -1.4375 H   0  0  0  0  0  0  0  0  0  0  0  0
   -3.4720    1.5947   -2.5763 H   0  0  0  0  0  0  0  0  0  0  0  0
   -6.0062    0.7954   -2.3319 H   0  0  0  0  0  0  0  0  0  0  0  0
   -5.8546   -2.8711   -0.0287 H   0  0  0  0  0  0  0  0  0  0  0  0
   -5.2689   -2.7606   -1.6985 H   0  0  0  0  0  0  0  0  0  0  0  0
   -3.7674   -2.4266    0.6596 H   0  0  0  0  0  0  0  0  0  0  0  0
   -3.2372   -2.1170   -1.0014 H   0  0  0  0  0  0  0  0  0  0  0  0
   -4.3474   -0.7458    2.1343 H   0  0  0  0  0  0  0  0  0  0  0  0
   -4.6397    0.9252    1.5954 H   0  0  0  0  0  0  0  0  0  0  0  0
   -5.7368   -0.3797    1.0837 H   0  0  0  0  0  0  0  0  0  0  0  0
   -1.6186    1.3383    2.2154 H   0  0  0  0  0  0  0  0  0  0  0  0
   -0.4091    0.7156    3.3632 H   0  0  0  0  0  0  0  0  0  0  0  0
   -0.1091    2.2394    2.4936 H   0  0  0  0  0  0  0  0  0  0  0  0
  1  2  1  0  0  0  0
  2  3  1  0  0  0  0
  2  4  1  0  0  0  0
  4  5  1  0  0  0  0
  4  6  1  0  0  0  0
  6  7  1  0  0  0  0
  7  8  1  0  0  0  0
  8  9  1  0  0  0  0
  8 10  1  0  0  0  0
 10 11  1  0  0  0  0
 11 12  1  0  0  0  0
 12 13  1  0  0  0  0
 13 14  1  0  0  0  0
 10 14  1  0  0  0  0
 14 15  1  0  0  0  0
 15 16  1  0  0  0  0
 16 17  1  0  0  0  0
 17 18  1  0  0  0  0
 13 18  1  0  0  0  0
 18 19  1  0  0  0  0
 19 20  1  0  0  0  0
 20 21  1  0  0  0  0
 21 22  2  0  0  0  0
 22 23  1  0  0  0  0
 23 24  2  0  0  0  0
 23 25  1  0  0  0  0
 25 26  1  0  0  0  0
 26 27  1  0  0  0  0
 17 27  1  0  0  0  0
 21 27  1  0  0  0  0
 27 28  1  0  0  0  0
 14 29  1  0  0  0  0
  1 30  1  0  0  0  0
  1 31  1  0  0  0  0
  1 32  1  0  0  0  0
  2 33  1  0  0  0  0
  3 34  1  0  0  0  0
  3 35  1  0  0  0  0
  3 36  1  0  0  0  0
  4 37  1  0  0  0  0
  5 38  1  0  0  0  0
  5 39  1  0  0  0  0
  5 40  1  0  0  0  0
  6 41  1  0  0  0  0
  6 42  1  0  0  0  0
  7 43  1  0  0  0  0
  7 44  1  0  0  0  0
  8 45  1  0  0  0  0
  9 46  1  0  0  0  0
  9 47  1  0  0  0  0
  9 48  1  0  0  0  0
 10 49  1  0  0  0  0
 11 50  1  0  0  0  0
 11 51  1  0  0  0  0
 12 52  1  0  0  0  0
 12 53  1  0  0  0  0
 13 54  1  0  0  0  0
 15 55  1  0  0  0  0
 15 56  1  0  0  0  0
 16 57  1  0  0  0  0
 16 58  1  0  0  0  0
 17 59  1  0  0  0  0
 18 60  1  0  0  0  0
 19 61  1  0  0  0  0
 19 62  1  0  0  0  0
 20 63  1  0  0  0  0
 20 64  1  0  0  0  0
 22 65  1  0  0  0  0
 25 66  1  0  0  0  0
 25 67  1  0  0  0  0
 26 68  1  0  0  0  0
 26 69  1  0  0  0  0
 28 70  1  0  0  0  0
 28 71  1  0  0  0  0
 28 72  1  0  0  0  0
 29 73  1  0  0  0  0
 29 74  1  0  0  0  0
 29 75  1  0  0  0  0
M  END
$$$$
