C15H30O2
APtclcactv06211806373D 0   0.00000     0.00000
 
 47 46  0  0  0  0  0  0  0  0999 V2000
    9.7122   -0.4900   -0.0000 C   0  0  0  0  0  0  0  0  0  0  0  0
    8.4825    0.4203    0.0000 C   0  0  0  0  0  0  0  0  0  0  0  0
    7.2143   -0.4356   -0.0000 C   0  0  0  0  0  0  0  0  0  0  0  0
    5.9846    0.4747    0.0000 C   0  0  0  0  0  0  0  0  0  0  0  0
    4.7164   -0.3812   -0.0000 C   0  0  0  0  0  0  0  0  0  0  0  0
    3.4867    0.5292    0.0000 C   0  0  0  0  0  0  0  0  0  0  0  0
    2.2185   -0.3268   -0.0000 C   0  0  0  0  0  0  0  0  0  0  0  0
    0.9888    0.5836    0.0000 C   0  0  0  0  0  0  0  0  0  0  0  0
   -0.2794   -0.2723   -0.0000 C   0  0  0  0  0  0  0  0  0  0  0  0
   -1.5091    0.6380   -0.0000 C   0  0  0  0  0  0  0  0  0  0  0  0
   -2.7773   -0.2179   -0.0000 C   0  0  0  0  0  0  0  0  0  0  0  0
   -4.0070    0.6924   -0.0000 C   0  0  0  0  0  0  0  0  0  0  0  0
   -5.2561   -0.1506   -0.0000 C   0  0  0  0  0  0  0  0  0  0  0  0
   -5.1715   -1.3559    0.0000 O   0  0  0  0  0  0  0  0  0  0  0  0
   -6.4627    0.4375   -0.0000 O   0  0  0  0  0  0  0  0  0  0  0  0
   -7.6221   -0.4367    0.0000 C   0  0  0  0  0  0  0  0  0  0  0  0
   -8.8977    0.4081   -0.0000 C   0  0  0  0  0  0  0  0  0  0  0  0
    9.6984   -1.1192    0.8900 H   0  0  0  0  0  0  0  0  0  0  0  0
    9.6984   -1.1192   -0.8900 H   0  0  0  0  0  0  0  0  0  0  0  0
   10.6156    0.1197    0.0000 H   0  0  0  0  0  0  0  0  0  0  0  0
    8.4962    1.0495    0.8900 H   0  0  0  0  0  0  0  0  0  0  0  0
    8.4962    1.0495   -0.8900 H   0  0  0  0  0  0  0  0  0  0  0  0
    7.2006   -1.0648   -0.8900 H   0  0  0  0  0  0  0  0  0  0  0  0
    7.2006   -1.0648    0.8900 H   0  0  0  0  0  0  0  0  0  0  0  0
    5.9983    1.1039    0.8900 H   0  0  0  0  0  0  0  0  0  0  0  0
    5.9983    1.1039   -0.8900 H   0  0  0  0  0  0  0  0  0  0  0  0
    4.7027   -1.0103   -0.8900 H   0  0  0  0  0  0  0  0  0  0  0  0
    4.7027   -1.0103    0.8900 H   0  0  0  0  0  0  0  0  0  0  0  0
    3.5004    1.1583    0.8900 H   0  0  0  0  0  0  0  0  0  0  0  0
    3.5004    1.1583   -0.8900 H   0  0  0  0  0  0  0  0  0  0  0  0
    2.2048   -0.9559   -0.8900 H   0  0  0  0  0  0  0  0  0  0  0  0
    2.2048   -0.9559    0.8900 H   0  0  0  0  0  0  0  0  0  0  0  0
    1.0025    1.2128    0.8900 H   0  0  0  0  0  0  0  0  0  0  0  0
    1.0025    1.2128   -0.8900 H   0  0  0  0  0  0  0  0  0  0  0  0
   -0.2931   -0.9015   -0.8900 H   0  0  0  0  0  0  0  0  0  0  0  0
   -0.2931   -0.9015    0.8900 H   0  0  0  0  0  0  0  0  0  0  0  0
   -1.4954    1.2672    0.8900 H   0  0  0  0  0  0  0  0  0  0  0  0
   -1.4954    1.2672   -0.8900 H   0  0  0  0  0  0  0  0  0  0  0  0
   -2.7910   -0.8471   -0.8900 H   0  0  0  0  0  0  0  0  0  0  0  0
   -2.7910   -0.8471    0.8900 H   0  0  0  0  0  0  0  0  0  0  0  0
   -3.9933    1.3216    0.8900 H   0  0  0  0  0  0  0  0  0  0  0  0
   -3.9933    1.3216   -0.8900 H   0  0  0  0  0  0  0  0  0  0  0  0
   -7.6028   -1.0657   -0.8900 H   0  0  0  0  0  0  0  0  0  0  0  0
   -7.6028   -1.0657    0.8900 H   0  0  0  0  0  0  0  0  0  0  0  0
   -9.7681   -0.2482    0.0000 H   0  0  0  0  0  0  0  0  0  0  0  0
   -8.9170    1.0371    0.8900 H   0  0  0  0  0  0  0  0  0  0  0  0
   -8.9170    1.0371   -0.8900 H   0  0  0  0  0  0  0  0  0  0  0  0
  1  2  1  0  0  0  0
  2  3  1  0  0  0  0
  3  4  1  0  0  0  0
  4  5  1  0  0  0  0
  5  6  1  0  0  0  0
  6  7  1  0  0  0  0
  7  8  1  0  0  0  0
  8  9  1  0  0  0  0
  9 10  1  0  0  0  0
 10 11  1  0  0  0  0
 11 12  1  0  0  0  0
 12 13  1  0  0  0  0
 13 14  2  0  0  0  0
 13 15  1  0  0  0  0
 15 16  1  0  0  0  0
 16 17  1  0  0  0  0
  1 18  1  0  0  0  0
  1 19  1  0  0  0  0
  1 20  1  0  0  0  0
  2 21  1  0  0  0  0
  2 22  1  0  0  0  0
  3 23  1  0  0  0  0
  3 24  1  0  0  0  0
  4 25  1  0  0  0  0
  4 26  1  0  0  0  0
  5 27  1  0  0  0  0
  5 28  1  0  0  0  0
  6 29  1  0  0  0  0
  6 30  1  0  0  0  0
  7 31  1  0  0  0  0
  7 32  1  0  0  0  0
  8 33  1  0  0  0  0
  8 34  1  0  0  0  0
  9 35  1  0  0  0  0
  9 36  1  0  0  0  0
 10 37  1  0  0  0  0
 10 38  1  0  0  0  0
 11 39  1  0  0  0  0
 11 40  1  0  0  0  0
 12 41  1  0  0  0  0
 12 42  1  0  0  0  0
 16 43  1  0  0  0  0
 16 44  1  0  0  0  0
 17 45  1  0  0  0  0
 17 46  1  0  0  0  0
 17 47  1  0  0  0  0
M  END
$$$$
