C20H26O5
APtclcactv06281817343D 0   0.00000     0.00000
 
 51 54  0  0  0  0  0  0  0  0999 V2000
    4.2831    0.9015   -1.9379 C   0  0  0  0  0  0  0  0  0  0  0  0
    4.2144    0.3458   -0.5141 C   0  0  0  0  0  0  0  0  0  0  0  0
    4.8650    1.3375    0.4524 C   0  0  0  0  0  0  0  0  0  0  0  0
    2.7741    0.1373   -0.1255 C   0  0  0  0  0  0  0  0  0  0  0  0
    2.3248   -1.1263    0.2143 C   0  0  0  0  0  0  0  0  0  0  0  0
    0.9829   -1.3354    0.5617 C   0  0  0  0  0  0  0  0  0  0  0  0
    0.1159   -0.2819    0.5352 C   0  0  0  0  0  0  0  0  0  0  0  0
    0.5975    1.0042    0.2449 C   0  0  0  0  0  0  0  0  0  0  0  0
    1.9000    1.2160   -0.0961 C   0  0  0  0  0  0  0  0  0  0  0  0
   -0.4518    2.0879    0.3859 C   0  0  0  0  0  0  0  0  0  0  0  0
   -1.5443    1.7663   -0.6560 C   0  0  0  0  0  0  0  0  0  0  0  0
   -2.1189    0.3799   -0.3761 C   0  0  0  0  0  0  0  0  0  0  0  0
   -1.3665   -0.2840    0.7821 C   0  0  0  0  0  0  0  0  0  0  0  0
   -1.9483   -1.6377    1.1057 C   0  0  0  0  0  0  0  0  0  0  0  0
   -1.9796   -2.5267   -0.1393 C   0  0  0  0  0  0  0  0  0  0  0  0
   -2.8045   -1.8597   -1.2376 C   0  0  0  0  0  0  0  0  0  0  0  0
   -2.2100   -0.4962   -1.6095 C   0  0  0  0  0  0  0  0  0  0  0  0
   -3.1631    0.1661   -2.6237 C   0  0  0  0  0  0  0  0  0  0  0  0
   -0.8555   -0.6943   -2.2866 C   0  0  0  0  0  0  0  0  0  0  0  0
   -1.5562    0.6847    1.9563 C   0  0  0  0  0  0  0  0  0  0  0  0
   -2.0946    0.3619    2.9847 O   0  0  0  0  0  0  0  0  0  0  0  0
   -1.0604    1.9302    1.7136 O   0  0  0  0  0  0  0  0  0  0  0  0
   -2.5887    2.7404   -0.5388 O   0  0  0  0  0  0  0  0  0  0  0  0
    0.6003   -2.5797    0.9573 O   0  0  0  0  0  0  0  0  0  0  0  0
    3.1899   -2.1767    0.2138 O   0  0  0  0  0  0  0  0  0  0  0  0
    5.3254    1.0524   -2.2191 H   0  0  0  0  0  0  0  0  0  0  0  0
    3.8197    0.1950   -2.6265 H   0  0  0  0  0  0  0  0  0  0  0  0
    3.7534    1.8531   -1.9825 H   0  0  0  0  0  0  0  0  0  0  0  0
    4.7442   -0.6057   -0.4695 H   0  0  0  0  0  0  0  0  0  0  0  0
    4.3352    2.2891    0.4078 H   0  0  0  0  0  0  0  0  0  0  0  0
    4.8160    0.9416    1.4668 H   0  0  0  0  0  0  0  0  0  0  0  0
    5.9072    1.4884    0.1712 H   0  0  0  0  0  0  0  0  0  0  0  0
    2.2465    2.2095   -0.3418 H   0  0  0  0  0  0  0  0  0  0  0  0
   -0.0322    3.0820    0.2418 H   0  0  0  0  0  0  0  0  0  0  0  0
   -1.1168    1.8268   -1.6515 H   0  0  0  0  0  0  0  0  0  0  0  0
   -3.1633    0.5418   -0.0208 H   0  0  0  0  0  0  0  0  0  0  0  0
   -1.3718   -2.1129    1.8962 H   0  0  0  0  0  0  0  0  0  0  0  0
   -2.9750   -1.5007    1.4669 H   0  0  0  0  0  0  0  0  0  0  0  0
   -0.9750   -2.7234   -0.5008 H   0  0  0  0  0  0  0  0  0  0  0  0
   -2.4458   -3.4843    0.1206 H   0  0  0  0  0  0  0  0  0  0  0  0
   -2.8116   -2.4978   -2.1228 H   0  0  0  0  0  0  0  0  0  0  0  0
   -3.8286   -1.7209   -0.8888 H   0  0  0  0  0  0  0  0  0  0  0  0
   -4.1464    0.2911   -2.1702 H   0  0  0  0  0  0  0  0  0  0  0  0
   -2.7686    1.1410   -2.9101 H   0  0  0  0  0  0  0  0  0  0  0  0
   -3.2485   -0.4654   -3.5081 H   0  0  0  0  0  0  0  0  0  0  0  0
   -0.9845   -1.2911   -3.1895 H   0  0  0  0  0  0  0  0  0  0  0  0
   -0.4354    0.2765   -2.5498 H   0  0  0  0  0  0  0  0  0  0  0  0
   -0.1799   -1.2095   -1.6039 H   0  0  0  0  0  0  0  0  0  0  0  0
   -2.2972    3.6498   -0.6908 H   0  0  0  0  0  0  0  0  0  0  0  0
    0.6739   -2.7295    1.9098 H   0  0  0  0  0  0  0  0  0  0  0  0
    3.6336   -2.3213    1.0608 H   0  0  0  0  0  0  0  0  0  0  0  0
  1  2  1  0  0  0  0
  2  3  1  0  0  0  0
  2  4  1  0  0  0  0
  4  5  2  0  0  0  0
  5  6  1  0  0  0  0
  6  7  2  0  0  0  0
  7  8  1  0  0  0  0
  8  9  2  0  0  0  0
  4  9  1  0  0  0  0
  8 10  1  0  0  0  0
 10 11  1  0  0  0  0
 11 12  1  0  0  0  0
 12 13  1  0  0  0  0
  7 13  1  0  0  0  0
 13 14  1  0  0  0  0
 14 15  1  0  0  0  0
 15 16  1  0  0  0  0
 16 17  1  0  0  0  0
 12 17  1  0  0  0  0
 17 18  1  0  0  0  0
 17 19  1  0  0  0  0
 13 20  1  0  0  0  0
 20 21  2  0  0  0  0
 20 22  1  0  0  0  0
 10 22  1  0  0  0  0
 11 23  1  0  0  0  0
  6 24  1  0  0  0  0
  5 25  1  0  0  0  0
  1 26  1  0  0  0  0
  1 27  1  0  0  0  0
  1 28  1  0  0  0  0
  2 29  1  0  0  0  0
  3 30  1  0  0  0  0
  3 31  1  0  0  0  0
  3 32  1  0  0  0  0
  9 33  1  0  0  0  0
 10 34  1  0  0  0  0
 11 35  1  0  0  0  0
 12 36  1  0  0  0  0
 14 37  1  0  0  0  0
 14 38  1  0  0  0  0
 15 39  1  0  0  0  0
 15 40  1  0  0  0  0
 16 41  1  0  0  0  0
 16 42  1  0  0  0  0
 18 43  1  0  0  0  0
 18 44  1  0  0  0  0
 18 45  1  0  0  0  0
 19 46  1  0  0  0  0
 19 47  1  0  0  0  0
 19 48  1  0  0  0  0
 23 49  1  0  0  0  0
 24 50  1  0  0  0  0
 25 51  1  0  0  0  0
M  END
$$$$
