C16H13NO5
APtclcactv06281817343D 0   0.00000     0.00000
 
 35 36  0  0  0  0  0  0  0  0999 V2000
   -3.8569   -0.7410    0.3788 C   0  0  0  0  0  0  0  0  0  0  0  0
   -5.1721   -1.1349    0.4791 C   0  0  0  0  0  0  0  0  0  0  0  0
   -6.1886   -0.2864    0.0555 C   0  0  0  0  0  0  0  0  0  0  0  0
   -5.8831    0.9636   -0.4709 C   0  0  0  0  0  0  0  0  0  0  0  0
   -4.5712    1.3672   -0.5751 C   0  0  0  0  0  0  0  0  0  0  0  0
   -3.5439    0.5165   -0.1504 C   0  0  0  0  0  0  0  0  0  0  0  0
   -2.1413    0.9426   -0.2590 C   0  0  0  0  0  0  0  0  0  0  0  0
   -1.1523    0.1202    0.1514 C   0  0  0  0  0  0  0  0  0  0  0  0
    0.2427    0.5440    0.0434 C   0  0  0  0  0  0  0  0  0  0  0  0
    0.5125    1.6383   -0.4164 O   0  0  0  0  0  0  0  0  0  0  0  0
    1.2300   -0.2769    0.4530 N   0  0  0  0  0  0  0  0  0  0  0  0
    2.5598    0.0867    0.2655 C   0  0  0  0  0  0  0  0  0  0  0  0
    3.5242   -0.8901   -0.0361 C   0  0  0  0  0  0  0  0  0  0  0  0
    4.8581   -0.5125   -0.2229 C   0  0  0  0  0  0  0  0  0  0  0  0
    5.2204    0.7992   -0.1126 C   0  0  0  0  0  0  0  0  0  0  0  0
    4.2688    1.7704    0.1864 C   0  0  0  0  0  0  0  0  0  0  0  0
    2.9408    1.4159    0.3693 C   0  0  0  0  0  0  0  0  0  0  0  0
    4.6417    3.0709    0.2937 O   0  0  0  0  0  0  0  0  0  0  0  0
    3.1327   -2.3033   -0.1542 C   0  0  0  0  0  0  0  0  0  0  0  0
    1.9602   -2.6166   -0.0882 O   0  0  0  0  0  0  0  0  0  0  0  0
    4.0743   -3.2506   -0.3356 O   0  0  0  0  0  0  0  0  0  0  0  0
   -7.4839   -0.6799    0.1557 O   0  0  0  0  0  0  0  0  0  0  0  0
   -3.0682   -1.3992    0.7120 H   0  0  0  0  0  0  0  0  0  0  0  0
   -5.4147   -2.1049    0.8873 H   0  0  0  0  0  0  0  0  0  0  0  0
   -6.6765    1.6189   -0.7989 H   0  0  0  0  0  0  0  0  0  0  0  0
   -4.3349    2.3383   -0.9845 H   0  0  0  0  0  0  0  0  0  0  0  0
   -1.9019    1.9135   -0.6669 H   0  0  0  0  0  0  0  0  0  0  0  0
   -1.3916   -0.8507    0.5593 H   0  0  0  0  0  0  0  0  0  0  0  0
    1.0135   -1.1213    0.8785 H   0  0  0  0  0  0  0  0  0  0  0  0
    5.6026   -1.2598   -0.4545 H   0  0  0  0  0  0  0  0  0  0  0  0
    6.2516    1.0852   -0.2579 H   0  0  0  0  0  0  0  0  0  0  0  0
    2.2060    2.1727    0.6012 H   0  0  0  0  0  0  0  0  0  0  0  0
    4.5964    3.5629   -0.5375 H   0  0  0  0  0  0  0  0  0  0  0  0
    3.7687   -4.1652   -0.4076 H   0  0  0  0  0  0  0  0  0  0  0  0
   -7.9032   -0.4426    0.9941 H   0  0  0  0  0  0  0  0  0  0  0  0
  1  2  2  0  0  0  0
  2  3  1  0  0  0  0
  3  4  2  0  0  0  0
  4  5  1  0  0  0  0
  5  6  2  0  0  0  0
  1  6  1  0  0  0  0
  6  7  1  0  0  0  0
  7  8  2  0  0  0  0
  8  9  1  0  0  0  0
  9 10  2  0  0  0  0
  9 11  1  0  0  0  0
 11 12  1  0  0  0  0
 12 13  2  0  0  0  0
 13 14  1  0  0  0  0
 14 15  2  0  0  0  0
 15 16  1  0  0  0  0
 16 17  2  0  0  0  0
 12 17  1  0  0  0  0
 16 18  1  0  0  0  0
 13 19  1  0  0  0  0
 19 20  2  0  0  0  0
 19 21  1  0  0  0  0
  3 22  1  0  0  0  0
  1 23  1  0  0  0  0
  2 24  1  0  0  0  0
  4 25  1  0  0  0  0
  5 26  1  0  0  0  0
  7 27  1  0  0  0  0
  8 28  1  0  0  0  0
 11 29  1  0  0  0  0
 14 30  1  0  0  0  0
 15 31  1  0  0  0  0
 17 32  1  0  0  0  0
 18 33  1  0  0  0  0
 21 34  1  0  0  0  0
 22 35  1  0  0  0  0
M  END
$$$$
