C13H12O2
APtclcactv06281817343D 0   0.00000     0.00000
 
 27 28  0  0  0  0  0  0  0  0999 V2000
    4.2416   -1.6263    0.2184 C   0  0  0  0  0  0  0  0  0  0  0  0
    2.8345   -1.8739    0.2487 O   0  0  0  0  0  0  0  0  0  0  0  0
    2.0157   -0.7988    0.1048 C   0  0  0  0  0  0  0  0  0  0  0  0
    0.6408   -0.9686    0.1248 C   0  0  0  0  0  0  0  0  0  0  0  0
   -0.1978    0.1339   -0.0223 C   0  0  0  0  0  0  0  0  0  0  0  0
    0.3489    1.4038   -0.1890 C   0  0  0  0  0  0  0  0  0  0  0  0
    1.7250    1.5671   -0.2082 C   0  0  0  0  0  0  0  0  0  0  0  0
    2.5573    0.4682   -0.0562 C   0  0  0  0  0  0  0  0  0  0  0  0
    2.2593    2.8060   -0.3713 O   0  0  0  0  0  0  0  0  0  0  0  0
   -1.6709   -0.0445   -0.0018 C   0  0  0  0  0  0  0  0  0  0  0  0
   -2.4787    0.8843    0.6510 C   0  0  0  0  0  0  0  0  0  0  0  0
   -3.8482    0.7135    0.6670 C   0  0  0  0  0  0  0  0  0  0  0  0
   -4.4190   -0.3773    0.0365 C   0  0  0  0  0  0  0  0  0  0  0  0
   -3.6218   -1.3027   -0.6126 C   0  0  0  0  0  0  0  0  0  0  0  0
   -2.2517   -1.1383   -0.6402 C   0  0  0  0  0  0  0  0  0  0  0  0
    4.5081   -0.9450    1.0264 H   0  0  0  0  0  0  0  0  0  0  0  0
    4.7787   -2.5665    0.3439 H   0  0  0  0  0  0  0  0  0  0  0  0
    4.5112   -1.1787   -0.7382 H   0  0  0  0  0  0  0  0  0  0  0  0
    0.2197   -1.9546    0.2539 H   0  0  0  0  0  0  0  0  0  0  0  0
   -0.2987    2.2604   -0.3037 H   0  0  0  0  0  0  0  0  0  0  0  0
    3.6294    0.5980   -0.0711 H   0  0  0  0  0  0  0  0  0  0  0  0
    2.4124    3.2805    0.4572 H   0  0  0  0  0  0  0  0  0  0  0  0
   -2.0340    1.7362    1.1439 H   0  0  0  0  0  0  0  0  0  0  0  0
   -4.4752    1.4326    1.1730 H   0  0  0  0  0  0  0  0  0  0  0  0
   -5.4911   -0.5072    0.0515 H   0  0  0  0  0  0  0  0  0  0  0  0
   -4.0727   -2.1528   -1.1030 H   0  0  0  0  0  0  0  0  0  0  0  0
   -1.6302   -1.8613   -1.1476 H   0  0  0  0  0  0  0  0  0  0  0  0
  1  2  1  0  0  0  0
  2  3  1  0  0  0  0
  3  4  2  0  0  0  0
  4  5  1  0  0  0  0
  5  6  2  0  0  0  0
  6  7  1  0  0  0  0
  7  8  2  0  0  0  0
  3  8  1  0  0  0  0
  7  9  1  0  0  0  0
  5 10  1  0  0  0  0
 10 11  2  0  0  0  0
 11 12  1  0  0  0  0
 12 13  2  0  0  0  0
 13 14  1  0  0  0  0
 14 15  2  0  0  0  0
 10 15  1  0  0  0  0
  1 16  1  0  0  0  0
  1 17  1  0  0  0  0
  1 18  1  0  0  0  0
  4 19  1  0  0  0  0
  6 20  1  0  0  0  0
  8 21  1  0  0  0  0
  9 22  1  0  0  0  0
 11 23  1  0  0  0  0
 12 24  1  0  0  0  0
 13 25  1  0  0  0  0
 14 26  1  0  0  0  0
 15 27  1  0  0  0  0
M  END
$$$$
