C22H22O10
APtclcactv06281817343D 0   0.00000     0.00000
 
 54 57  0  0  0  0  0  0  0  0999 V2000
   -0.6873    4.2847   -1.1139 C   0  0  0  0  0  0  0  0  0  0  0  0
   -1.4116    3.1971   -0.5355 O   0  0  0  0  0  0  0  0  0  0  0  0
   -0.7081    2.0679   -0.2522 C   0  0  0  0  0  0  0  0  0  0  0  0
   -1.3543    0.9660    0.3146 C   0  0  0  0  0  0  0  0  0  0  0  0
   -0.6532   -0.1901    0.6044 C   0  0  0  0  0  0  0  0  0  0  0  0
    0.7077   -0.2658    0.3328 C   0  0  0  0  0  0  0  0  0  0  0  0
    1.3554    0.8477   -0.2305 C   0  0  0  0  0  0  0  0  0  0  0  0
    0.6421    2.0085   -0.5298 C   0  0  0  0  0  0  0  0  0  0  0  0
    2.8044    0.7487   -0.4900 C   0  0  0  0  0  0  0  0  0  0  0  0
    3.3979    1.5671   -1.1714 O   0  0  0  0  0  0  0  0  0  0  0  0
    3.4902   -0.4025    0.1273 C   0  0  0  0  0  0  0  0  0  0  0  0
    2.7259   -1.4009    0.6421 C   0  0  0  0  0  0  0  0  0  0  0  0
    1.3939   -1.3939    0.5988 O   0  0  0  0  0  0  0  0  0  0  0  0
    4.9710   -0.4682    0.1838 C   0  0  0  0  0  0  0  0  0  0  0  0
    5.6534   -1.4595   -0.5194 C   0  0  0  0  0  0  0  0  0  0  0  0
    7.0304   -1.5177   -0.4652 C   0  0  0  0  0  0  0  0  0  0  0  0
    7.7366   -0.5907    0.2889 C   0  0  0  0  0  0  0  0  0  0  0  0
    7.0599    0.3977    0.9903 C   0  0  0  0  0  0  0  0  0  0  0  0
    5.6833    0.4647    0.9356 C   0  0  0  0  0  0  0  0  0  0  0  0
    9.0933   -0.6512    0.3410 O   0  0  0  0  0  0  0  0  0  0  0  0
   -2.6839    1.0314    0.5839 O   0  0  0  0  0  0  0  0  0  0  0  0
   -3.2863   -0.1278    1.1631 C   0  0  0  0  0  0  0  0  0  0  0  0
   -4.7469    0.1742    1.5080 C   0  0  0  0  0  0  0  0  0  0  0  0
   -5.5104    0.5009    0.2209 C   0  0  0  0  0  0  0  0  0  0  0  0
   -5.3739   -0.6738   -0.7527 C   0  0  0  0  0  0  0  0  0  0  0  0
   -3.8890   -0.9431   -1.0104 C   0  0  0  0  0  0  0  0  0  0  0  0
   -3.2323   -1.2093    0.2306 O   0  0  0  0  0  0  0  0  0  0  0  0
   -3.7429   -2.1533   -1.9350 C   0  0  0  0  0  0  0  0  0  0  0  0
   -2.3653   -2.3339   -2.2689 O   0  0  0  0  0  0  0  0  0  0  0  0
   -5.9788   -1.8373   -0.1850 O   0  0  0  0  0  0  0  0  0  0  0  0
   -6.8907    0.7124    0.5244 O   0  0  0  0  0  0  0  0  0  0  0  0
   -5.3352   -0.9669    2.1356 O   0  0  0  0  0  0  0  0  0  0  0  0
    0.1051    4.5963   -0.4333 H   0  0  0  0  0  0  0  0  0  0  0  0
   -0.2494    3.9673   -2.0602 H   0  0  0  0  0  0  0  0  0  0  0  0
   -1.3650    5.1202   -1.2892 H   0  0  0  0  0  0  0  0  0  0  0  0
   -1.1635   -1.0350    1.0426 H   0  0  0  0  0  0  0  0  0  0  0  0
    1.1449    2.8579   -0.9681 H   0  0  0  0  0  0  0  0  0  0  0  0
    3.2212   -2.2399    1.1081 H   0  0  0  0  0  0  0  0  0  0  0  0
    5.1045   -2.1815   -1.1058 H   0  0  0  0  0  0  0  0  0  0  0  0
    7.5597   -2.2856   -1.0098 H   0  0  0  0  0  0  0  0  0  0  0  0
    7.6121    1.1175    1.5762 H   0  0  0  0  0  0  0  0  0  0  0  0
    5.1574    1.2339    1.4815 H   0  0  0  0  0  0  0  0  0  0  0  0
    9.5367   -0.1357   -0.3465 H   0  0  0  0  0  0  0  0  0  0  0  0
   -2.7479   -0.4025    2.0702 H   0  0  0  0  0  0  0  0  0  0  0  0
   -4.7924    1.0273    2.1850 H   0  0  0  0  0  0  0  0  0  0  0  0
   -5.0933    1.4003   -0.2321 H   0  0  0  0  0  0  0  0  0  0  0  0
   -5.8678   -0.4271   -1.6926 H   0  0  0  0  0  0  0  0  0  0  0  0
   -3.4374   -0.0695   -1.4806 H   0  0  0  0  0  0  0  0  0  0  0  0
   -4.1138   -3.0443   -1.4285 H   0  0  0  0  0  0  0  0  0  0  0  0
   -4.3186   -1.9866   -2.8454 H   0  0  0  0  0  0  0  0  0  0  0  0
   -2.1977   -3.0853   -2.8541 H   0  0  0  0  0  0  0  0  0  0  0  0
   -6.9207   -1.7361    0.0090 H   0  0  0  0  0  0  0  0  0  0  0  0
   -7.0507    1.4387    1.1424 H   0  0  0  0  0  0  0  0  0  0  0  0
   -4.8981   -1.2336    2.9559 H   0  0  0  0  0  0  0  0  0  0  0  0
  1  2  1  0  0  0  0
  2  3  1  0  0  0  0
  3  4  2  0  0  0  0
  4  5  1  0  0  0  0
  5  6  2  0  0  0  0
  6  7  1  0  0  0  0
  7  8  2  0  0  0  0
  3  8  1  0  0  0  0
  7  9  1  0  0  0  0
  9 10  2  0  0  0  0
  9 11  1  0  0  0  0
 11 12  2  0  0  0  0
 12 13  1  0  0  0  0
  6 13  1  0  0  0  0
 11 14  1  0  0  0  0
 14 15  2  0  0  0  0
 15 16  1  0  0  0  0
 16 17  2  0  0  0  0
 17 18  1  0  0  0  0
 18 19  2  0  0  0  0
 14 19  1  0  0  0  0
 17 20  1  0  0  0  0
  4 21  1  0  0  0  0
 21 22  1  0  0  0  0
 22 23  1  0  0  0  0
 23 24  1  0  0  0  0
 24 25  1  0  0  0  0
 25 26  1  0  0  0  0
 26 27  1  0  0  0  0
 22 27  1  0  0  0  0
 26 28  1  0  0  0  0
 28 29  1  0  0  0  0
 25 30  1  0  0  0  0
 24 31  1  0  0  0  0
 23 32  1  0  0  0  0
  1 33  1  0  0  0  0
  1 34  1  0  0  0  0
  1 35  1  0  0  0  0
  5 36  1  0  0  0  0
  8 37  1  0  0  0  0
 12 38  1  0  0  0  0
 15 39  1  0  0  0  0
 16 40  1  0  0  0  0
 18 41  1  0  0  0  0
 19 42  1  0  0  0  0
 20 43  1  0  0  0  0
 22 44  1  0  0  0  0
 23 45  1  0  0  0  0
 24 46  1  0  0  0  0
 25 47  1  0  0  0  0
 26 48  1  0  0  0  0
 28 49  1  0  0  0  0
 28 50  1  0  0  0  0
 29 51  1  0  0  0  0
 30 52  1  0  0  0  0
 31 53  1  0  0  0  0
 32 54  1  0  0  0  0
M  END
$$$$
