C27H44O3
APtclcactv06281817343D 0   0.00000     0.00000
 
 74 74  0  0  0  0  0  0  0  0999 V2000
   16.8900    0.8761   -0.0012 C   0  0  0  0  0  0  0  0  0  0  0  0
   15.6824   -0.0634    0.0035 C   0  0  0  0  0  0  0  0  0  0  0  0
   14.3941    0.7619   -0.0014 C   0  0  0  0  0  0  0  0  0  0  0  0
   13.1866   -0.1776    0.0032 C   0  0  0  0  0  0  0  0  0  0  0  0
   11.8982    0.6476   -0.0017 C   0  0  0  0  0  0  0  0  0  0  0  0
   10.6907   -0.2919    0.0030 C   0  0  0  0  0  0  0  0  0  0  0  0
    9.4024    0.5334   -0.0019 C   0  0  0  0  0  0  0  0  0  0  0  0
    8.1948   -0.4061    0.0028 C   0  0  0  0  0  0  0  0  0  0  0  0
    6.9065    0.4192   -0.0021 C   0  0  0  0  0  0  0  0  0  0  0  0
    5.6990   -0.5204    0.0025 C   0  0  0  0  0  0  0  0  0  0  0  0
    4.4106    0.3049   -0.0024 C   0  0  0  0  0  0  0  0  0  0  0  0
    3.2031   -0.6346    0.0023 C   0  0  0  0  0  0  0  0  0  0  0  0
    1.9148    0.1907   -0.0026 C   0  0  0  0  0  0  0  0  0  0  0  0
    0.7072   -0.7489    0.0021 C   0  0  0  0  0  0  0  0  0  0  0  0
   -0.5811    0.0764   -0.0028 C   0  0  0  0  0  0  0  0  0  0  0  0
   -1.7886   -0.8631    0.0018 C   0  0  0  0  0  0  0  0  0  0  0  0
   -3.0770   -0.0378   -0.0031 C   0  0  0  0  0  0  0  0  0  0  0  0
   -4.2845   -0.9773    0.0016 C   0  0  0  0  0  0  0  0  0  0  0  0
   -5.4878   -0.2065   -0.0030 O   0  0  0  0  0  0  0  0  0  0  0  0
   -6.6521   -0.8884    0.0003 C   0  0  0  0  0  0  0  0  0  0  0  0
   -6.6445   -2.1049    0.0069 O   0  0  0  0  0  0  0  0  0  0  0  0
   -7.8844   -0.1872   -0.0039 C   0  0  0  0  0  0  0  0  0  0  0  0
   -9.0501   -0.8699   -0.0006 C   0  0  0  0  0  0  0  0  0  0  0  0
  -10.3273   -0.1431   -0.0050 C   0  0  0  0  0  0  0  0  0  0  0  0
  -11.5367   -0.8481   -0.0016 C   0  0  0  0  0  0  0  0  0  0  0  0
  -12.7303   -0.1625   -0.0057 C   0  0  0  0  0  0  0  0  0  0  0  0
  -12.7361    1.2278   -0.0137 C   0  0  0  0  0  0  0  0  0  0  0  0
  -11.5379    1.9328   -0.0171 C   0  0  0  0  0  0  0  0  0  0  0  0
  -10.3388    1.2568   -0.0067 C   0  0  0  0  0  0  0  0  0  0  0  0
  -13.9158    1.8991   -0.0187 O   0  0  0  0  0  0  0  0  0  0  0  0
   16.8609    1.5096    0.8854 H   0  0  0  0  0  0  0  0  0  0  0  0
   17.8078    0.2882    0.0023 H   0  0  0  0  0  0  0  0  0  0  0  0
   16.8615    1.5000   -0.8946 H   0  0  0  0  0  0  0  0  0  0  0  0
   15.7115   -0.6968   -0.8831 H   0  0  0  0  0  0  0  0  0  0  0  0
   15.7109   -0.6872    0.8968 H   0  0  0  0  0  0  0  0  0  0  0  0
   14.3650    1.3953    0.8851 H   0  0  0  0  0  0  0  0  0  0  0  0
   14.3656    1.3857   -0.8948 H   0  0  0  0  0  0  0  0  0  0  0  0
   13.2156   -0.8111   -0.8833 H   0  0  0  0  0  0  0  0  0  0  0  0
   13.2150   -0.8015    0.8966 H   0  0  0  0  0  0  0  0  0  0  0  0
   11.8692    1.2811    0.8849 H   0  0  0  0  0  0  0  0  0  0  0  0
   11.8698    1.2715   -0.8950 H   0  0  0  0  0  0  0  0  0  0  0  0
   10.7198   -0.9253   -0.8836 H   0  0  0  0  0  0  0  0  0  0  0  0
   10.7192   -0.9157    0.8964 H   0  0  0  0  0  0  0  0  0  0  0  0
    9.3733    1.1669    0.8847 H   0  0  0  0  0  0  0  0  0  0  0  0
    9.3739    1.1572   -0.8953 H   0  0  0  0  0  0  0  0  0  0  0  0
    8.2239   -1.0396   -0.8838 H   0  0  0  0  0  0  0  0  0  0  0  0
    8.2233   -1.0300    0.8961 H   0  0  0  0  0  0  0  0  0  0  0  0
    6.8774    1.0526    0.8844 H   0  0  0  0  0  0  0  0  0  0  0  0
    6.8780    1.0430   -0.8955 H   0  0  0  0  0  0  0  0  0  0  0  0
    5.7280   -1.1538   -0.8840 H   0  0  0  0  0  0  0  0  0  0  0  0
    5.7274   -1.1442    0.8959 H   0  0  0  0  0  0  0  0  0  0  0  0
    4.3816    0.9384    0.8842 H   0  0  0  0  0  0  0  0  0  0  0  0
    4.3822    0.9288   -0.8957 H   0  0  0  0  0  0  0  0  0  0  0  0
    3.2322   -1.2681   -0.8843 H   0  0  0  0  0  0  0  0  0  0  0  0
    3.2316   -1.2585    0.8957 H   0  0  0  0  0  0  0  0  0  0  0  0
    1.8857    0.8241    0.8840 H   0  0  0  0  0  0  0  0  0  0  0  0
    1.8863    0.8145   -0.8960 H   0  0  0  0  0  0  0  0  0  0  0  0
    0.7363   -1.3823   -0.8845 H   0  0  0  0  0  0  0  0  0  0  0  0
    0.7357   -1.3727    0.8954 H   0  0  0  0  0  0  0  0  0  0  0  0
   -0.6102    0.7099    0.8837 H   0  0  0  0  0  0  0  0  0  0  0  0
   -0.6096    0.7003   -0.8962 H   0  0  0  0  0  0  0  0  0  0  0  0
   -1.7596   -1.4966   -0.8847 H   0  0  0  0  0  0  0  0  0  0  0  0
   -1.7602   -1.4869    0.8952 H   0  0  0  0  0  0  0  0  0  0  0  0
   -3.1060    0.5956    0.8835 H   0  0  0  0  0  0  0  0  0  0  0  0
   -3.1054    0.5860   -0.8964 H   0  0  0  0  0  0  0  0  0  0  0  0
   -4.2554   -1.6108   -0.8850 H   0  0  0  0  0  0  0  0  0  0  0  0
   -4.2560   -1.6012    0.8950 H   0  0  0  0  0  0  0  0  0  0  0  0
   -7.8911    0.8928   -0.0097 H   0  0  0  0  0  0  0  0  0  0  0  0
   -9.0433   -1.9499    0.0052 H   0  0  0  0  0  0  0  0  0  0  0  0
  -11.5333   -1.9281    0.0039 H   0  0  0  0  0  0  0  0  0  0  0  0
  -13.6639   -0.7055   -0.0031 H   0  0  0  0  0  0  0  0  0  0  0  0
  -11.5479    3.0127   -0.0237 H   0  0  0  0  0  0  0  0  0  0  0  0
   -9.4085    1.8054   -0.0094 H   0  0  0  0  0  0  0  0  0  0  0  0
  -14.2585    2.0987    0.8632 H   0  0  0  0  0  0  0  0  0  0  0  0
  1  2  1  0  0  0  0
  2  3  1  0  0  0  0
  3  4  1  0  0  0  0
  4  5  1  0  0  0  0
  5  6  1  0  0  0  0
  6  7  1  0  0  0  0
  7  8  1  0  0  0  0
  8  9  1  0  0  0  0
  9 10  1  0  0  0  0
 10 11  1  0  0  0  0
 11 12  1  0  0  0  0
 12 13  1  0  0  0  0
 13 14  1  0  0  0  0
 14 15  1  0  0  0  0
 15 16  1  0  0  0  0
 16 17  1  0  0  0  0
 17 18  1  0  0  0  0
 18 19  1  0  0  0  0
 19 20  1  0  0  0  0
 20 21  2  0  0  0  0
 20 22  1  0  0  0  0
 22 23  2  0  0  0  0
 23 24  1  0  0  0  0
 24 25  2  0  0  0  0
 25 26  1  0  0  0  0
 26 27  2  0  0  0  0
 27 28  1  0  0  0  0
 28 29  2  0  0  0  0
 24 29  1  0  0  0  0
 27 30  1  0  0  0  0
  1 31  1  0  0  0  0
  1 32  1  0  0  0  0
  1 33  1  0  0  0  0
  2 34  1  0  0  0  0
  2 35  1  0  0  0  0
  3 36  1  0  0  0  0
  3 37  1  0  0  0  0
  4 38  1  0  0  0  0
  4 39  1  0  0  0  0
  5 40  1  0  0  0  0
  5 41  1  0  0  0  0
  6 42  1  0  0  0  0
  6 43  1  0  0  0  0
  7 44  1  0  0  0  0
  7 45  1  0  0  0  0
  8 46  1  0  0  0  0
  8 47  1  0  0  0  0
  9 48  1  0  0  0  0
  9 49  1  0  0  0  0
 10 50  1  0  0  0  0
 10 51  1  0  0  0  0
 11 52  1  0  0  0  0
 11 53  1  0  0  0  0
 12 54  1  0  0  0  0
 12 55  1  0  0  0  0
 13 56  1  0  0  0  0
 13 57  1  0  0  0  0
 14 58  1  0  0  0  0
 14 59  1  0  0  0  0
 15 60  1  0  0  0  0
 15 61  1  0  0  0  0
 16 62  1  0  0  0  0
 16 63  1  0  0  0  0
 17 64  1  0  0  0  0
 17 65  1  0  0  0  0
 18 66  1  0  0  0  0
 18 67  1  0  0  0  0
 22 68  1  0  0  0  0
 23 69  1  0  0  0  0
 25 70  1  0  0  0  0
 26 71  1  0  0  0  0
 28 72  1  0  0  0  0
 29 73  1  0  0  0  0
 30 74  1  0  0  0  0
M  END
$$$$
