C5H6S
APtclcactv06211806023D 0   0.00000     0.00000
 
 12 12  0  0  0  0  0  0  0  0999 V2000
    2.5153    0.2484    0.0009 C   0  0  0  0  0  0  0  0  0  0  0  0
    1.0222    0.0448    0.0009 C   0  0  0  0  0  0  0  0  0  0  0  0
    0.1594    1.0620   -0.0007 C   0  0  0  0  0  0  0  0  0  0  0  0
   -1.4858    0.4400   -0.0001 S   0  0  0  0  0  0  0  0  0  0  0  0
   -0.8918   -1.2154    0.0024 C   0  0  0  0  0  0  0  0  0  0  0  0
    0.4421   -1.2120   -0.0033 C   0  0  0  0  0  0  0  0  0  0  0  0
    2.8752    0.2985    1.0286 H   0  0  0  0  0  0  0  0  0  0  0  0
    2.9957   -0.5849   -0.5120 H   0  0  0  0  0  0  0  0  0  0  0  0
    2.7552    1.1788   -0.5138 H   0  0  0  0  0  0  0  0  0  0  0  0
    0.4296    2.1077   -0.0019 H   0  0  0  0  0  0  0  0  0  0  0  0
   -1.5121   -2.0995    0.0036 H   0  0  0  0  0  0  0  0  0  0  0  0
    1.0253   -2.1210   -0.0030 H   0  0  0  0  0  0  0  0  0  0  0  0
  1  2  1  0  0  0  0
  2  3  2  0  0  0  0
  3  4  1  0  0  0  0
  4  5  1  0  0  0  0
  5  6  2  0  0  0  0
  2  6  1  0  0  0  0
  1  7  1  0  0  0  0
  1  8  1  0  0  0  0
  1  9  1  0  0  0  0
  3 10  1  0  0  0  0
  5 11  1  0  0  0  0
  6 12  1  0  0  0  0
M  END
$$$$
