C7H14O2
APtclcactv06211806033D 0   0.00000     0.00000
 
 23 22  0  0  0  0  0  0  0  0999 V2000
   -2.0455    1.5336   -0.5284 C   0  0  0  0  0  0  0  0  0  0  0  0
   -1.8572    0.3487    0.4211 C   0  0  0  0  0  0  0  0  0  0  0  0
   -2.9557   -0.6861    0.1695 C   0  0  0  0  0  0  0  0  0  0  0  0
   -0.5095   -0.2803    0.1784 C   0  0  0  0  0  0  0  0  0  0  0  0
   -0.4351   -1.4375   -0.1610 O   0  0  0  0  0  0  0  0  0  0  0  0
    0.6085    0.4450    0.3394 O   0  0  0  0  0  0  0  0  0  0  0  0
    1.8714   -0.2259    0.0883 C   0  0  0  0  0  0  0  0  0  0  0  0
    2.2534   -0.0595   -1.3839 C   0  0  0  0  0  0  0  0  0  0  0  0
    2.9599    0.3892    0.9702 C   0  0  0  0  0  0  0  0  0  0  0  0
   -1.2629    2.2708   -0.3490 H   0  0  0  0  0  0  0  0  0  0  0  0
   -1.9874    1.1855   -1.5597 H   0  0  0  0  0  0  0  0  0  0  0  0
   -3.0204    1.9885   -0.3528 H   0  0  0  0  0  0  0  0  0  0  0  0
   -1.9153    0.6967    1.4525 H   0  0  0  0  0  0  0  0  0  0  0  0
   -2.8976   -1.0342   -0.8619 H   0  0  0  0  0  0  0  0  0  0  0  0
   -2.8216   -1.5302    0.8459 H   0  0  0  0  0  0  0  0  0  0  0  0
   -3.9306   -0.2312    0.3450 H   0  0  0  0  0  0  0  0  0  0  0  0
    1.7720   -1.2863    0.3202 H   0  0  0  0  0  0  0  0  0  0  0  0
    2.3529    1.0008   -1.6159 H   0  0  0  0  0  0  0  0  0  0  0  0
    3.2015   -0.5632   -1.5724 H   0  0  0  0  0  0  0  0  0  0  0  0
    1.4780   -0.4977   -2.0122 H   0  0  0  0  0  0  0  0  0  0  0  0
    2.6877    0.2707    2.0190 H   0  0  0  0  0  0  0  0  0  0  0  0
    3.9080   -0.1145    0.7817 H   0  0  0  0  0  0  0  0  0  0  0  0
    3.0593    1.4496    0.7383 H   0  0  0  0  0  0  0  0  0  0  0  0
  1  2  1  0  0  0  0
  2  3  1  0  0  0  0
  2  4  1  0  0  0  0
  4  5  2  0  0  0  0
  4  6  1  0  0  0  0
  6  7  1  0  0  0  0
  7  8  1  0  0  0  0
  7  9  1  0  0  0  0
  1 10  1  0  0  0  0
  1 11  1  0  0  0  0
  1 12  1  0  0  0  0
  2 13  1  0  0  0  0
  3 14  1  0  0  0  0
  3 15  1  0  0  0  0
  3 16  1  0  0  0  0
  7 17  1  0  0  0  0
  8 18  1  0  0  0  0
  8 19  1  0  0  0  0
  8 20  1  0  0  0  0
  9 21  1  0  0  0  0
  9 22  1  0  0  0  0
  9 23  1  0  0  0  0
M  END
$$$$
