C9H12O
APtclcactv06211806033D 0   0.00000     0.00000
 
 22 22  0  0  0  0  0  0  0  0999 V2000
    1.9844    1.2696   -0.7133 C   0  0  0  0  0  0  0  0  0  0  0  0
    1.4786    0.0103   -0.0067 C   0  0  0  0  0  0  0  0  0  0  0  0
    1.9924   -0.0071    1.4344 C   0  0  0  0  0  0  0  0  0  0  0  0
   -0.0284    0.0074   -0.0028 C   0  0  0  0  0  0  0  0  0  0  0  0
   -0.7173   -1.1910   -0.0163 C   0  0  0  0  0  0  0  0  0  0  0  0
   -2.0996   -1.1937   -0.0128 C   0  0  0  0  0  0  0  0  0  0  0  0
   -2.7931    0.0020    0.0047 C   0  0  0  0  0  0  0  0  0  0  0  0
   -2.1042    1.2004    0.0191 C   0  0  0  0  0  0  0  0  0  0  0  0
   -0.7218    1.2030    0.0199 C   0  0  0  0  0  0  0  0  0  0  0  0
    1.9554   -1.1469   -0.6964 O   0  0  0  0  0  0  0  0  0  0  0  0
    3.0744    1.2717   -0.7161 H   0  0  0  0  0  0  0  0  0  0  0  0
    1.6184    1.2819   -1.7399 H   0  0  0  0  0  0  0  0  0  0  0  0
    1.6207    2.1522   -0.1872 H   0  0  0  0  0  0  0  0  0  0  0  0
    1.6287    0.8755    1.9604 H   0  0  0  0  0  0  0  0  0  0  0  0
    1.6320   -0.9043    1.9378 H   0  0  0  0  0  0  0  0  0  0  0  0
    3.0824   -0.0050    1.4316 H   0  0  0  0  0  0  0  0  0  0  0  0
   -0.1755   -2.1252   -0.0299 H   0  0  0  0  0  0  0  0  0  0  0  0
   -2.6379   -2.1299   -0.0240 H   0  0  0  0  0  0  0  0  0  0  0  0
   -3.8731   -0.0000    0.0067 H   0  0  0  0  0  0  0  0  0  0  0  0
   -2.6459    2.1346    0.0324 H   0  0  0  0  0  0  0  0  0  0  0  0
   -0.1836    2.1393    0.0312 H   0  0  0  0  0  0  0  0  0  0  0  0
    1.6727   -1.9837   -0.3027 H   0  0  0  0  0  0  0  0  0  0  0  0
  1  2  1  0  0  0  0
  2  3  1  0  0  0  0
  2  4  1  0  0  0  0
  4  5  2  0  0  0  0
  5  6  1  0  0  0  0
  6  7  2  0  0  0  0
  7  8  1  0  0  0  0
  8  9  2  0  0  0  0
  4  9  1  0  0  0  0
  2 10  1  0  0  0  0
  1 11  1  0  0  0  0
  1 12  1  0  0  0  0
  1 13  1  0  0  0  0
  3 14  1  0  0  0  0
  3 15  1  0  0  0  0
  3 16  1  0  0  0  0
  5 17  1  0  0  0  0
  6 18  1  0  0  0  0
  7 19  1  0  0  0  0
  8 20  1  0  0  0  0
  9 21  1  0  0  0  0
 10 22  1  0  0  0  0
M  END
$$$$
