C6H6O2
APtclcactv06211806033D 0   0.00000     0.00000
 
 14 14  0  0  0  0  0  0  0  0999 V2000
    2.6799   -1.0213    0.0013 C   0  0  0  0  0  0  0  0  0  0  0  0
    1.4156   -0.2013    0.0012 C   0  0  0  0  0  0  0  0  0  0  0  0
    1.3564    1.1503    0.0002 C   0  0  0  0  0  0  0  0  0  0  0  0
    0.0012    1.5063   -0.0004 C   0  0  0  0  0  0  0  0  0  0  0  0
   -0.7149    0.3259    0.0002 C   0  0  0  0  0  0  0  0  0  0  0  0
    0.1709   -0.6932   -0.0039 O   0  0  0  0  0  0  0  0  0  0  0  0
   -2.1229    0.2057    0.0006 C   0  0  0  0  0  0  0  0  0  0  0  0
   -2.6385   -0.8938    0.0012 O   0  0  0  0  0  0  0  0  0  0  0  0
    2.9851   -1.2182    1.0290 H   0  0  0  0  0  0  0  0  0  0  0  0
    2.5003   -1.9660   -0.5118 H   0  0  0  0  0  0  0  0  0  0  0  0
    3.4689   -0.4726   -0.5132 H   0  0  0  0  0  0  0  0  0  0  0  0
    2.1970    1.8284    0.0003 H   0  0  0  0  0  0  0  0  0  0  0  0
   -0.4037    2.5076   -0.0007 H   0  0  0  0  0  0  0  0  0  0  0  0
   -2.7405    1.0917    0.0005 H   0  0  0  0  0  0  0  0  0  0  0  0
  1  2  1  0  0  0  0
  2  3  2  0  0  0  0
  3  4  1  0  0  0  0
  4  5  2  0  0  0  0
  5  6  1  0  0  0  0
  2  6  1  0  0  0  0
  5  7  1  0  0  0  0
  7  8  2  0  0  0  0
  1  9  1  0  0  0  0
  1 10  1  0  0  0  0
  1 11  1  0  0  0  0
  3 12  1  0  0  0  0
  4 13  1  0  0  0  0
  7 14  1  0  0  0  0
M  END
$$$$
