C13H10O
APtclcactv06211806373D 0   0.00000     0.00000
 
 24 25  0  0  0  0  0  0  0  0999 V2000
   -4.1470    0.5527   -0.0825 C   0  0  0  0  0  0  0  0  0  0  0  0
   -3.6867   -0.6327   -0.6268 C   0  0  0  0  0  0  0  0  0  0  0  0
   -2.3424   -0.9414   -0.5776 C   0  0  0  0  0  0  0  0  0  0  0  0
   -1.4484   -0.0564    0.0214 C   0  0  0  0  0  0  0  0  0  0  0  0
   -1.9175    1.1364    0.5677 C   0  0  0  0  0  0  0  0  0  0  0  0
   -3.2639    1.4350    0.5133 C   0  0  0  0  0  0  0  0  0  0  0  0
   -0.0018   -0.3832    0.0778 C   0  0  0  0  0  0  0  0  0  0  0  0
    0.9451    0.6123   -0.1323 C   0  0  0  0  0  0  0  0  0  0  0  0
    2.3048    0.2969   -0.0777 C   0  0  0  0  0  0  0  0  0  0  0  0
    2.7027   -1.0177    0.1878 C   0  0  0  0  0  0  0  0  0  0  0  0
    1.7546   -1.9986    0.3950 C   0  0  0  0  0  0  0  0  0  0  0  0
    0.4090   -1.6888    0.3473 C   0  0  0  0  0  0  0  0  0  0  0  0
    3.3152    1.3439   -0.2993 C   0  0  0  0  0  0  0  0  0  0  0  0
    4.4949    1.0678   -0.2514 O   0  0  0  0  0  0  0  0  0  0  0  0
   -5.1992    0.7923   -0.1268 H   0  0  0  0  0  0  0  0  0  0  0  0
   -4.3805   -1.3180   -1.0909 H   0  0  0  0  0  0  0  0  0  0  0  0
   -1.9841   -1.8675   -1.0022 H   0  0  0  0  0  0  0  0  0  0  0  0
   -1.2288    1.8260    1.0332 H   0  0  0  0  0  0  0  0  0  0  0  0
   -3.6286    2.3593    0.9365 H   0  0  0  0  0  0  0  0  0  0  0  0
    0.6310    1.6251   -0.3373 H   0  0  0  0  0  0  0  0  0  0  0  0
    3.7531   -1.2651    0.2304 H   0  0  0  0  0  0  0  0  0  0  0  0
    2.0659   -3.0124    0.5994 H   0  0  0  0  0  0  0  0  0  0  0  0
   -0.3273   -2.4618    0.5105 H   0  0  0  0  0  0  0  0  0  0  0  0
    3.0059    2.3581   -0.5046 H   0  0  0  0  0  0  0  0  0  0  0  0
  1  2  2  0  0  0  0
  2  3  1  0  0  0  0
  3  4  2  0  0  0  0
  4  5  1  0  0  0  0
  5  6  2  0  0  0  0
  1  6  1  0  0  0  0
  4  7  1  0  0  0  0
  7  8  2  0  0  0  0
  8  9  1  0  0  0  0
  9 10  2  0  0  0  0
 10 11  1  0  0  0  0
 11 12  2  0  0  0  0
  7 12  1  0  0  0  0
  9 13  1  0  0  0  0
 13 14  2  0  0  0  0
  1 15  1  0  0  0  0
  2 16  1  0  0  0  0
  3 17  1  0  0  0  0
  5 18  1  0  0  0  0
  6 19  1  0  0  0  0
  8 20  1  0  0  0  0
 10 21  1  0  0  0  0
 11 22  1  0  0  0  0
 12 23  1  0  0  0  0
 13 24  1  0  0  0  0
M  END
$$$$
