C8H8O
APtclcactv06211806033D 0   0.00000     0.00000
 
 17 17  0  0  0  0  0  0  0  0999 V2000
    2.8650   -1.1624    0.0015 C   0  0  0  0  0  0  0  0  0  0  0  0
    1.5995   -0.3441    0.0010 C   0  0  0  0  0  0  0  0  0  0  0  0
    1.6713    1.0378    0.0004 C   0  0  0  0  0  0  0  0  0  0  0  0
    0.5147    1.7983   -0.0005 C   0  0  0  0  0  0  0  0  0  0  0  0
   -0.7191    1.1830   -0.0003 C   0  0  0  0  0  0  0  0  0  0  0  0
   -0.8001   -0.2134    0.0003 C   0  0  0  0  0  0  0  0  0  0  0  0
    0.3730   -0.9745   -0.0045 C   0  0  0  0  0  0  0  0  0  0  0  0
   -2.1131   -0.8781    0.0009 C   0  0  0  0  0  0  0  0  0  0  0  0
   -3.1283   -0.2151    0.0009 O   0  0  0  0  0  0  0  0  0  0  0  0
    3.1701   -1.3592    1.0293 H   0  0  0  0  0  0  0  0  0  0  0  0
    2.6869   -2.1073   -0.5119 H   0  0  0  0  0  0  0  0  0  0  0  0
    3.6534   -0.6126   -0.5125 H   0  0  0  0  0  0  0  0  0  0  0  0
    2.6349    1.5257    0.0009 H   0  0  0  0  0  0  0  0  0  0  0  0
    0.5789    2.8764   -0.0010 H   0  0  0  0  0  0  0  0  0  0  0  0
   -1.6207    1.7777   -0.0003 H   0  0  0  0  0  0  0  0  0  0  0  0
    0.3185   -2.0531   -0.0041 H   0  0  0  0  0  0  0  0  0  0  0  0
   -2.1724   -1.9564    0.0014 H   0  0  0  0  0  0  0  0  0  0  0  0
  1  2  1  0  0  0  0
  2  3  2  0  0  0  0
  3  4  1  0  0  0  0
  4  5  2  0  0  0  0
  5  6  1  0  0  0  0
  6  7  2  0  0  0  0
  2  7  1  0  0  0  0
  6  8  1  0  0  0  0
  8  9  2  0  0  0  0
  1 10  1  0  0  0  0
  1 11  1  0  0  0  0
  1 12  1  0  0  0  0
  3 13  1  0  0  0  0
  4 14  1  0  0  0  0
  5 15  1  0  0  0  0
  7 16  1  0  0  0  0
  8 17  1  0  0  0  0
M  END
$$$$
