C14H10O6
APtclcactv06281817353D 0   0.00000     0.00000
 
 30 32  0  0  0  0  0  0  0  0999 V2000
    4.6550    1.0606   -1.2814 C   0  0  0  0  0  0  0  0  0  0  0  0
    4.1632    0.7401    0.0214 O   0  0  0  0  0  0  0  0  0  0  0  0
    2.9427    0.1404    0.0912 C   0  0  0  0  0  0  0  0  0  0  0  0
    2.8456   -1.2490    0.0600 C   0  0  0  0  0  0  0  0  0  0  0  0
    1.6107   -1.8743    0.1335 C   0  0  0  0  0  0  0  0  0  0  0  0
    0.4500   -1.1210    0.2378 C   0  0  0  0  0  0  0  0  0  0  0  0
    0.5462    0.2822    0.2602 C   0  0  0  0  0  0  0  0  0  0  0  0
    1.7959    0.9113    0.1990 C   0  0  0  0  0  0  0  0  0  0  0  0
    1.8827    2.2659    0.2339 O   0  0  0  0  0  0  0  0  0  0  0  0
   -0.6962    1.0698    0.3475 C   0  0  0  0  0  0  0  0  0  0  0  0
   -0.6893    2.2624    0.5935 O   0  0  0  0  0  0  0  0  0  0  0  0
   -1.9523    0.3227    0.1173 C   0  0  0  0  0  0  0  0  0  0  0  0
   -1.9049   -1.0795    0.1125 C   0  0  0  0  0  0  0  0  0  0  0  0
   -0.7465   -1.7378    0.3228 O   0  0  0  0  0  0  0  0  0  0  0  0
   -3.0785   -1.7935   -0.1106 C   0  0  0  0  0  0  0  0  0  0  0  0
   -4.2664   -1.1270   -0.3179 C   0  0  0  0  0  0  0  0  0  0  0  0
   -4.3121    0.2635   -0.3086 C   0  0  0  0  0  0  0  0  0  0  0  0
   -3.1568    0.9915   -0.0913 C   0  0  0  0  0  0  0  0  0  0  0  0
   -5.4926    0.9064   -0.5131 O   0  0  0  0  0  0  0  0  0  0  0  0
    3.9730   -1.9990   -0.0439 O   0  0  0  0  0  0  0  0  0  0  0  0
    5.6336    1.5327   -1.1944 H   0  0  0  0  0  0  0  0  0  0  0  0
    4.7429    0.1482   -1.8712 H   0  0  0  0  0  0  0  0  0  0  0  0
    3.9636    1.7454   -1.7725 H   0  0  0  0  0  0  0  0  0  0  0  0
    1.5516   -2.9524    0.1090 H   0  0  0  0  0  0  0  0  0  0  0  0
    1.9641    2.6320    1.1252 H   0  0  0  0  0  0  0  0  0  0  0  0
   -3.0582   -2.8732   -0.1210 H   0  0  0  0  0  0  0  0  0  0  0  0
   -5.1718   -1.6900   -0.4898 H   0  0  0  0  0  0  0  0  0  0  0  0
   -3.1877    2.0711   -0.0833 H   0  0  0  0  0  0  0  0  0  0  0  0
   -5.9907    1.0814    0.2971 H   0  0  0  0  0  0  0  0  0  0  0  0
    4.3645   -2.2404    0.8067 H   0  0  0  0  0  0  0  0  0  0  0  0
  1  2  1  0  0  0  0
  2  3  1  0  0  0  0
  3  4  2  0  0  0  0
  4  5  1  0  0  0  0
  5  6  2  0  0  0  0
  6  7  1  0  0  0  0
  7  8  2  0  0  0  0
  3  8  1  0  0  0  0
  8  9  1  0  0  0  0
  7 10  1  0  0  0  0
 10 11  2  0  0  0  0
 10 12  1  0  0  0  0
 12 13  2  0  0  0  0
 13 14  1  0  0  0  0
  6 14  1  0  0  0  0
 13 15  1  0  0  0  0
 15 16  2  0  0  0  0
 16 17  1  0  0  0  0
 17 18  2  0  0  0  0
 12 18  1  0  0  0  0
 17 19  1  0  0  0  0
  4 20  1  0  0  0  0
  1 21  1  0  0  0  0
  1 22  1  0  0  0  0
  1 23  1  0  0  0  0
  5 24  1  0  0  0  0
  9 25  1  0  0  0  0
 15 26  1  0  0  0  0
 16 27  1  0  0  0  0
 18 28  1  0  0  0  0
 19 29  1  0  0  0  0
 20 30  1  0  0  0  0
M  END
$$$$
