C8H14O2
APtclcactv06211806033D 0   0.00000     0.00000
 
 24 24  0  0  0  0  0  0  0  0999 V2000
    3.6069    0.2923   -0.4331 C   0  0  0  0  0  0  0  0  0  0  0  0
    2.2319   -0.0294    0.0933 C   0  0  0  0  0  0  0  0  0  0  0  0
    2.1013   -0.8169    1.0003 O   0  0  0  0  0  0  0  0  0  0  0  0
    1.1524    0.5589   -0.4454 O   0  0  0  0  0  0  0  0  0  0  0  0
   -0.1400    0.2015    0.1117 C   0  0  0  0  0  0  0  0  0  0  0  0
   -1.0988    1.3861   -0.0235 C   0  0  0  0  0  0  0  0  0  0  0  0
   -2.4606    1.0096    0.5635 C   0  0  0  0  0  0  0  0  0  0  0  0
   -3.0269   -0.1938   -0.1929 C   0  0  0  0  0  0  0  0  0  0  0  0
   -2.0680   -1.3784   -0.0577 C   0  0  0  0  0  0  0  0  0  0  0  0
   -0.7062   -1.0018   -0.6447 C   0  0  0  0  0  0  0  0  0  0  0  0
    4.3514   -0.2769    0.1235 H   0  0  0  0  0  0  0  0  0  0  0  0
    3.6625    0.0283   -1.4892 H   0  0  0  0  0  0  0  0  0  0  0  0
    3.8011    1.3583   -0.3144 H   0  0  0  0  0  0  0  0  0  0  0  0
   -0.0237   -0.0533    1.1651 H   0  0  0  0  0  0  0  0  0  0  0  0
   -0.6954    2.2434    0.5154 H   0  0  0  0  0  0  0  0  0  0  0  0
   -1.2152    1.6410   -1.0769 H   0  0  0  0  0  0  0  0  0  0  0  0
   -2.3443    0.7547    1.6169 H   0  0  0  0  0  0  0  0  0  0  0  0
   -3.1437    1.8535    0.4672 H   0  0  0  0  0  0  0  0  0  0  0  0
   -3.9971   -0.4621    0.2253 H   0  0  0  0  0  0  0  0  0  0  0  0
   -3.1432    0.0611   -1.2462 H   0  0  0  0  0  0  0  0  0  0  0  0
   -1.9517   -1.6333    0.9957 H   0  0  0  0  0  0  0  0  0  0  0  0
   -2.4715   -2.2357   -0.5965 H   0  0  0  0  0  0  0  0  0  0  0  0
   -0.8226   -0.7470   -1.6980 H   0  0  0  0  0  0  0  0  0  0  0  0
   -0.0231   -1.8458   -0.5483 H   0  0  0  0  0  0  0  0  0  0  0  0
  1  2  1  0  0  0  0
  2  3  2  0  0  0  0
  2  4  1  0  0  0  0
  4  5  1  0  0  0  0
  5  6  1  0  0  0  0
  6  7  1  0  0  0  0
  7  8  1  0  0  0  0
  8  9  1  0  0  0  0
  9 10  1  0  0  0  0
  5 10  1  0  0  0  0
  1 11  1  0  0  0  0
  1 12  1  0  0  0  0
  1 13  1  0  0  0  0
  5 14  1  0  0  0  0
  6 15  1  0  0  0  0
  6 16  1  0  0  0  0
  7 17  1  0  0  0  0
  7 18  1  0  0  0  0
  8 19  1  0  0  0  0
  8 20  1  0  0  0  0
  9 21  1  0  0  0  0
  9 22  1  0  0  0  0
 10 23  1  0  0  0  0
 10 24  1  0  0  0  0
M  END
$$$$
