C8H10O2
APtclcactv06211806033D 0   0.00000     0.00000
 
 20 20  0  0  0  0  0  0  0  0999 V2000
    4.1307    0.1145    0.0113 C   0  0  0  0  0  0  0  0  0  0  0  0
    2.6706    0.5716    0.0024 C   0  0  0  0  0  0  0  0  0  0  0  0
    1.8135   -0.5718    0.0040 O   0  0  0  0  0  0  0  0  0  0  0  0
    0.4737   -0.3392   -0.0032 C   0  0  0  0  0  0  0  0  0  0  0  0
   -0.4151   -1.4039   -0.0021 C   0  0  0  0  0  0  0  0  0  0  0  0
   -1.7760   -1.1676   -0.0096 C   0  0  0  0  0  0  0  0  0  0  0  0
   -2.2537    0.1345   -0.0177 C   0  0  0  0  0  0  0  0  0  0  0  0
   -1.3649    1.1993   -0.0179 C   0  0  0  0  0  0  0  0  0  0  0  0
   -0.0040    0.9629   -0.0060 C   0  0  0  0  0  0  0  0  0  0  0  0
   -3.5934    0.3672   -0.0259 O   0  0  0  0  0  0  0  0  0  0  0  0
    4.7844    0.9867    0.0101 H   0  0  0  0  0  0  0  0  0  0  0  0
    4.3198   -0.4800    0.9051 H   0  0  0  0  0  0  0  0  0  0  0  0
    4.3280   -0.4887   -0.8748 H   0  0  0  0  0  0  0  0  0  0  0  0
    2.4732    1.1748    0.8886 H   0  0  0  0  0  0  0  0  0  0  0  0
    2.4814    1.1662   -0.8913 H   0  0  0  0  0  0  0  0  0  0  0  0
   -0.0431   -2.4178    0.0042 H   0  0  0  0  0  0  0  0  0  0  0  0
   -2.4681   -1.9967   -0.0094 H   0  0  0  0  0  0  0  0  0  0  0  0
   -1.7368    2.2132   -0.0242 H   0  0  0  0  0  0  0  0  0  0  0  0
    0.6881    1.7920   -0.0062 H   0  0  0  0  0  0  0  0  0  0  0  0
   -3.9857    0.4382    0.8551 H   0  0  0  0  0  0  0  0  0  0  0  0
  1  2  1  0  0  0  0
  2  3  1  0  0  0  0
  3  4  1  0  0  0  0
  4  5  2  0  0  0  0
  5  6  1  0  0  0  0
  6  7  2  0  0  0  0
  7  8  1  0  0  0  0
  8  9  2  0  0  0  0
  4  9  1  0  0  0  0
  7 10  1  0  0  0  0
  1 11  1  0  0  0  0
  1 12  1  0  0  0  0
  1 13  1  0  0  0  0
  2 14  1  0  0  0  0
  2 15  1  0  0  0  0
  5 16  1  0  0  0  0
  6 17  1  0  0  0  0
  8 18  1  0  0  0  0
  9 19  1  0  0  0  0
 10 20  1  0  0  0  0
M  END
$$$$
