C9H10
APtclcactv06211806033D 0   0.00000     0.00000
 
 19 19  0  0  0  0  0  0  0  0999 V2000
    3.2436   -0.3006    0.0018 C   0  0  0  0  0  0  0  0  0  0  0  0
    1.7502   -0.0989    0.0010 C   0  0  0  0  0  0  0  0  0  0  0  0
    1.2282    1.1823   -0.0006 C   0  0  0  0  0  0  0  0  0  0  0  0
   -0.1381    1.3738   -0.0008 C   0  0  0  0  0  0  0  0  0  0  0  0
   -0.9940    0.2718   -0.0000 C   0  0  0  0  0  0  0  0  0  0  0  0
   -0.4612   -1.0178    0.0011 C   0  0  0  0  0  0  0  0  0  0  0  0
    0.9070   -1.1957   -0.0039 C   0  0  0  0  0  0  0  0  0  0  0  0
   -2.4588    0.4696    0.0002 C   0  0  0  0  0  0  0  0  0  0  0  0
   -3.2694   -0.5794    0.0009 C   0  0  0  0  0  0  0  0  0  0  0  0
    3.6033   -0.3482    1.0297 H   0  0  0  0  0  0  0  0  0  0  0  0
    3.4847   -1.2318   -0.5110 H   0  0  0  0  0  0  0  0  0  0  0  0
    3.7230    0.5322   -0.5127 H   0  0  0  0  0  0  0  0  0  0  0  0
    1.8918    2.0344   -0.0012 H   0  0  0  0  0  0  0  0  0  0  0  0
   -0.5444    2.3745   -0.0013 H   0  0  0  0  0  0  0  0  0  0  0  0
   -1.1183   -1.8749    0.0021 H   0  0  0  0  0  0  0  0  0  0  0  0
    1.3207   -2.1934   -0.0034 H   0  0  0  0  0  0  0  0  0  0  0  0
   -2.8688    1.4688   -0.0003 H   0  0  0  0  0  0  0  0  0  0  0  0
   -2.8594   -1.5785    0.0014 H   0  0  0  0  0  0  0  0  0  0  0  0
   -4.3396   -0.4348    0.0011 H   0  0  0  0  0  0  0  0  0  0  0  0
  1  2  1  0  0  0  0
  2  3  2  0  0  0  0
  3  4  1  0  0  0  0
  4  5  2  0  0  0  0
  5  6  1  0  0  0  0
  6  7  2  0  0  0  0
  2  7  1  0  0  0  0
  5  8  1  0  0  0  0
  8  9  2  0  0  0  0
  1 10  1  0  0  0  0
  1 11  1  0  0  0  0
  1 12  1  0  0  0  0
  3 13  1  0  0  0  0
  4 14  1  0  0  0  0
  6 15  1  0  0  0  0
  7 16  1  0  0  0  0
  8 17  1  0  0  0  0
  9 18  1  0  0  0  0
  9 19  1  0  0  0  0
M  END
$$$$
