C7H11NO
APtclcactv06211806373D 0   0.00000     0.00000
 
 20 20  0  0  0  0  0  0  0  0999 V2000
    2.6123    1.1660   -0.7051 C   0  0  0  0  0  0  0  0  0  0  0  0
    1.9232    0.7671    0.6014 C   0  0  0  0  0  0  0  0  0  0  0  0
    0.5274    0.2822    0.3055 C   0  0  0  0  0  0  0  0  0  0  0  0
    0.1681   -0.9843    0.0387 C   0  0  0  0  0  0  0  0  0  0  0  0
   -1.1637   -0.9839   -0.1664 O   0  0  0  0  0  0  0  0  0  0  0  0
   -1.5987    0.2751   -0.0233 C   0  0  0  0  0  0  0  0  0  0  0  0
   -0.5839    1.0385    0.2665 N   0  0  0  0  0  0  0  0  0  0  0  0
   -3.0276    0.7318   -0.1677 C   0  0  0  0  0  0  0  0  0  0  0  0
    1.0826   -2.1807   -0.0205 C   0  0  0  0  0  0  0  0  0  0  0  0
    3.6219    1.5167   -0.4910 H   0  0  0  0  0  0  0  0  0  0  0  0
    2.6606    0.3026   -1.3686 H   0  0  0  0  0  0  0  0  0  0  0  0
    2.0452    1.9628   -1.1864 H   0  0  0  0  0  0  0  0  0  0  0  0
    2.4902   -0.0297    1.0827 H   0  0  0  0  0  0  0  0  0  0  0  0
    1.8748    1.6305    1.2650 H   0  0  0  0  0  0  0  0  0  0  0  0
   -3.6598   -0.1231   -0.4077 H   0  0  0  0  0  0  0  0  0  0  0  0
   -3.3622    1.1798    0.7680 H   0  0  0  0  0  0  0  0  0  0  0  0
   -3.0943    1.4690   -0.9678 H   0  0  0  0  0  0  0  0  0  0  0  0
    1.1490   -2.6365    0.9674 H   0  0  0  0  0  0  0  0  0  0  0  0
    0.6853   -2.9069   -0.7297 H   0  0  0  0  0  0  0  0  0  0  0  0
    2.0747   -1.8640   -0.3420 H   0  0  0  0  0  0  0  0  0  0  0  0
  1  2  1  0  0  0  0
  2  3  1  0  0  0  0
  3  4  2  0  0  0  0
  4  5  1  0  0  0  0
  5  6  1  0  0  0  0
  6  7  2  0  0  0  0
  3  7  1  0  0  0  0
  6  8  1  0  0  0  0
  4  9  1  0  0  0  0
  1 10  1  0  0  0  0
  1 11  1  0  0  0  0
  1 12  1  0  0  0  0
  2 13  1  0  0  0  0
  2 14  1  0  0  0  0
  8 15  1  0  0  0  0
  8 16  1  0  0  0  0
  8 17  1  0  0  0  0
  9 18  1  0  0  0  0
  9 19  1  0  0  0  0
  9 20  1  0  0  0  0
M  END
$$$$
