C12H14N2
APtclcactv06211806373D 0   0.00000     0.00000
 
 28 30  0  0  0  0  0  0  0  0999 V2000
    4.3677   -0.2994   -0.2197 C   0  0  0  0  0  0  0  0  0  0  0  0
    2.9307   -0.0149   -0.3297 N   0  0  0  0  0  0  0  0  0  0  0  0
    2.5745    1.1966    0.4222 C   0  0  0  0  0  0  0  0  0  0  0  0
    1.1866    1.6819   -0.0181 C   0  0  0  0  0  0  0  0  0  0  0  0
    0.2495    0.5006    0.0085 C   0  0  0  0  0  0  0  0  0  0  0  0
    0.6701   -0.7837    0.0646 C   0  0  0  0  0  0  0  0  0  0  0  0
    2.1295   -1.1710    0.1038 C   0  0  0  0  0  0  0  0  0  0  0  0
   -0.4098   -1.6240    0.0781 N   0  0  0  0  0  0  0  0  0  0  0  0
   -1.5633   -0.8943    0.0282 C   0  0  0  0  0  0  0  0  0  0  0  0
   -2.9046   -1.2696    0.0180 C   0  0  0  0  0  0  0  0  0  0  0  0
   -3.8407   -0.2511   -0.0387 C   0  0  0  0  0  0  0  0  0  0  0  0
   -3.4771    1.0845   -0.0837 C   0  0  0  0  0  0  0  0  0  0  0  0
   -2.1632    1.4839   -0.0752 C   0  0  0  0  0  0  0  0  0  0  0  0
   -1.1958    0.4762   -0.0179 C   0  0  0  0  0  0  0  0  0  0  0  0
    4.6294   -0.4486    0.8278 H   0  0  0  0  0  0  0  0  0  0  0  0
    4.6040   -1.2007   -0.7852 H   0  0  0  0  0  0  0  0  0  0  0  0
    4.9359    0.5402   -0.6201 H   0  0  0  0  0  0  0  0  0  0  0  0
    2.5592    0.9711    1.4885 H   0  0  0  0  0  0  0  0  0  0  0  0
    3.3111    1.9757    0.2260 H   0  0  0  0  0  0  0  0  0  0  0  0
    0.8302    2.4503    0.6678 H   0  0  0  0  0  0  0  0  0  0  0  0
    1.2412    2.0861   -1.0289 H   0  0  0  0  0  0  0  0  0  0  0  0
    2.3038   -2.0105   -0.5692 H   0  0  0  0  0  0  0  0  0  0  0  0
    2.4076   -1.4488    1.1204 H   0  0  0  0  0  0  0  0  0  0  0  0
   -0.3631   -2.5921    0.1167 H   0  0  0  0  0  0  0  0  0  0  0  0
   -3.2009   -2.3075    0.0524 H   0  0  0  0  0  0  0  0  0  0  0  0
   -4.8899   -0.5068   -0.0486 H   0  0  0  0  0  0  0  0  0  0  0  0
   -4.2516    1.8359   -0.1271 H   0  0  0  0  0  0  0  0  0  0  0  0
   -1.8899    2.5282   -0.1112 H   0  0  0  0  0  0  0  0  0  0  0  0
  1  2  1  0  0  0  0
  2  3  1  0  0  0  0
  3  4  1  0  0  0  0
  4  5  1  0  0  0  0
  5  6  2  0  0  0  0
  6  7  1  0  0  0  0
  2  7  1  0  0  0  0
  6  8  1  0  0  0  0
  8  9  1  0  0  0  0
  9 10  2  0  0  0  0
 10 11  1  0  0  0  0
 11 12  2  0  0  0  0
 12 13  1  0  0  0  0
 13 14  2  0  0  0  0
  5 14  1  0  0  0  0
  9 14  1  0  0  0  0
  1 15  1  0  0  0  0
  1 16  1  0  0  0  0
  1 17  1  0  0  0  0
  3 18  1  0  0  0  0
  3 19  1  0  0  0  0
  4 20  1  0  0  0  0
  4 21  1  0  0  0  0
  7 22  1  0  0  0  0
  7 23  1  0  0  0  0
  8 24  1  0  0  0  0
 10 25  1  0  0  0  0
 11 26  1  0  0  0  0
 12 27  1  0  0  0  0
 13 28  1  0  0  0  0
M  END
$$$$
