C6H12O2
APtclcactv06211806033D 0   0.00000     0.00000
 
 20 19  0  0  0  0  0  0  0  0999 V2000
    3.8725    0.4109    0.0000 C   0  0  0  0  0  0  0  0  0  0  0  0
    2.7010   -0.5732   -0.0000 C   0  0  0  0  0  0  0  0  0  0  0  0
    1.3827    0.2033    0.0000 C   0  0  0  0  0  0  0  0  0  0  0  0
    0.2112   -0.7809   -0.0000 C   0  0  0  0  0  0  0  0  0  0  0  0
   -1.0873   -0.0161    0.0000 C   0  0  0  0  0  0  0  0  0  0  0  0
   -1.0768    1.1921    0.0000 O   0  0  0  0  0  0  0  0  0  0  0  0
   -2.2556   -0.6771    0.0000 O   0  0  0  0  0  0  0  0  0  0  0  0
   -3.4664    0.1242   -0.0000 C   0  0  0  0  0  0  0  0  0  0  0  0
    3.8202    1.0380    0.8900 H   0  0  0  0  0  0  0  0  0  0  0  0
    4.8117   -0.1423   -0.0000 H   0  0  0  0  0  0  0  0  0  0  0  0
    3.8202    1.0380   -0.8900 H   0  0  0  0  0  0  0  0  0  0  0  0
    2.7533   -1.2003   -0.8900 H   0  0  0  0  0  0  0  0  0  0  0  0
    2.7533   -1.2003    0.8900 H   0  0  0  0  0  0  0  0  0  0  0  0
    1.3304    0.8304    0.8900 H   0  0  0  0  0  0  0  0  0  0  0  0
    1.3304    0.8304   -0.8900 H   0  0  0  0  0  0  0  0  0  0  0  0
    0.2635   -1.4080   -0.8900 H   0  0  0  0  0  0  0  0  0  0  0  0
    0.2635   -1.4080    0.8900 H   0  0  0  0  0  0  0  0  0  0  0  0
   -3.4858    0.7532   -0.8900 H   0  0  0  0  0  0  0  0  0  0  0  0
   -4.3365   -0.5322   -0.0000 H   0  0  0  0  0  0  0  0  0  0  0  0
   -3.4858    0.7532    0.8900 H   0  0  0  0  0  0  0  0  0  0  0  0
  1  2  1  0  0  0  0
  2  3  1  0  0  0  0
  3  4  1  0  0  0  0
  4  5  1  0  0  0  0
  5  6  2  0  0  0  0
  5  7  1  0  0  0  0
  7  8  1  0  0  0  0
  1  9  1  0  0  0  0
  1 10  1  0  0  0  0
  1 11  1  0  0  0  0
  2 12  1  0  0  0  0
  2 13  1  0  0  0  0
  3 14  1  0  0  0  0
  3 15  1  0  0  0  0
  4 16  1  0  0  0  0
  4 17  1  0  0  0  0
  8 18  1  0  0  0  0
  8 19  1  0  0  0  0
  8 20  1  0  0  0  0
M  END
$$$$
