C3H9N
APtclcactv06211806033D 0   0.00000     0.00000
 
 13 12  0  0  0  0  0  0  0  0999 V2000
    1.8992   -0.1453    0.0224 C   0  0  0  0  0  0  0  0  0  0  0  0
    0.5261    0.5266   -0.0401 C   0  0  0  0  0  0  0  0  0  0  0  0
   -0.5242   -0.4952    0.0638 N   0  0  0  0  0  0  0  0  0  0  0  0
   -1.8594    0.1147    0.0073 C   0  0  0  0  0  0  0  0  0  0  0  0
    2.0012   -0.6762    0.9689 H   0  0  0  0  0  0  0  0  0  0  0  0
    1.9962   -0.8512   -0.8024 H   0  0  0  0  0  0  0  0  0  0  0  0
    2.6786    0.6129   -0.0547 H   0  0  0  0  0  0  0  0  0  0  0  0
    0.4291    1.2325    0.7847 H   0  0  0  0  0  0  0  0  0  0  0  0
    0.4241    1.0575   -0.9866 H   0  0  0  0  0  0  0  0  0  0  0  0
   -0.4171   -1.1980   -0.6523 H   0  0  0  0  0  0  0  0  0  0  0  0
   -1.9779    0.6427   -0.9389 H   0  0  0  0  0  0  0  0  0  0  0  0
   -2.6181   -0.6639    0.0863 H   0  0  0  0  0  0  0  0  0  0  0  0
   -1.9730    0.8177    0.8324 H   0  0  0  0  0  0  0  0  0  0  0  0
  1  2  1  0  0  0  0
  2  3  1  0  0  0  0
  3  4  1  0  0  0  0
  1  5  1  0  0  0  0
  1  6  1  0  0  0  0
  1  7  1  0  0  0  0
  2  8  1  0  0  0  0
  2  9  1  0  0  0  0
  3 10  1  0  0  0  0
  4 11  1  0  0  0  0
  4 12  1  0  0  0  0
  4 13  1  0  0  0  0
M  END
$$$$
