C23H23O12
APtclcactv06291802413D 0   0.00000     0.00000
 
 58 61  0  0  0  0  0  0  0  0999 V2000
    4.6767   -1.2673   -2.3973 C   0  0  0  0  0  0  0  0  0  0  0  0
    3.7730   -2.3918   -1.9615 C   0  0  0  0  0  0  0  0  0  0  0  0
    4.0574   -3.5346   -2.2315 O   0  0  0  0  0  0  0  0  0  0  0  0
    2.6522   -2.1237   -1.2733 O   0  0  0  0  0  0  0  0  0  0  0  0
    1.8296   -3.2559   -0.8863 C   0  0  0  0  0  0  0  0  0  0  0  0
    0.6052   -2.7571   -0.1162 C   0  0  0  0  0  0  0  0  0  0  0  0
   -0.3244   -3.9359    0.1836 C   0  0  0  0  0  0  0  0  0  0  0  0
   -1.5172   -3.4391    1.0062 C   0  0  0  0  0  0  0  0  0  0  0  0
   -0.9994   -2.7681    2.2821 C   0  0  0  0  0  0  0  0  0  0  0  0
   -0.0437   -1.6344    1.9013 C   0  0  0  0  0  0  0  0  0  0  0  0
    1.0256   -2.1594    1.1119 O   0  0  0  0  0  0  0  0  0  0  0  0
   -0.7514   -0.6471    1.1486 O   0  0  0  0  0  0  0  0  0  0  0  0
   -0.0711    0.4828    0.8194 C   0  0  0  0  0  0  0  0  0  0  0  0
   -0.6848    1.5101    0.0801 C   0  0  0  0  0  0  0  0  0  0  0  0
   -0.1083    2.5273   -0.2292 O   0  3  0  0  0  0  0  0  0  0  0  0
    1.0475    2.7886    0.0512 C   0  0  0  0  0  0  0  0  0  0  0  0
    1.6259    4.0007   -0.3554 C   0  0  0  0  0  0  0  0  0  0  0  0
    2.9350    4.2800   -0.0290 C   0  0  0  0  0  0  0  0  0  0  0  0
    3.7027    3.3731    0.7043 C   0  0  0  0  0  0  0  0  0  0  0  0
    3.1687    2.1835    1.1149 C   0  0  0  0  0  0  0  0  0  0  0  0
    1.8341    1.8733    0.7955 C   0  0  0  0  0  0  0  0  0  0  0  0
    1.2402    0.6609    1.2042 C   0  0  0  0  0  0  0  0  0  0  0  0
    3.9216    1.3069    1.8274 O   0  0  0  0  0  0  0  0  0  0  0  0
    3.4872    5.4553   -0.4268 O   0  0  0  0  0  0  0  0  0  0  0  0
   -2.0936    1.3390   -0.3369 C   0  0  0  0  0  0  0  0  0  0  0  0
   -2.9730    2.4221   -0.2911 C   0  0  0  0  0  0  0  0  0  0  0  0
   -4.2886    2.2575   -0.6817 C   0  0  0  0  0  0  0  0  0  0  0  0
   -4.7344    1.0122   -1.1200 C   0  0  0  0  0  0  0  0  0  0  0  0
   -3.8598   -0.0642   -1.1653 C   0  0  0  0  0  0  0  0  0  0  0  0
   -2.5449    0.0955   -0.7824 C   0  0  0  0  0  0  0  0  0  0  0  0
   -6.0281    0.8514   -1.5033 O   0  0  0  0  0  0  0  0  0  0  0  0
   -5.1480    3.3106   -0.6379 O   0  0  0  0  0  0  0  0  0  0  0  0
   -2.1000   -2.2365    3.0224 O   0  0  0  0  0  0  0  0  0  0  0  0
   -2.2663   -2.4942    0.2393 O   0  0  0  0  0  0  0  0  0  0  0  0
   -0.7921   -4.4993   -1.0436 O   0  0  0  0  0  0  0  0  0  0  0  0
    5.5297   -1.6759   -2.9392 H   0  0  0  0  0  0  0  0  0  0  0  0
    4.1246   -0.5886   -3.0474 H   0  0  0  0  0  0  0  0  0  0  0  0
    5.0296   -0.7241   -1.5207 H   0  0  0  0  0  0  0  0  0  0  0  0
    1.5045   -3.7907   -1.7786 H   0  0  0  0  0  0  0  0  0  0  0  0
    2.4095   -3.9263   -0.2519 H   0  0  0  0  0  0  0  0  0  0  0  0
    0.0740   -2.0188   -0.7168 H   0  0  0  0  0  0  0  0  0  0  0  0
    0.2183   -4.6931    0.7495 H   0  0  0  0  0  0  0  0  0  0  0  0
   -2.1544   -4.2829    1.2708 H   0  0  0  0  0  0  0  0  0  0  0  0
   -0.4703   -3.5016    2.8904 H   0  0  0  0  0  0  0  0  0  0  0  0
    0.3611   -1.1809    2.8060 H   0  0  0  0  0  0  0  0  0  0  0  0
    1.0461    4.7131   -0.9235 H   0  0  0  0  0  0  0  0  0  0  0  0
    4.7269    3.6131    0.9488 H   0  0  0  0  0  0  0  0  0  0  0  0
    1.7783   -0.0799    1.7770 H   0  0  0  0  0  0  0  0  0  0  0  0
    3.8711    1.4327    2.7849 H   0  0  0  0  0  0  0  0  0  0  0  0
    3.3788    6.1759    0.2088 H   0  0  0  0  0  0  0  0  0  0  0  0
   -2.6262    3.3867    0.0491 H   0  0  0  0  0  0  0  0  0  0  0  0
   -4.2088   -1.0280   -1.5055 H   0  0  0  0  0  0  0  0  0  0  0  0
   -1.8663   -0.7439   -0.8186 H   0  0  0  0  0  0  0  0  0  0  0  0
   -6.1835    1.0181   -2.4430 H   0  0  0  0  0  0  0  0  0  0  0  0
   -5.1772    3.8287   -1.4539 H   0  0  0  0  0  0  0  0  0  0  0  0
   -1.8448   -1.7961    3.8447 H   0  0  0  0  0  0  0  0  0  0  0  0
   -3.0381   -2.1374    0.7000 H   0  0  0  0  0  0  0  0  0  0  0  0
   -1.3875   -5.2526   -0.9289 H   0  0  0  0  0  0  0  0  0  0  0  0
  1  2  1  0  0  0  0
  2  3  2  0  0  0  0
  2  4  1  0  0  0  0
  4  5  1  0  0  0  0
  5  6  1  0  0  0  0
  6  7  1  0  0  0  0
  7  8  1  0  0  0  0
  8  9  1  0  0  0  0
  9 10  1  0  0  0  0
 10 11  1  0  0  0  0
  6 11  1  0  0  0  0
 10 12  1  0  0  0  0
 12 13  1  0  0  0  0
 13 14  2  0  0  0  0
 14 15  1  0  0  0  0
 15 16  2  0  0  0  0
 16 17  1  0  0  0  0
 17 18  2  0  0  0  0
 18 19  1  0  0  0  0
 19 20  2  0  0  0  0
 20 21  1  0  0  0  0
 16 21  1  0  0  0  0
 21 22  2  0  0  0  0
 13 22  1  0  0  0  0
 20 23  1  0  0  0  0
 18 24  1  0  0  0  0
 14 25  1  0  0  0  0
 25 26  2  0  0  0  0
 26 27  1  0  0  0  0
 27 28  2  0  0  0  0
 28 29  1  0  0  0  0
 29 30  2  0  0  0  0
 25 30  1  0  0  0  0
 28 31  1  0  0  0  0
 27 32  1  0  0  0  0
  9 33  1  0  0  0  0
  8 34  1  0  0  0  0
  7 35  1  0  0  0  0
  1 36  1  0  0  0  0
  1 37  1  0  0  0  0
  1 38  1  0  0  0  0
  5 39  1  0  0  0  0
  5 40  1  0  0  0  0
  6 41  1  0  0  0  0
  7 42  1  0  0  0  0
  8 43  1  0  0  0  0
  9 44  1  0  0  0  0
 10 45  1  0  0  0  0
 17 46  1  0  0  0  0
 19 47  1  0  0  0  0
 22 48  1  0  0  0  0
 23 49  1  0  0  0  0
 24 50  1  0  0  0  0
 26 51  1  0  0  0  0
 29 52  1  0  0  0  0
 30 53  1  0  0  0  0
 31 54  1  0  0  0  0
 32 55  1  0  0  0  0
 33 56  1  0  0  0  0
 34 57  1  0  0  0  0
 35 58  1  0  0  0  0
M  CHG  1  15   1
M  END
$$$$
