C57H92O6
APtclcactv06291803073D 0   0.00000     0.00000
 
155154  0  0  0  0  0  0  0  0999 V2000
  -24.5575    4.0257   -1.7724 C   0  0  0  0  0  0  0  0  0  0  0  0
  -24.1386    2.9630   -0.7545 C   0  0  0  0  0  0  0  0  0  0  0  0
  -22.7931    2.3633   -1.1677 C   0  0  0  0  0  0  0  0  0  0  0  0
  -22.3743    1.3006   -0.1497 C   0  0  0  0  0  0  0  0  0  0  0  0
  -21.0490    0.7098   -0.5567 C   0  0  0  0  0  0  0  0  0  0  0  0
  -20.0268    0.7135    0.2987 C   0  0  0  0  0  0  0  0  0  0  0  0
  -18.7387    0.1394   -0.0969 C   0  0  0  0  0  0  0  0  0  0  0  0
  -17.7041    0.1431    0.7689 C   0  0  0  0  0  0  0  0  0  0  0  0
  -16.4160   -0.4311    0.3733 C   0  0  0  0  0  0  0  0  0  0  0  0
  -15.3938   -0.4274    1.2288 C   0  0  0  0  0  0  0  0  0  0  0  0
  -14.0685   -1.0181    0.8218 C   0  0  0  0  0  0  0  0  0  0  0  0
  -12.9652    0.0245    1.0127 C   0  0  0  0  0  0  0  0  0  0  0  0
  -11.6197   -0.5752    0.5994 C   0  0  0  0  0  0  0  0  0  0  0  0
  -10.5163    0.4674    0.7903 C   0  0  0  0  0  0  0  0  0  0  0  0
   -9.1708   -0.1323    0.3771 C   0  0  0  0  0  0  0  0  0  0  0  0
   -8.0675    0.9103    0.5680 C   0  0  0  0  0  0  0  0  0  0  0  0
   -6.7220    0.3105    0.1548 C   0  0  0  0  0  0  0  0  0  0  0  0
   -5.6352    1.3375    0.3428 C   0  0  0  0  0  0  0  0  0  0  0  0
   -5.9088    2.4364    0.7641 O   0  0  0  0  0  0  0  0  0  0  0  0
   -4.3633    1.0315    0.0423 O   0  0  0  0  0  0  0  0  0  0  0  0
   -3.3692    2.0695    0.2483 C   0  0  0  0  0  0  0  0  0  0  0  0
   -1.9892    1.5396   -0.1461 C   0  0  0  0  0  0  0  0  0  0  0  0
   -0.9619    2.6692   -0.0479 C   0  0  0  0  0  0  0  0  0  0  0  0
    0.3228    2.1987   -0.5344 O   0  0  0  0  0  0  0  0  0  0  0  0
    1.3395    3.0748   -0.5155 C   0  0  0  0  0  0  0  0  0  0  0  0
    1.1620    4.1976   -0.1060 O   0  0  0  0  0  0  0  0  0  0  0  0
    2.7025    2.6580   -1.0050 C   0  0  0  0  0  0  0  0  0  0  0  0
    3.6722    3.8344   -0.8767 C   0  0  0  0  0  0  0  0  0  0  0  0
    5.0560    3.4113   -1.3736 C   0  0  0  0  0  0  0  0  0  0  0  0
    6.0258    4.5877   -1.2453 C   0  0  0  0  0  0  0  0  0  0  0  0
    7.4095    4.1646   -1.7423 C   0  0  0  0  0  0  0  0  0  0  0  0
    8.3793    5.3410   -1.6140 C   0  0  0  0  0  0  0  0  0  0  0  0
    9.7631    4.9178   -2.1110 C   0  0  0  0  0  0  0  0  0  0  0  0
   10.7182    6.0766   -1.9846 C   0  0  0  0  0  0  0  0  0  0  0  0
   11.8546    5.9323   -1.3031 C   0  0  0  0  0  0  0  0  0  0  0  0
   12.7830    7.0586   -1.1803 C   0  0  0  0  0  0  0  0  0  0  0  0
   13.9332    6.9125   -0.4906 C   0  0  0  0  0  0  0  0  0  0  0  0
   14.8615    8.0388   -0.3678 C   0  0  0  0  0  0  0  0  0  0  0  0
   15.9979    7.8945    0.3137 C   0  0  0  0  0  0  0  0  0  0  0  0
   16.9531    9.0532    0.4401 C   0  0  0  0  0  0  0  0  0  0  0  0
   17.2393    9.3192    1.9193 C   0  0  0  0  0  0  0  0  0  0  0  0
   18.2091   10.4957    2.0476 C   0  0  0  0  0  0  0  0  0  0  0  0
   18.4953   10.7617    3.5269 C   0  0  0  0  0  0  0  0  0  0  0  0
   -1.6104    0.4617    0.7500 O   0  0  0  0  0  0  0  0  0  0  0  0
   -0.8130   -0.4951    0.2495 C   0  0  0  0  0  0  0  0  0  0  0  0
   -0.4438   -0.4340   -0.8993 O   0  0  0  0  0  0  0  0  0  0  0  0
   -0.3784   -1.6456    1.1205 C   0  0  0  0  0  0  0  0  0  0  0  0
    0.5180   -2.5864    0.3129 C   0  0  0  0  0  0  0  0  0  0  0  0
    0.9593   -3.7544    1.1971 C   0  0  0  0  0  0  0  0  0  0  0  0
    1.8556   -4.6953    0.3895 C   0  0  0  0  0  0  0  0  0  0  0  0
    2.2969   -5.8633    1.2737 C   0  0  0  0  0  0  0  0  0  0  0  0
    3.1933   -6.8041    0.4661 C   0  0  0  0  0  0  0  0  0  0  0  0
    3.6345   -7.9721    1.3504 C   0  0  0  0  0  0  0  0  0  0  0  0
    4.5174   -8.8988    0.5549 C   0  0  0  0  0  0  0  0  0  0  0  0
    5.7339   -9.2085    1.0032 C   0  0  0  0  0  0  0  0  0  0  0  0
    6.5920  -10.1092    0.2300 C   0  0  0  0  0  0  0  0  0  0  0  0
    7.8231  -10.4226    0.6837 C   0  0  0  0  0  0  0  0  0  0  0  0
    8.6813  -11.3234   -0.0895 C   0  0  0  0  0  0  0  0  0  0  0  0
    9.8977  -11.6331    0.3588 C   0  0  0  0  0  0  0  0  0  0  0  0
   10.7806  -12.5598   -0.4367 C   0  0  0  0  0  0  0  0  0  0  0  0
   12.1210  -11.8754   -0.7124 C   0  0  0  0  0  0  0  0  0  0  0  0
   13.0173  -12.8163   -1.5200 C   0  0  0  0  0  0  0  0  0  0  0  0
   14.3577  -12.1320   -1.7957 C   0  0  0  0  0  0  0  0  0  0  0  0
  -24.6506    3.5685   -2.7575 H   0  0  0  0  0  0  0  0  0  0  0  0
  -25.5160    4.4530   -1.4780 H   0  0  0  0  0  0  0  0  0  0  0  0
  -23.8041    4.8127   -1.8069 H   0  0  0  0  0  0  0  0  0  0  0  0
  -24.0454    3.4203    0.2306 H   0  0  0  0  0  0  0  0  0  0  0  0
  -24.8920    2.1760   -0.7199 H   0  0  0  0  0  0  0  0  0  0  0  0
  -22.8863    1.9060   -2.1527 H   0  0  0  0  0  0  0  0  0  0  0  0
  -22.0397    3.1503   -1.2022 H   0  0  0  0  0  0  0  0  0  0  0  0
  -22.2811    1.7578    0.8354 H   0  0  0  0  0  0  0  0  0  0  0  0
  -23.1276    0.5136   -0.1152 H   0  0  0  0  0  0  0  0  0  0  0  0
  -20.9274    0.2835   -1.5415 H   0  0  0  0  0  0  0  0  0  0  0  0
  -20.1483    1.1399    1.2835 H   0  0  0  0  0  0  0  0  0  0  0  0
  -18.6171   -0.2870   -1.0817 H   0  0  0  0  0  0  0  0  0  0  0  0
  -17.8257    0.5695    1.7537 H   0  0  0  0  0  0  0  0  0  0  0  0
  -16.2945   -0.8575   -0.6115 H   0  0  0  0  0  0  0  0  0  0  0  0
  -15.5153   -0.0010    2.2136 H   0  0  0  0  0  0  0  0  0  0  0  0
  -13.8547   -1.8906    1.4392 H   0  0  0  0  0  0  0  0  0  0  0  0
  -14.1098   -1.3158   -0.2260 H   0  0  0  0  0  0  0  0  0  0  0  0
  -13.1790    0.8970    0.3953 H   0  0  0  0  0  0  0  0  0  0  0  0
  -12.9239    0.3222    2.0604 H   0  0  0  0  0  0  0  0  0  0  0  0
  -11.4058   -1.4477    1.2168 H   0  0  0  0  0  0  0  0  0  0  0  0
  -11.6610   -0.8729   -0.4483 H   0  0  0  0  0  0  0  0  0  0  0  0
  -10.7302    1.3399    0.1729 H   0  0  0  0  0  0  0  0  0  0  0  0
  -10.4750    0.7651    1.8381 H   0  0  0  0  0  0  0  0  0  0  0  0
   -8.9570   -1.0048    0.9945 H   0  0  0  0  0  0  0  0  0  0  0  0
   -9.2121   -0.4300   -0.6706 H   0  0  0  0  0  0  0  0  0  0  0  0
   -8.2813    1.7828   -0.0494 H   0  0  0  0  0  0  0  0  0  0  0  0
   -8.0262    1.2080    1.6158 H   0  0  0  0  0  0  0  0  0  0  0  0
   -6.5081   -0.5619    0.7722 H   0  0  0  0  0  0  0  0  0  0  0  0
   -6.7633    0.0129   -0.8930 H   0  0  0  0  0  0  0  0  0  0  0  0
   -3.6152    2.9354   -0.3664 H   0  0  0  0  0  0  0  0  0  0  0  0
   -3.3601    2.3605    1.2987 H   0  0  0  0  0  0  0  0  0  0  0  0
   -2.0222    1.1664   -1.1697 H   0  0  0  0  0  0  0  0  0  0  0  0
   -1.2920    3.5140   -0.6523 H   0  0  0  0  0  0  0  0  0  0  0  0
   -0.8643    2.9822    0.9916 H   0  0  0  0  0  0  0  0  0  0  0  0
    3.0639    1.8223   -0.4057 H   0  0  0  0  0  0  0  0  0  0  0  0
    2.6361    2.3541   -2.0497 H   0  0  0  0  0  0  0  0  0  0  0  0
    3.3109    4.6702   -1.4759 H   0  0  0  0  0  0  0  0  0  0  0  0
    3.7386    4.1383    0.1680 H   0  0  0  0  0  0  0  0  0  0  0  0
    5.4174    2.5755   -0.7744 H   0  0  0  0  0  0  0  0  0  0  0  0
    4.9896    3.1074   -2.4183 H   0  0  0  0  0  0  0  0  0  0  0  0
    5.6644    5.4235   -1.8446 H   0  0  0  0  0  0  0  0  0  0  0  0
    6.0921    4.8916   -0.2007 H   0  0  0  0  0  0  0  0  0  0  0  0
    7.7709    3.3288   -1.1431 H   0  0  0  0  0  0  0  0  0  0  0  0
    7.3432    3.8607   -2.7870 H   0  0  0  0  0  0  0  0  0  0  0  0
    8.0179    6.1767   -2.2132 H   0  0  0  0  0  0  0  0  0  0  0  0
    8.4457    5.6449   -0.5693 H   0  0  0  0  0  0  0  0  0  0  0  0
   10.1244    4.0821   -1.5117 H   0  0  0  0  0  0  0  0  0  0  0  0
    9.6967    4.6140   -3.1556 H   0  0  0  0  0  0  0  0  0  0  0  0
   10.4819    7.0240   -2.4462 H   0  0  0  0  0  0  0  0  0  0  0  0
   12.0909    4.9849   -0.8415 H   0  0  0  0  0  0  0  0  0  0  0  0
   12.5467    8.0059   -1.6419 H   0  0  0  0  0  0  0  0  0  0  0  0
   14.1694    5.9651   -0.0290 H   0  0  0  0  0  0  0  0  0  0  0  0
   14.6252    8.9862   -0.8294 H   0  0  0  0  0  0  0  0  0  0  0  0
   16.2342    6.9471    0.7753 H   0  0  0  0  0  0  0  0  0  0  0  0
   17.8846    8.8139   -0.0730 H   0  0  0  0  0  0  0  0  0  0  0  0
   16.5086    9.9412   -0.0094 H   0  0  0  0  0  0  0  0  0  0  0  0
   16.3079    9.5586    2.4323 H   0  0  0  0  0  0  0  0  0  0  0  0
   17.6839    8.4313    2.3687 H   0  0  0  0  0  0  0  0  0  0  0  0
   19.1406   10.2564    1.5346 H   0  0  0  0  0  0  0  0  0  0  0  0
   17.7645   11.3837    1.5982 H   0  0  0  0  0  0  0  0  0  0  0  0
   19.1862   11.5998    3.6183 H   0  0  0  0  0  0  0  0  0  0  0  0
   17.5639   11.0010    4.0399 H   0  0  0  0  0  0  0  0  0  0  0  0
   18.9399    9.8737    3.9763 H   0  0  0  0  0  0  0  0  0  0  0  0
    0.1754   -1.2631    1.9779 H   0  0  0  0  0  0  0  0  0  0  0  0
   -1.2564   -2.1898    1.4684 H   0  0  0  0  0  0  0  0  0  0  0  0
   -0.0358   -2.9688   -0.5446 H   0  0  0  0  0  0  0  0  0  0  0  0
    1.3959   -2.0421   -0.0351 H   0  0  0  0  0  0  0  0  0  0  0  0
    1.5130   -3.3720    2.0545 H   0  0  0  0  0  0  0  0  0  0  0  0
    0.0813   -4.2987    1.5450 H   0  0  0  0  0  0  0  0  0  0  0  0
    1.3018   -5.0777   -0.4679 H   0  0  0  0  0  0  0  0  0  0  0  0
    2.7336   -4.1510    0.0416 H   0  0  0  0  0  0  0  0  0  0  0  0
    2.8507   -5.4808    2.1312 H   0  0  0  0  0  0  0  0  0  0  0  0
    1.4189   -6.4075    1.6217 H   0  0  0  0  0  0  0  0  0  0  0  0
    2.6395   -7.1865   -0.3913 H   0  0  0  0  0  0  0  0  0  0  0  0
    4.0712   -6.2598    0.1182 H   0  0  0  0  0  0  0  0  0  0  0  0
    4.1883   -7.5897    2.2078 H   0  0  0  0  0  0  0  0  0  0  0  0
    2.7566   -8.5164    1.6983 H   0  0  0  0  0  0  0  0  0  0  0  0
    4.1645   -9.3120   -0.3785 H   0  0  0  0  0  0  0  0  0  0  0  0
    6.0868   -8.7953    1.9365 H   0  0  0  0  0  0  0  0  0  0  0  0
    6.2391  -10.5224   -0.7033 H   0  0  0  0  0  0  0  0  0  0  0  0
    8.1761  -10.0095    1.6171 H   0  0  0  0  0  0  0  0  0  0  0  0
    8.3283  -11.7365   -1.0228 H   0  0  0  0  0  0  0  0  0  0  0  0
   10.2506  -11.2199    1.2922 H   0  0  0  0  0  0  0  0  0  0  0  0
   10.9499  -13.4755    0.1297 H   0  0  0  0  0  0  0  0  0  0  0  0
   10.2950  -12.8018   -1.3820 H   0  0  0  0  0  0  0  0  0  0  0  0
   11.9517  -10.9597   -1.2788 H   0  0  0  0  0  0  0  0  0  0  0  0
   12.6066  -11.6334    0.2330 H   0  0  0  0  0  0  0  0  0  0  0  0
   13.1866  -13.7321   -0.9536 H   0  0  0  0  0  0  0  0  0  0  0  0
   12.5317  -13.0583   -2.4654 H   0  0  0  0  0  0  0  0  0  0  0  0
   14.1884  -11.2162   -2.3621 H   0  0  0  0  0  0  0  0  0  0  0  0
   14.8433  -11.8900   -0.8504 H   0  0  0  0  0  0  0  0  0  0  0  0
   14.9963  -12.8023   -2.3711 H   0  0  0  0  0  0  0  0  0  0  0  0
  1  2  1  0  0  0  0
  2  3  1  0  0  0  0
  3  4  1  0  0  0  0
  4  5  1  0  0  0  0
  5  6  2  0  0  0  0
  6  7  1  0  0  0  0
  7  8  2  0  0  0  0
  8  9  1  0  0  0  0
  9 10  2  0  0  0  0
 10 11  1  0  0  0  0
 11 12  1  0  0  0  0
 12 13  1  0  0  0  0
 13 14  1  0  0  0  0
 14 15  1  0  0  0  0
 15 16  1  0  0  0  0
 16 17  1  0  0  0  0
 17 18  1  0  0  0  0
 18 19  2  0  0  0  0
 18 20  1  0  0  0  0
 20 21  1  0  0  0  0
 21 22  1  0  0  0  0
 22 23  1  0  0  0  0
 23 24  1  0  0  0  0
 24 25  1  0  0  0  0
 25 26  2  0  0  0  0
 25 27  1  0  0  0  0
 27 28  1  0  0  0  0
 28 29  1  0  0  0  0
 29 30  1  0  0  0  0
 30 31  1  0  0  0  0
 31 32  1  0  0  0  0
 32 33  1  0  0  0  0
 33 34  1  0  0  0  0
 34 35  2  0  0  0  0
 35 36  1  0  0  0  0
 36 37  2  0  0  0  0
 37 38  1  0  0  0  0
 38 39  2  0  0  0  0
 39 40  1  0  0  0  0
 40 41  1  0  0  0  0
 41 42  1  0  0  0  0
 42 43  1  0  0  0  0
 22 44  1  0  0  0  0
 44 45  1  0  0  0  0
 45 46  2  0  0  0  0
 45 47  1  0  0  0  0
 47 48  1  0  0  0  0
 48 49  1  0  0  0  0
 49 50  1  0  0  0  0
 50 51  1  0  0  0  0
 51 52  1  0  0  0  0
 52 53  1  0  0  0  0
 53 54  1  0  0  0  0
 54 55  2  0  0  0  0
 55 56  1  0  0  0  0
 56 57  2  0  0  0  0
 57 58  1  0  0  0  0
 58 59  2  0  0  0  0
 59 60  1  0  0  0  0
 60 61  1  0  0  0  0
 61 62  1  0  0  0  0
 62 63  1  0  0  0  0
  1 64  1  0  0  0  0
  1 65  1  0  0  0  0
  1 66  1  0  0  0  0
  2 67  1  0  0  0  0
  2 68  1  0  0  0  0
  3 69  1  0  0  0  0
  3 70  1  0  0  0  0
  4 71  1  0  0  0  0
  4 72  1  0  0  0  0
  5 73  1  0  0  0  0
  6 74  1  0  0  0  0
  7 75  1  0  0  0  0
  8 76  1  0  0  0  0
  9 77  1  0  0  0  0
 10 78  1  0  0  0  0
 11 79  1  0  0  0  0
 11 80  1  0  0  0  0
 12 81  1  0  0  0  0
 12 82  1  0  0  0  0
 13 83  1  0  0  0  0
 13 84  1  0  0  0  0
 14 85  1  0  0  0  0
 14 86  1  0  0  0  0
 15 87  1  0  0  0  0
 15 88  1  0  0  0  0
 16 89  1  0  0  0  0
 16 90  1  0  0  0  0
 17 91  1  0  0  0  0
 17 92  1  0  0  0  0
 21 93  1  0  0  0  0
 21 94  1  0  0  0  0
 22 95  1  0  0  0  0
 23 96  1  0  0  0  0
 23 97  1  0  0  0  0
 27 98  1  0  0  0  0
 27 99  1  0  0  0  0
 28100  1  0  0  0  0
 28101  1  0  0  0  0
 29102  1  0  0  0  0
 29103  1  0  0  0  0
 30104  1  0  0  0  0
 30105  1  0  0  0  0
 31106  1  0  0  0  0
 31107  1  0  0  0  0
 32108  1  0  0  0  0
 32109  1  0  0  0  0
 33110  1  0  0  0  0
 33111  1  0  0  0  0
 34112  1  0  0  0  0
 35113  1  0  0  0  0
 36114  1  0  0  0  0
 37115  1  0  0  0  0
 38116  1  0  0  0  0
 39117  1  0  0  0  0
 40118  1  0  0  0  0
 40119  1  0  0  0  0
 41120  1  0  0  0  0
 41121  1  0  0  0  0
 42122  1  0  0  0  0
 42123  1  0  0  0  0
 43124  1  0  0  0  0
 43125  1  0  0  0  0
 43126  1  0  0  0  0
 47127  1  0  0  0  0
 47128  1  0  0  0  0
 48129  1  0  0  0  0
 48130  1  0  0  0  0
 49131  1  0  0  0  0
 49132  1  0  0  0  0
 50133  1  0  0  0  0
 50134  1  0  0  0  0
 51135  1  0  0  0  0
 51136  1  0  0  0  0
 52137  1  0  0  0  0
 52138  1  0  0  0  0
 53139  1  0  0  0  0
 53140  1  0  0  0  0
 54141  1  0  0  0  0
 55142  1  0  0  0  0
 56143  1  0  0  0  0
 57144  1  0  0  0  0
 58145  1  0  0  0  0
 59146  1  0  0  0  0
 60147  1  0  0  0  0
 60148  1  0  0  0  0
 61149  1  0  0  0  0
 61150  1  0  0  0  0
 62151  1  0  0  0  0
 62152  1  0  0  0  0
 63153  1  0  0  0  0
 63154  1  0  0  0  0
 63155  1  0  0  0  0
M  END
$$$$
