C2H6S2
APtclcactv06211806033D 0   0.00000     0.00000
 
 10  9  0  0  0  0  0  0  0  0999 V2000
   -1.8101    0.8704   -0.4508 C   0  0  0  0  0  0  0  0  0  0  0  0
   -0.9227   -0.4328    0.4464 S   0  0  0  0  0  0  0  0  0  0  0  0
    0.9227   -0.4328   -0.4464 S   0  0  0  0  0  0  0  0  0  0  0  0
    1.8101    0.8704    0.4508 C   0  0  0  0  0  0  0  0  0  0  0  0
   -1.2854    1.8179   -0.3282 H   0  0  0  0  0  0  0  0  0  0  0  0
   -1.8569    0.6153   -1.5096 H   0  0  0  0  0  0  0  0  0  0  0  0
   -2.8212    0.9609   -0.0539 H   0  0  0  0  0  0  0  0  0  0  0  0
    1.2854    1.8179    0.3282 H   0  0  0  0  0  0  0  0  0  0  0  0
    1.8569    0.6153    1.5096 H   0  0  0  0  0  0  0  0  0  0  0  0
    2.8212    0.9609    0.0539 H   0  0  0  0  0  0  0  0  0  0  0  0
  1  2  1  0  0  0  0
  2  3  1  0  0  0  0
  3  4  1  0  0  0  0
  1  5  1  0  0  0  0
  1  6  1  0  0  0  0
  1  7  1  0  0  0  0
  4  8  1  0  0  0  0
  4  9  1  0  0  0  0
  4 10  1  0  0  0  0
M  END
$$$$
