C12H16O4
APtclcactv06211806373D 0   0.00000     0.00000
 
 32 32  0  0  0  0  0  0  0  0999 V2000
   -5.2151    1.1068    0.0112 C   0  0  0  0  0  0  0  0  0  0  0  0
   -4.1858   -0.0252    0.0109 C   0  0  0  0  0  0  0  0  0  0  0  0
   -2.7754    0.5680    0.0102 C   0  0  0  0  0  0  0  0  0  0  0  0
   -1.7616   -0.5470    0.0098 C   0  0  0  0  0  0  0  0  0  0  0  0
   -2.1309   -1.7032    0.0101 O   0  0  0  0  0  0  0  0  0  0  0  0
   -0.3336   -0.2361    0.0091 C   0  0  0  0  0  0  0  0  0  0  0  0
    0.6171   -1.2738    0.0088 C   0  0  0  0  0  0  0  0  0  0  0  0
    1.9654   -0.9696    0.0077 C   0  0  0  0  0  0  0  0  0  0  0  0
    2.3831    0.3553    0.0069 C   0  0  0  0  0  0  0  0  0  0  0  0
    1.4522    1.3870    0.0072 C   0  0  0  0  0  0  0  0  0  0  0  0
    0.0998    1.1033    0.0029 C   0  0  0  0  0  0  0  0  0  0  0  0
   -0.8069    2.1117    0.0028 O   0  0  0  0  0  0  0  0  0  0  0  0
    3.7088    0.6439    0.0062 O   0  0  0  0  0  0  0  0  0  0  0  0
    4.0719    2.0260    0.0054 C   0  0  0  0  0  0  0  0  0  0  0  0
    2.9856   -2.0787    0.0079 C   0  0  0  0  0  0  0  0  0  0  0  0
    0.2117   -2.5679    0.0101 O   0  0  0  0  0  0  0  0  0  0  0  0
   -5.0798    1.7212   -0.8789 H   0  0  0  0  0  0  0  0  0  0  0  0
   -6.2199    0.6842    0.0117 H   0  0  0  0  0  0  0  0  0  0  0  0
   -5.0790    1.7214    0.9011 H   0  0  0  0  0  0  0  0  0  0  0  0
   -4.3211   -0.6396    0.9010 H   0  0  0  0  0  0  0  0  0  0  0  0
   -4.3219   -0.6398   -0.8790 H   0  0  0  0  0  0  0  0  0  0  0  0
   -2.6401    1.1824   -0.8799 H   0  0  0  0  0  0  0  0  0  0  0  0
   -2.6393    1.1826    0.9000 H   0  0  0  0  0  0  0  0  0  0  0  0
    1.7867    2.4139    0.0066 H   0  0  0  0  0  0  0  0  0  0  0  0
   -1.0675    2.4062   -0.8807 H   0  0  0  0  0  0  0  0  0  0  0  0
    5.1581    2.1164    0.0050 H   0  0  0  0  0  0  0  0  0  0  0  0
    3.6669    2.5076   -0.8846 H   0  0  0  0  0  0  0  0  0  0  0  0
    3.6675    2.5084    0.8953 H   0  0  0  0  0  0  0  0  0  0  0  0
    3.2309   -2.3469   -1.0198 H   0  0  0  0  0  0  0  0  0  0  0  0
    3.8869   -1.7433    0.5209 H   0  0  0  0  0  0  0  0  0  0  0  0
    2.5769   -2.9483    0.5226 H   0  0  0  0  0  0  0  0  0  0  0  0
    0.0932   -2.9438   -0.8730 H   0  0  0  0  0  0  0  0  0  0  0  0
  1  2  1  0  0  0  0
  2  3  1  0  0  0  0
  3  4  1  0  0  0  0
  4  5  2  0  0  0  0
  4  6  1  0  0  0  0
  6  7  2  0  0  0  0
  7  8  1  0  0  0  0
  8  9  2  0  0  0  0
  9 10  1  0  0  0  0
 10 11  2  0  0  0  0
  6 11  1  0  0  0  0
 11 12  1  0  0  0  0
  9 13  1  0  0  0  0
 13 14  1  0  0  0  0
  8 15  1  0  0  0  0
  7 16  1  0  0  0  0
  1 17  1  0  0  0  0
  1 18  1  0  0  0  0
  1 19  1  0  0  0  0
  2 20  1  0  0  0  0
  2 21  1  0  0  0  0
  3 22  1  0  0  0  0
  3 23  1  0  0  0  0
 10 24  1  0  0  0  0
 12 25  1  0  0  0  0
 14 26  1  0  0  0  0
 14 27  1  0  0  0  0
 14 28  1  0  0  0  0
 15 29  1  0  0  0  0
 15 30  1  0  0  0  0
 15 31  1  0  0  0  0
 16 32  1  0  0  0  0
M  END
$$$$
