C10H20O2
APtclcactv06211806033D 0   0.00000     0.00000
 
 32 31  0  0  0  0  0  0  0  0999 V2000
    6.2241    0.4094    0.0000 C   0  0  0  0  0  0  0  0  0  0  0  0
    4.9335   -0.4124   -0.0000 C   0  0  0  0  0  0  0  0  0  0  0  0
    3.7286    0.5305    0.0000 C   0  0  0  0  0  0  0  0  0  0  0  0
    2.4380   -0.2912   -0.0000 C   0  0  0  0  0  0  0  0  0  0  0  0
    1.2330    0.6516   -0.0000 C   0  0  0  0  0  0  0  0  0  0  0  0
   -0.0382   -0.1578   -0.0000 C   0  0  0  0  0  0  0  0  0  0  0  0
    0.0142   -1.3649   -0.0000 O   0  0  0  0  0  0  0  0  0  0  0  0
   -1.2286    0.4623   -0.0000 O   0  0  0  0  0  0  0  0  0  0  0  0
   -2.4109   -0.3805    0.0000 C   0  0  0  0  0  0  0  0  0  0  0  0
   -3.6636    0.4980   -0.0000 C   0  0  0  0  0  0  0  0  0  0  0  0
   -4.9094   -0.3902    0.0000 C   0  0  0  0  0  0  0  0  0  0  0  0
   -6.1620    0.4883   -0.0000 C   0  0  0  0  0  0  0  0  0  0  0  0
    6.2546    1.0380    0.8900 H   0  0  0  0  0  0  0  0  0  0  0  0
    7.0825   -0.2623    0.0000 H   0  0  0  0  0  0  0  0  0  0  0  0
    6.2546    1.0380   -0.8900 H   0  0  0  0  0  0  0  0  0  0  0  0
    4.9030   -1.0409   -0.8900 H   0  0  0  0  0  0  0  0  0  0  0  0
    4.9030   -1.0409    0.8900 H   0  0  0  0  0  0  0  0  0  0  0  0
    3.7591    1.1591    0.8900 H   0  0  0  0  0  0  0  0  0  0  0  0
    3.7591    1.1591   -0.8900 H   0  0  0  0  0  0  0  0  0  0  0  0
    2.4075   -0.9198   -0.8900 H   0  0  0  0  0  0  0  0  0  0  0  0
    2.4075   -0.9198    0.8900 H   0  0  0  0  0  0  0  0  0  0  0  0
    1.2635    1.2802    0.8900 H   0  0  0  0  0  0  0  0  0  0  0  0
    1.2635    1.2802   -0.8900 H   0  0  0  0  0  0  0  0  0  0  0  0
   -2.4085   -1.0099   -0.8900 H   0  0  0  0  0  0  0  0  0  0  0  0
   -2.4085   -1.0099    0.8900 H   0  0  0  0  0  0  0  0  0  0  0  0
   -3.6660    1.1273    0.8900 H   0  0  0  0  0  0  0  0  0  0  0  0
   -3.6660    1.1273   -0.8900 H   0  0  0  0  0  0  0  0  0  0  0  0
   -4.9070   -1.0195   -0.8900 H   0  0  0  0  0  0  0  0  0  0  0  0
   -4.9070   -1.0195    0.8900 H   0  0  0  0  0  0  0  0  0  0  0  0
   -6.1645    1.1176   -0.8900 H   0  0  0  0  0  0  0  0  0  0  0  0
   -7.0496   -0.1444    0.0000 H   0  0  0  0  0  0  0  0  0  0  0  0
   -6.1645    1.1176    0.8900 H   0  0  0  0  0  0  0  0  0  0  0  0
  1  2  1  0  0  0  0
  2  3  1  0  0  0  0
  3  4  1  0  0  0  0
  4  5  1  0  0  0  0
  5  6  1  0  0  0  0
  6  7  2  0  0  0  0
  6  8  1  0  0  0  0
  8  9  1  0  0  0  0
  9 10  1  0  0  0  0
 10 11  1  0  0  0  0
 11 12  1  0  0  0  0
  1 13  1  0  0  0  0
  1 14  1  0  0  0  0
  1 15  1  0  0  0  0
  2 16  1  0  0  0  0
  2 17  1  0  0  0  0
  3 18  1  0  0  0  0
  3 19  1  0  0  0  0
  4 20  1  0  0  0  0
  4 21  1  0  0  0  0
  5 22  1  0  0  0  0
  5 23  1  0  0  0  0
  9 24  1  0  0  0  0
  9 25  1  0  0  0  0
 10 26  1  0  0  0  0
 10 27  1  0  0  0  0
 11 28  1  0  0  0  0
 11 29  1  0  0  0  0
 12 30  1  0  0  0  0
 12 31  1  0  0  0  0
 12 32  1  0  0  0  0
M  END
$$$$
