C21H28O6S
APtclcactv06281817353D 0   0.00000     0.00000
 
 56 58  0  0  0  0  0  0  0  0999 V2000
    2.5883    3.5626    0.0750 C   0  0  0  0  0  0  0  0  0  0  0  0
    1.5219    2.9849    1.0077 C   0  0  0  0  0  0  0  0  0  0  0  0
    0.1395    3.5451    0.6330 C   0  0  0  0  0  0  0  0  0  0  0  0
   -0.2585    3.1473   -0.7850 C   0  0  0  0  0  0  0  0  0  0  0  0
   -0.1963    1.6239   -0.9827 C   0  0  0  0  0  0  0  0  0  0  0  0
    1.2211    1.1865   -0.6620 C   0  0  0  0  0  0  0  0  0  0  0  0
    1.4549    1.4796    0.8453 C   0  0  0  0  0  0  0  0  0  0  0  0
    2.7284    0.6994    1.1619 C   0  0  0  0  0  0  0  0  0  0  0  0
    2.7142   -0.4973    0.1903 C   0  0  0  0  0  0  0  0  0  0  0  0
    1.4857   -0.3232   -0.7311 C   0  0  0  0  0  0  0  0  0  0  0  0
    0.3493   -1.0686   -0.2198 O   0  0  0  0  0  0  0  0  0  0  0  0
    0.1962   -2.3263   -0.6630 C   0  0  0  0  0  0  0  0  0  0  0  0
    0.9855   -2.7891   -1.4521 O   0  0  0  0  0  0  0  0  0  0  0  0
   -0.9602   -3.1612   -0.1764 C   0  0  0  0  0  0  0  0  0  0  0  0
    3.9821   -0.5401   -0.6225 C   0  0  0  0  0  0  0  0  0  0  0  0
    4.4538    0.3798   -1.4272 C   0  0  0  0  0  0  0  0  0  0  0  0
    4.5873   -1.8903   -0.2955 C   0  0  0  0  0  0  0  0  0  0  0  0
    3.7018   -2.5510    0.6427 O   0  0  0  0  0  0  0  0  0  0  0  0
    2.6386   -1.7959    0.9377 C   0  0  0  0  0  0  0  0  0  0  0  0
    1.7499   -2.1121    1.6927 O   0  0  0  0  0  0  0  0  0  0  0  0
    0.2908    0.9224    1.6670 C   0  0  0  0  0  0  0  0  0  0  0  0
   -1.1159    0.9806   -0.0982 O   0  0  0  0  0  0  0  0  0  0  0  0
   -2.3690    0.7785   -0.5578 C   0  0  0  0  0  0  0  0  0  0  0  0
   -2.6712    1.1397   -1.6804 O   0  0  0  0  0  0  0  0  0  0  0  0
   -3.3280    0.1490    0.2625 C   0  0  0  0  0  0  0  0  0  0  0  0
   -4.5834   -0.0534   -0.1980 C   0  0  0  0  0  0  0  0  0  0  0  0
   -5.7816   -0.8400    0.8269 S   0  0  0  0  0  0  0  0  0  0  0  0
   -7.2061   -0.8290   -0.2897 C   0  0  0  0  0  0  0  0  0  0  0  0
    2.6869    4.6332    0.2548 H   0  0  0  0  0  0  0  0  0  0  0  0
    3.5429    3.0726    0.2669 H   0  0  0  0  0  0  0  0  0  0  0  0
    2.2950    3.3937   -0.9611 H   0  0  0  0  0  0  0  0  0  0  0  0
    1.7570    3.2378    2.0416 H   0  0  0  0  0  0  0  0  0  0  0  0
   -0.6025    3.1601    1.3326 H   0  0  0  0  0  0  0  0  0  0  0  0
    0.1644    4.6324    0.7044 H   0  0  0  0  0  0  0  0  0  0  0  0
   -1.2748    3.4903   -0.9790 H   0  0  0  0  0  0  0  0  0  0  0  0
    0.4187    3.6261   -1.4923 H   0  0  0  0  0  0  0  0  0  0  0  0
   -0.4370    1.3737   -2.0159 H   0  0  0  0  0  0  0  0  0  0  0  0
    1.9357    1.7377   -1.2733 H   0  0  0  0  0  0  0  0  0  0  0  0
    3.6068    1.3202    0.9856 H   0  0  0  0  0  0  0  0  0  0  0  0
    2.7117    0.3495    2.1941 H   0  0  0  0  0  0  0  0  0  0  0  0
    1.7214   -0.6277   -1.7508 H   0  0  0  0  0  0  0  0  0  0  0  0
   -1.5589   -2.5793    0.5243 H   0  0  0  0  0  0  0  0  0  0  0  0
   -1.5779   -3.4558   -1.0247 H   0  0  0  0  0  0  0  0  0  0  0  0
   -0.5801   -4.0523    0.3232 H   0  0  0  0  0  0  0  0  0  0  0  0
    3.9129    1.3041   -1.5668 H   0  0  0  0  0  0  0  0  0  0  0  0
    5.3836    0.2138   -1.9510 H   0  0  0  0  0  0  0  0  0  0  0  0
    4.6746   -2.4862   -1.2040 H   0  0  0  0  0  0  0  0  0  0  0  0
    5.5703   -1.7555    0.1558 H   0  0  0  0  0  0  0  0  0  0  0  0
    0.0493   -0.0823    1.3200 H   0  0  0  0  0  0  0  0  0  0  0  0
    0.5735    0.8853    2.7190 H   0  0  0  0  0  0  0  0  0  0  0  0
   -0.5799    1.5672    1.5472 H   0  0  0  0  0  0  0  0  0  0  0  0
   -3.0599   -0.1714    1.2584 H   0  0  0  0  0  0  0  0  0  0  0  0
   -4.8515    0.2670   -1.1939 H   0  0  0  0  0  0  0  0  0  0  0  0
   -7.4542    0.1995   -0.5520 H   0  0  0  0  0  0  0  0  0  0  0  0
   -6.9629   -1.3861   -1.1945 H   0  0  0  0  0  0  0  0  0  0  0  0
   -8.0590   -1.2937    0.2049 H   0  0  0  0  0  0  0  0  0  0  0  0
  1  2  1  0  0  0  0
  2  3  1  0  0  0  0
  3  4  1  0  0  0  0
  4  5  1  0  0  0  0
  5  6  1  0  0  0  0
  6  7  1  0  0  0  0
  2  7  1  0  0  0  0
  7  8  1  0  0  0  0
  8  9  1  0  0  0  0
  9 10  1  0  0  0  0
  6 10  1  0  0  0  0
 10 11  1  0  0  0  0
 11 12  1  0  0  0  0
 12 13  2  0  0  0  0
 12 14  1  0  0  0  0
  9 15  1  0  0  0  0
 15 16  2  0  0  0  0
 15 17  1  0  0  0  0
 17 18  1  0  0  0  0
 18 19  1  0  0  0  0
  9 19  1  0  0  0  0
 19 20  2  0  0  0  0
  7 21  1  0  0  0  0
  5 22  1  0  0  0  0
 22 23  1  0  0  0  0
 23 24  2  0  0  0  0
 23 25  1  0  0  0  0
 25 26  2  0  0  0  0
 26 27  1  0  0  0  0
 27 28  1  0  0  0  0
  1 29  1  0  0  0  0
  1 30  1  0  0  0  0
  1 31  1  0  0  0  0
  2 32  1  0  0  0  0
  3 33  1  0  0  0  0
  3 34  1  0  0  0  0
  4 35  1  0  0  0  0
  4 36  1  0  0  0  0
  5 37  1  0  0  0  0
  6 38  1  0  0  0  0
  8 39  1  0  0  0  0
  8 40  1  0  0  0  0
 10 41  1  0  0  0  0
 14 42  1  0  0  0  0
 14 43  1  0  0  0  0
 14 44  1  0  0  0  0
 16 45  1  0  0  0  0
 16 46  1  0  0  0  0
 17 47  1  0  0  0  0
 17 48  1  0  0  0  0
 21 49  1  0  0  0  0
 21 50  1  0  0  0  0
 21 51  1  0  0  0  0
 25 52  1  0  0  0  0
 26 53  1  0  0  0  0
 28 54  1  0  0  0  0
 28 55  1  0  0  0  0
 28 56  1  0  0  0  0
M  END
$$$$
