C27H44O3
APtclcactv06281817353D 0   0.00000     0.00000
 
 74 79  0  0  0  0  0  0  0  0999 V2000
    7.3476    1.9173    0.5565 C   0  0  0  0  0  0  0  0  0  0  0  0
    6.2845    1.1840   -0.2648 C   0  0  0  0  0  0  0  0  0  0  0  0
    6.1199   -0.2416    0.2696 C   0  0  0  0  0  0  0  0  0  0  0  0
    4.9911   -0.9407   -0.4942 C   0  0  0  0  0  0  0  0  0  0  0  0
    3.7147   -0.1074   -0.3845 C   0  0  0  0  0  0  0  0  0  0  0  0
    2.5942   -0.7779   -1.2143 C   0  0  0  0  0  0  0  0  0  0  0  0
    1.8015   -1.5663   -0.1945 C   0  0  0  0  0  0  0  0  0  0  0  0
    2.1589   -0.9128    1.1815 C   0  0  0  0  0  0  0  0  0  0  0  0
    3.2702   -0.0501    0.9681 O   0  0  0  0  0  0  0  0  0  0  0  0
    0.9236   -0.0913    1.6211 C   0  0  0  0  0  0  0  0  0  0  0  0
   -0.0146   -0.1286    0.4119 C   0  0  0  0  0  0  0  0  0  0  0  0
    0.2734   -1.5143   -0.1925 C   0  0  0  0  0  0  0  0  0  0  0  0
   -0.4667   -1.7234   -1.4811 C   0  0  0  0  0  0  0  0  0  0  0  0
   -1.9465   -1.3263   -1.3653 C   0  0  0  0  0  0  0  0  0  0  0  0
   -2.3697   -0.9385    0.0357 C   0  0  0  0  0  0  0  0  0  0  0  0
   -1.4709    0.1301    0.6452 C   0  0  0  0  0  0  0  0  0  0  0  0
   -1.8358    0.3298    2.1140 C   0  0  0  0  0  0  0  0  0  0  0  0
   -3.2941    0.7980    2.1995 C   0  0  0  0  0  0  0  0  0  0  0  0
   -3.8910    0.8958    0.7986 C   0  0  0  0  0  0  0  0  0  0  0  0
   -3.8244   -0.4429    0.0699 C   0  0  0  0  0  0  0  0  0  0  0  0
   -4.3675   -0.2743   -1.3472 C   0  0  0  0  0  0  0  0  0  0  0  0
   -5.8112    0.2276   -1.3049 C   0  0  0  0  0  0  0  0  0  0  0  0
   -5.8999    1.5464   -0.5403 C   0  0  0  0  0  0  0  0  0  0  0  0
   -5.3365    1.3882    0.8719 C   0  0  0  0  0  0  0  0  0  0  0  0
   -5.1699    2.5572   -1.2389 O   0  0  0  0  0  0  0  0  0  0  0  0
   -4.6533   -1.4989    0.8100 C   0  0  0  0  0  0  0  0  0  0  0  0
   -0.1352   -2.6369    0.8013 C   0  0  0  0  0  0  0  0  0  0  0  0
    1.8849    0.2763   -2.0440 C   0  0  0  0  0  0  0  0  0  0  0  0
    3.9484    1.2110   -0.8801 O   0  0  0  0  0  0  0  0  0  0  0  0
    4.9505    1.9260   -0.1511 C   0  0  0  0  0  0  0  0  0  0  0  0
    8.2970    1.3877    0.4774 H   0  0  0  0  0  0  0  0  0  0  0  0
    7.4646    2.9320    0.1761 H   0  0  0  0  0  0  0  0  0  0  0  0
    7.0381    1.9543    1.6010 H   0  0  0  0  0  0  0  0  0  0  0  0
    6.5933    1.1488   -1.3097 H   0  0  0  0  0  0  0  0  0  0  0  0
    7.0505   -0.7928    0.1264 H   0  0  0  0  0  0  0  0  0  0  0  0
    5.8776   -0.2091    1.3316 H   0  0  0  0  0  0  0  0  0  0  0  0
    5.2722   -1.0423   -1.5432 H   0  0  0  0  0  0  0  0  0  0  0  0
    4.8213   -1.9299   -0.0682 H   0  0  0  0  0  0  0  0  0  0  0  0
    3.0919   -1.4848   -1.9162 H   0  0  0  0  0  0  0  0  0  0  0  0
    2.1272   -2.6406   -0.1880 H   0  0  0  0  0  0  0  0  0  0  0  0
    2.3984   -1.6798    1.9218 H   0  0  0  0  0  0  0  0  0  0  0  0
    0.4547   -0.5342    2.4931 H   0  0  0  0  0  0  0  0  0  0  0  0
    1.2166    0.9391    1.8287 H   0  0  0  0  0  0  0  0  0  0  0  0
    0.3257    0.6695   -0.2696 H   0  0  0  0  0  0  0  0  0  0  0  0
   -0.0225   -1.2006   -2.3245 H   0  0  0  0  0  0  0  0  0  0  0  0
   -0.4251   -2.8022   -1.7382 H   0  0  0  0  0  0  0  0  0  0  0  0
   -2.1327   -0.4877   -2.0502 H   0  0  0  0  0  0  0  0  0  0  0  0
   -2.5619   -2.1692   -1.7100 H   0  0  0  0  0  0  0  0  0  0  0  0
   -2.3822   -1.8262    0.6793 H   0  0  0  0  0  0  0  0  0  0  0  0
   -1.6982    1.0883    0.1279 H   0  0  0  0  0  0  0  0  0  0  0  0
   -1.7241   -0.6103    2.6530 H   0  0  0  0  0  0  0  0  0  0  0  0
   -1.1857    1.0854    2.5546 H   0  0  0  0  0  0  0  0  0  0  0  0
   -3.8670    0.1104    2.8158 H   0  0  0  0  0  0  0  0  0  0  0  0
   -3.3176    1.7885    2.6665 H   0  0  0  0  0  0  0  0  0  0  0  0
   -3.3200    1.6398    0.2260 H   0  0  0  0  0  0  0  0  0  0  0  0
   -3.7539    0.4470   -1.8901 H   0  0  0  0  0  0  0  0  0  0  0  0
   -4.3375   -1.2339   -1.8667 H   0  0  0  0  0  0  0  0  0  0  0  0
   -6.1544    0.3934   -2.3336 H   0  0  0  0  0  0  0  0  0  0  0  0
   -6.4622   -0.5132   -0.8474 H   0  0  0  0  0  0  0  0  0  0  0  0
   -6.9489    1.8501   -0.4733 H   0  0  0  0  0  0  0  0  0  0  0  0
   -5.9514    0.7041    1.4481 H   0  0  0  0  0  0  0  0  0  0  0  0
   -5.3492    2.3664    1.3675 H   0  0  0  0  0  0  0  0  0  0  0  0
   -5.4918    2.7265   -2.1349 H   0  0  0  0  0  0  0  0  0  0  0  0
   -5.6928   -1.1747    0.8608 H   0  0  0  0  0  0  0  0  0  0  0  0
   -4.5941   -2.4472    0.2759 H   0  0  0  0  0  0  0  0  0  0  0  0
   -4.2625   -1.6255    1.8196 H   0  0  0  0  0  0  0  0  0  0  0  0
   -1.2222   -2.6941    0.8579 H   0  0  0  0  0  0  0  0  0  0  0  0
    0.2613   -3.5912    0.4544 H   0  0  0  0  0  0  0  0  0  0  0  0
    0.2688   -2.4129    1.7886 H   0  0  0  0  0  0  0  0  0  0  0  0
    2.6087    0.7855   -2.6803 H   0  0  0  0  0  0  0  0  0  0  0  0
    1.1266   -0.2000   -2.6654 H   0  0  0  0  0  0  0  0  0  0  0  0
    1.4099    1.0006   -1.3823 H   0  0  0  0  0  0  0  0  0  0  0  0
    4.6587    1.9903    0.8974 H   0  0  0  0  0  0  0  0  0  0  0  0
    5.0534    2.9291   -0.5627 H   0  0  0  0  0  0  0  0  0  0  0  0
  1  2  1  0  0  0  0
  2  3  1  0  0  0  0
  3  4  1  0  0  0  0
  4  5  1  0  0  0  0
  5  6  1  0  0  0  0
  6  7  1  0  0  0  0
  7  8  1  0  0  0  0
  8  9  1  0  0  0  0
  5  9  1  0  0  0  0
  8 10  1  0  0  0  0
 10 11  1  0  0  0  0
 11 12  1  0  0  0  0
  7 12  1  0  0  0  0
 12 13  1  0  0  0  0
 13 14  1  0  0  0  0
 14 15  1  0  0  0  0
 15 16  1  0  0  0  0
 11 16  1  0  0  0  0
 16 17  1  0  0  0  0
 17 18  1  0  0  0  0
 18 19  1  0  0  0  0
 19 20  1  0  0  0  0
 15 20  1  0  0  0  0
 20 21  1  0  0  0  0
 21 22  1  0  0  0  0
 22 23  1  0  0  0  0
 23 24  1  0  0  0  0
 19 24  1  0  0  0  0
 23 25  1  0  0  0  0
 20 26  1  0  0  0  0
 12 27  1  0  0  0  0
  6 28  1  0  0  0  0
  5 29  1  0  0  0  0
 29 30  1  0  0  0  0
  2 30  1  0  0  0  0
  1 31  1  0  0  0  0
  1 32  1  0  0  0  0
  1 33  1  0  0  0  0
  2 34  1  0  0  0  0
  3 35  1  0  0  0  0
  3 36  1  0  0  0  0
  4 37  1  0  0  0  0
  4 38  1  0  0  0  0
  6 39  1  0  0  0  0
  7 40  1  0  0  0  0
  8 41  1  0  0  0  0
 10 42  1  0  0  0  0
 10 43  1  0  0  0  0
 11 44  1  0  0  0  0
 13 45  1  0  0  0  0
 13 46  1  0  0  0  0
 14 47  1  0  0  0  0
 14 48  1  0  0  0  0
 15 49  1  0  0  0  0
 16 50  1  0  0  0  0
 17 51  1  0  0  0  0
 17 52  1  0  0  0  0
 18 53  1  0  0  0  0
 18 54  1  0  0  0  0
 19 55  1  0  0  0  0
 21 56  1  0  0  0  0
 21 57  1  0  0  0  0
 22 58  1  0  0  0  0
 22 59  1  0  0  0  0
 23 60  1  0  0  0  0
 24 61  1  0  0  0  0
 24 62  1  0  0  0  0
 25 63  1  0  0  0  0
 26 64  1  0  0  0  0
 26 65  1  0  0  0  0
 26 66  1  0  0  0  0
 27 67  1  0  0  0  0
 27 68  1  0  0  0  0
 27 69  1  0  0  0  0
 28 70  1  0  0  0  0
 28 71  1  0  0  0  0
 28 72  1  0  0  0  0
 30 73  1  0  0  0  0
 30 74  1  0  0  0  0
M  END
$$$$
