C15H26O
APtclcactv06281817353D 0   0.00000     0.00000
 
 42 42  0  0  0  0  0  0  0  0999 V2000
    5.3283    1.1323   -0.0283 C   0  0  0  0  0  0  0  0  0  0  0  0
    3.9397    0.5478    0.0062 C   0  0  0  0  0  0  0  0  0  0  0  0
    3.0718    1.0916    0.7978 C   0  0  0  0  0  0  0  0  0  0  0  0
    1.6565    0.6158    0.9478 C   0  0  0  0  0  0  0  0  0  0  0  0
    1.2743   -0.2815   -0.2314 C   0  0  0  0  0  0  0  0  0  0  0  0
    2.3738   -1.3351   -0.4155 C   0  0  0  0  0  0  0  0  0  0  0  0
    3.6474   -0.6245   -0.8839 C   0  0  0  0  0  0  0  0  0  0  0  0
   -0.0583   -0.9743    0.0602 C   0  0  0  0  0  0  0  0  0  0  0  0
    0.0756   -1.8261    1.3241 C   0  0  0  0  0  0  0  0  0  0  0  0
   -1.1466    0.0807    0.2692 C   0  0  0  0  0  0  0  0  0  0  0  0
   -2.5013   -0.6103    0.4370 C   0  0  0  0  0  0  0  0  0  0  0  0
   -3.5731    0.4288    0.6428 C   0  0  0  0  0  0  0  0  0  0  0  0
   -4.6426    0.4253   -0.1137 C   0  0  0  0  0  0  0  0  0  0  0  0
   -4.8845   -0.7128   -1.0714 C   0  0  0  0  0  0  0  0  0  0  0  0
   -5.6311    1.5595   -0.0262 C   0  0  0  0  0  0  0  0  0  0  0  0
    1.1609    0.5069   -1.4179 O   0  0  0  0  0  0  0  0  0  0  0  0
    5.3857    1.9735    0.6625 H   0  0  0  0  0  0  0  0  0  0  0  0
    6.0505    0.3707    0.2659 H   0  0  0  0  0  0  0  0  0  0  0  0
    5.5531    1.4754   -1.0381 H   0  0  0  0  0  0  0  0  0  0  0  0
    3.3859    1.9402    1.3873 H   0  0  0  0  0  0  0  0  0  0  0  0
    1.5611    0.0526    1.8761 H   0  0  0  0  0  0  0  0  0  0  0  0
    0.9876    1.4759    0.9790 H   0  0  0  0  0  0  0  0  0  0  0  0
    2.5594   -1.8405    0.5322 H   0  0  0  0  0  0  0  0  0  0  0  0
    2.0633   -2.0613   -1.1668 H   0  0  0  0  0  0  0  0  0  0  0  0
    3.5135   -0.2819   -1.9100 H   0  0  0  0  0  0  0  0  0  0  0  0
    4.4851   -1.3207   -0.8440 H   0  0  0  0  0  0  0  0  0  0  0  0
   -0.3278   -1.6125   -0.7812 H   0  0  0  0  0  0  0  0  0  0  0  0
   -0.8738   -2.3197    1.5319 H   0  0  0  0  0  0  0  0  0  0  0  0
    0.8509   -2.5777    1.1752 H   0  0  0  0  0  0  0  0  0  0  0  0
    0.3451   -1.1879    2.1656 H   0  0  0  0  0  0  0  0  0  0  0  0
   -0.9220    0.6621    1.1634 H   0  0  0  0  0  0  0  0  0  0  0  0
   -1.1812    0.7432   -0.5957 H   0  0  0  0  0  0  0  0  0  0  0  0
   -2.7258   -1.1917   -0.4573 H   0  0  0  0  0  0  0  0  0  0  0  0
   -2.4666   -1.2728    1.3019 H   0  0  0  0  0  0  0  0  0  0  0  0
   -3.4596    1.1763    1.4140 H   0  0  0  0  0  0  0  0  0  0  0  0
   -4.1237   -1.4794   -0.9242 H   0  0  0  0  0  0  0  0  0  0  0  0
   -5.8705   -1.1394   -0.8872 H   0  0  0  0  0  0  0  0  0  0  0  0
   -4.8342   -0.3428   -2.0955 H   0  0  0  0  0  0  0  0  0  0  0  0
   -5.3539    2.3386   -0.7363 H   0  0  0  0  0  0  0  0  0  0  0  0
   -6.6292    1.1906   -0.2628 H   0  0  0  0  0  0  0  0  0  0  0  0
   -5.6253    1.9695    0.9837 H   0  0  0  0  0  0  0  0  0  0  0  0
    1.9751    0.9670   -1.6636 H   0  0  0  0  0  0  0  0  0  0  0  0
  1  2  1  0  0  0  0
  2  3  2  0  0  0  0
  3  4  1  0  0  0  0
  4  5  1  0  0  0  0
  5  6  1  0  0  0  0
  6  7  1  0  0  0  0
  2  7  1  0  0  0  0
  5  8  1  0  0  0  0
  8  9  1  0  0  0  0
  8 10  1  0  0  0  0
 10 11  1  0  0  0  0
 11 12  1  0  0  0  0
 12 13  2  0  0  0  0
 13 14  1  0  0  0  0
 13 15  1  0  0  0  0
  5 16  1  0  0  0  0
  1 17  1  0  0  0  0
  1 18  1  0  0  0  0
  1 19  1  0  0  0  0
  3 20  1  0  0  0  0
  4 21  1  0  0  0  0
  4 22  1  0  0  0  0
  6 23  1  0  0  0  0
  6 24  1  0  0  0  0
  7 25  1  0  0  0  0
  7 26  1  0  0  0  0
  8 27  1  0  0  0  0
  9 28  1  0  0  0  0
  9 29  1  0  0  0  0
  9 30  1  0  0  0  0
 10 31  1  0  0  0  0
 10 32  1  0  0  0  0
 11 33  1  0  0  0  0
 11 34  1  0  0  0  0
 12 35  1  0  0  0  0
 14 36  1  0  0  0  0
 14 37  1  0  0  0  0
 14 38  1  0  0  0  0
 15 39  1  0  0  0  0
 15 40  1  0  0  0  0
 15 41  1  0  0  0  0
 16 42  1  0  0  0  0
M  END
$$$$
