C20H20O8
APtclcactv06281817353D 0   0.00000     0.00000
 
 48 50  0  0  0  0  0  0  0  0999 V2000
    6.6822    2.3223   -0.8157 C   0  0  0  0  0  0  0  0  0  0  0  0
    5.2741    2.5648   -0.8381 O   0  0  0  0  0  0  0  0  0  0  0  0
    4.4636    1.5172   -0.5403 C   0  0  0  0  0  0  0  0  0  0  0  0
    5.0212    0.2809   -0.2330 C   0  0  0  0  0  0  0  0  0  0  0  0
    4.2052   -0.7928    0.0718 C   0  0  0  0  0  0  0  0  0  0  0  0
    2.8144   -0.6250    0.0689 C   0  0  0  0  0  0  0  0  0  0  0  0
    2.2533    0.6263   -0.2416 C   0  0  0  0  0  0  0  0  0  0  0  0
    3.0884    1.6920   -0.5399 C   0  0  0  0  0  0  0  0  0  0  0  0
    0.9125    0.7794   -0.2425 O   0  0  0  0  0  0  0  0  0  0  0  0
    0.0737   -0.2305    0.0458 C   0  0  0  0  0  0  0  0  0  0  0  0
    0.5156   -1.4806    0.3595 C   0  0  0  0  0  0  0  0  0  0  0  0
    1.9101   -1.7416    0.3870 C   0  0  0  0  0  0  0  0  0  0  0  0
    2.3428   -2.8491    0.6633 O   0  0  0  0  0  0  0  0  0  0  0  0
   -0.3733   -2.4709    0.6446 O   0  0  0  0  0  0  0  0  0  0  0  0
   -0.3722   -2.9789    1.9803 C   0  0  0  0  0  0  0  0  0  0  0  0
   -1.3785    0.0240    0.0221 C   0  0  0  0  0  0  0  0  0  0  0  0
   -1.9030    1.1477    0.6667 C   0  0  0  0  0  0  0  0  0  0  0  0
   -3.2652    1.3836    0.6428 C   0  0  0  0  0  0  0  0  0  0  0  0
   -4.1140    0.5031   -0.0220 C   0  0  0  0  0  0  0  0  0  0  0  0
   -3.5946   -0.6172   -0.6645 C   0  0  0  0  0  0  0  0  0  0  0  0
   -2.2325   -0.8549   -0.6498 C   0  0  0  0  0  0  0  0  0  0  0  0
   -4.4270   -1.4757   -1.3123 O   0  0  0  0  0  0  0  0  0  0  0  0
   -3.8180   -2.5361   -2.0516 C   0  0  0  0  0  0  0  0  0  0  0  0
   -5.4532    0.7375   -0.0434 O   0  0  0  0  0  0  0  0  0  0  0  0
   -5.9565    1.5264   -1.1234 C   0  0  0  0  0  0  0  0  0  0  0  0
   -3.7764    2.4768    1.2698 O   0  0  0  0  0  0  0  0  0  0  0  0
   -2.8482    3.3376    1.9328 C   0  0  0  0  0  0  0  0  0  0  0  0
    4.7476   -2.0003    0.3710 O   0  0  0  0  0  0  0  0  0  0  0  0
    7.2129    3.2395   -1.0712 H   0  0  0  0  0  0  0  0  0  0  0  0
    6.9790    1.9965    0.1812 H   0  0  0  0  0  0  0  0  0  0  0  0
    6.9288    1.5461   -1.5401 H   0  0  0  0  0  0  0  0  0  0  0  0
    6.0943    0.1591   -0.2328 H   0  0  0  0  0  0  0  0  0  0  0  0
    2.6670    2.6571   -0.7794 H   0  0  0  0  0  0  0  0  0  0  0  0
   -1.0636   -3.8187    2.0502 H   0  0  0  0  0  0  0  0  0  0  0  0
    0.6322   -3.3125    2.2413 H   0  0  0  0  0  0  0  0  0  0  0  0
   -0.6842   -2.1931    2.6682 H   0  0  0  0  0  0  0  0  0  0  0  0
   -1.2451    1.8308    1.1833 H   0  0  0  0  0  0  0  0  0  0  0  0
   -1.8301   -1.7240   -1.1488 H   0  0  0  0  0  0  0  0  0  0  0  0
   -4.5863   -3.0931   -2.5879 H   0  0  0  0  0  0  0  0  0  0  0  0
   -3.1064   -2.1199   -2.7647 H   0  0  0  0  0  0  0  0  0  0  0  0
   -3.2967   -3.2043   -1.3660 H   0  0  0  0  0  0  0  0  0  0  0  0
   -7.0360    1.6367   -1.0205 H   0  0  0  0  0  0  0  0  0  0  0  0
   -5.4873    2.5100   -1.1044 H   0  0  0  0  0  0  0  0  0  0  0  0
   -5.7302    1.0341   -2.0692 H   0  0  0  0  0  0  0  0  0  0  0  0
   -2.3205    2.7774    2.7046 H   0  0  0  0  0  0  0  0  0  0  0  0
   -2.1303    3.7240    1.2093 H   0  0  0  0  0  0  0  0  0  0  0  0
   -3.3858    4.1682    2.3902 H   0  0  0  0  0  0  0  0  0  0  0  0
    4.9302   -2.1271    1.3121 H   0  0  0  0  0  0  0  0  0  0  0  0
  1  2  1  0  0  0  0
  2  3  1  0  0  0  0
  3  4  2  0  0  0  0
  4  5  1  0  0  0  0
  5  6  2  0  0  0  0
  6  7  1  0  0  0  0
  7  8  2  0  0  0  0
  3  8  1  0  0  0  0
  7  9  1  0  0  0  0
  9 10  1  0  0  0  0
 10 11  2  0  0  0  0
 11 12  1  0  0  0  0
  6 12  1  0  0  0  0
 12 13  2  0  0  0  0
 11 14  1  0  0  0  0
 14 15  1  0  0  0  0
 10 16  1  0  0  0  0
 16 17  2  0  0  0  0
 17 18  1  0  0  0  0
 18 19  2  0  0  0  0
 19 20  1  0  0  0  0
 20 21  2  0  0  0  0
 16 21  1  0  0  0  0
 20 22  1  0  0  0  0
 22 23  1  0  0  0  0
 19 24  1  0  0  0  0
 24 25  1  0  0  0  0
 18 26  1  0  0  0  0
 26 27  1  0  0  0  0
  5 28  1  0  0  0  0
  1 29  1  0  0  0  0
  1 30  1  0  0  0  0
  1 31  1  0  0  0  0
  4 32  1  0  0  0  0
  8 33  1  0  0  0  0
 15 34  1  0  0  0  0
 15 35  1  0  0  0  0
 15 36  1  0  0  0  0
 17 37  1  0  0  0  0
 21 38  1  0  0  0  0
 23 39  1  0  0  0  0
 23 40  1  0  0  0  0
 23 41  1  0  0  0  0
 25 42  1  0  0  0  0
 25 43  1  0  0  0  0
 25 44  1  0  0  0  0
 27 45  1  0  0  0  0
 27 46  1  0  0  0  0
 27 47  1  0  0  0  0
 28 48  1  0  0  0  0
M  END
$$$$
