C10H12O4
APtclcactv06281817353D 0   0.00000     0.00000
 
 26 26  0  0  0  0  0  0  0  0999 V2000
   -2.4664   -1.6281   -0.9371 C   0  0  0  0  0  0  0  0  0  0  0  0
   -2.4711   -0.6054    0.2009 C   0  0  0  0  0  0  0  0  0  0  0  0
   -1.3178    0.3807    0.0052 C   0  0  0  0  0  0  0  0  0  0  0  0
    0.0144   -0.3608    0.1328 C   0  0  0  0  0  0  0  0  0  0  0  0
    1.1504    0.6105   -0.0600 C   0  0  0  0  0  0  0  0  0  0  0  0
    0.9173    1.7811   -0.2781 O   0  0  0  0  0  0  0  0  0  0  0  0
    2.5370    0.1411    0.0160 C   0  0  0  0  0  0  0  0  0  0  0  0
    2.9670   -1.1364    0.2520 C   0  0  0  0  0  0  0  0  0  0  0  0
    4.3025   -1.1389    0.2403 O   0  0  0  0  0  0  0  0  0  0  0  0
    4.7834    0.0920    0.0048 C   0  0  0  0  0  0  0  0  0  0  0  0
    3.7596    0.9436   -0.1519 C   0  0  0  0  0  0  0  0  0  0  0  0
   -3.7787    0.1438    0.1976 C   0  0  0  0  0  0  0  0  0  0  0  0
   -3.7872    1.3434    0.0535 O   0  0  0  0  0  0  0  0  0  0  0  0
   -4.9338   -0.5216    0.3547 O   0  0  0  0  0  0  0  0  0  0  0  0
   -1.5207   -2.1700   -0.9347 H   0  0  0  0  0  0  0  0  0  0  0  0
   -3.2880   -2.3306   -0.7977 H   0  0  0  0  0  0  0  0  0  0  0  0
   -2.5872   -1.1122   -1.8897 H   0  0  0  0  0  0  0  0  0  0  0  0
   -2.3504   -1.1213    1.1535 H   0  0  0  0  0  0  0  0  0  0  0  0
   -1.3893    0.8316   -0.9846 H   0  0  0  0  0  0  0  0  0  0  0  0
   -1.3738    1.1606    0.7646 H   0  0  0  0  0  0  0  0  0  0  0  0
    0.0859   -0.8117    1.1226 H   0  0  0  0  0  0  0  0  0  0  0  0
    0.0704   -1.1407   -0.6266 H   0  0  0  0  0  0  0  0  0  0  0  0
    2.3345   -1.9956    0.4197 H   0  0  0  0  0  0  0  0  0  0  0  0
    5.8295    0.3542   -0.0537 H   0  0  0  0  0  0  0  0  0  0  0  0
    3.8196    2.0030   -0.3529 H   0  0  0  0  0  0  0  0  0  0  0  0
   -5.7468    0.0020    0.3457 H   0  0  0  0  0  0  0  0  0  0  0  0
  1  2  1  0  0  0  0
  2  3  1  0  0  0  0
  3  4  1  0  0  0  0
  4  5  1  0  0  0  0
  5  6  2  0  0  0  0
  5  7  1  0  0  0  0
  7  8  2  0  0  0  0
  8  9  1  0  0  0  0
  9 10  1  0  0  0  0
 10 11  2  0  0  0  0
  7 11  1  0  0  0  0
  2 12  1  0  0  0  0
 12 13  2  0  0  0  0
 12 14  1  0  0  0  0
  1 15  1  0  0  0  0
  1 16  1  0  0  0  0
  1 17  1  0  0  0  0
  2 18  1  0  0  0  0
  3 19  1  0  0  0  0
  3 20  1  0  0  0  0
  4 21  1  0  0  0  0
  4 22  1  0  0  0  0
  8 23  1  0  0  0  0
 10 24  1  0  0  0  0
 11 25  1  0  0  0  0
 14 26  1  0  0  0  0
M  END
$$$$
