C6H11NO3S
APtclcactv06281817353D 0   0.00000     0.00000
 
 22 22  0  0  0  0  0  0  0  0999 V2000
    1.2425   -1.3589   -1.4608 C   0  0  0  0  0  0  0  0  0  0  0  0
    1.0047   -1.6398    0.0243 C   0  0  0  0  0  0  0  0  0  0  0  0
    1.9518   -0.7760    0.8640 C   0  0  0  0  0  0  0  0  0  0  0  0
    1.6514    0.9716    0.4588 S   0  0  0  0  0  0  0  0  0  0  0  0
    1.9976    1.2094   -0.8987 O   0  0  0  0  0  0  0  0  0  0  0  0
   -0.1525    1.0980    0.6555 C   0  0  0  0  0  0  0  0  0  0  0  0
   -0.8100   -0.0238   -0.1556 C   0  0  0  0  0  0  0  0  0  0  0  0
   -0.3857   -1.3266    0.3622 N   0  0  0  0  0  0  0  0  0  0  0  0
   -2.3086    0.0934   -0.0489 C   0  0  0  0  0  0  0  0  0  0  0  0
   -2.9168   -0.6138    0.7191 O   0  0  0  0  0  0  0  0  0  0  0  0
   -2.9679    0.9834   -0.8072 O   0  0  0  0  0  0  0  0  0  0  0  0
    2.2889   -1.5448   -1.7027 H   0  0  0  0  0  0  0  0  0  0  0  0
    0.6092   -2.0128   -2.0603 H   0  0  0  0  0  0  0  0  0  0  0  0
    0.9989   -0.3188   -1.6774 H   0  0  0  0  0  0  0  0  0  0  0  0
    1.1975   -2.6929    0.2290 H   0  0  0  0  0  0  0  0  0  0  0  0
    1.7589   -0.9447    1.9234 H   0  0  0  0  0  0  0  0  0  0  0  0
    2.9852   -1.0334    0.6315 H   0  0  0  0  0  0  0  0  0  0  0  0
   -0.4145    0.9908    1.7081 H   0  0  0  0  0  0  0  0  0  0  0  0
   -0.4943    2.0651    0.2867 H   0  0  0  0  0  0  0  0  0  0  0  0
   -0.5145    0.0641   -1.2010 H   0  0  0  0  0  0  0  0  0  0  0  0
   -1.0069   -2.0587    0.0521 H   0  0  0  0  0  0  0  0  0  0  0  0
   -3.9285    1.0220   -0.7038 H   0  0  0  0  0  0  0  0  0  0  0  0
  1  2  1  0  0  0  0
  2  3  1  0  0  0  0
  3  4  1  0  0  0  0
  4  5  2  0  0  0  0
  4  6  1  0  0  0  0
  6  7  1  0  0  0  0
  7  8  1  0  0  0  0
  2  8  1  0  0  0  0
  7  9  1  0  0  0  0
  9 10  2  0  0  0  0
  9 11  1  0  0  0  0
  1 12  1  0  0  0  0
  1 13  1  0  0  0  0
  1 14  1  0  0  0  0
  2 15  1  0  0  0  0
  3 16  1  0  0  0  0
  3 17  1  0  0  0  0
  6 18  1  0  0  0  0
  6 19  1  0  0  0  0
  7 20  1  0  0  0  0
  8 21  1  0  0  0  0
 11 22  1  0  0  0  0
M  END
$$$$
