C15H14O4
APtclcactv06281817363D 0   0.00000     0.00000
 
 33 35  0  0  0  0  0  0  0  0999 V2000
    3.3264    3.1037    0.0923 C   0  0  0  0  0  0  0  0  0  0  0  0
    2.6785    1.7440    0.0442 C   0  0  0  0  0  0  0  0  0  0  0  0
    3.4601    0.6546    0.1403 C   0  0  0  0  0  0  0  0  0  0  0  0
    2.8708   -0.6383    0.0977 C   0  0  0  0  0  0  0  0  0  0  0  0
    3.5492   -1.6483    0.1822 O   0  0  0  0  0  0  0  0  0  0  0  0
    1.4084   -0.7080   -0.0519 C   0  0  0  0  0  0  0  0  0  0  0  0
    0.7369   -1.9373   -0.1041 C   0  0  0  0  0  0  0  0  0  0  0  0
   -0.6401   -1.9676   -0.2455 C   0  0  0  0  0  0  0  0  0  0  0  0
   -1.3575   -0.7853   -0.3358 C   0  0  0  0  0  0  0  0  0  0  0  0
   -0.6958    0.4504   -0.2851 C   0  0  0  0  0  0  0  0  0  0  0  0
    0.6910    0.4972   -0.1428 C   0  0  0  0  0  0  0  0  0  0  0  0
    1.3492    1.6720   -0.0868 O   0  0  0  0  0  0  0  0  0  0  0  0
   -1.5009    1.6855   -0.3855 C   0  0  0  0  0  0  0  0  0  0  0  0
   -2.8146    1.5957   -0.1834 C   0  0  0  0  0  0  0  0  0  0  0  0
   -3.4343    0.2639    0.1490 C   0  0  0  0  0  0  0  0  0  0  0  0
   -2.7077   -0.7959   -0.4739 O   0  0  0  0  0  0  0  0  0  0  0  0
   -3.4178    0.0639    1.6658 C   0  0  0  0  0  0  0  0  0  0  0  0
   -4.8817    0.2429   -0.3464 C   0  0  0  0  0  0  0  0  0  0  0  0
    1.4359   -3.0967   -0.0166 O   0  0  0  0  0  0  0  0  0  0  0  0
    3.5884    3.4173   -0.9182 H   0  0  0  0  0  0  0  0  0  0  0  0
    2.6315    3.8222    0.5270 H   0  0  0  0  0  0  0  0  0  0  0  0
    4.2281    3.0552    0.7029 H   0  0  0  0  0  0  0  0  0  0  0  0
    4.5294    0.7609    0.2488 H   0  0  0  0  0  0  0  0  0  0  0  0
   -1.1566   -2.9153   -0.2858 H   0  0  0  0  0  0  0  0  0  0  0  0
   -1.0377    2.6335   -0.6157 H   0  0  0  0  0  0  0  0  0  0  0  0
   -3.4345    2.4770   -0.2575 H   0  0  0  0  0  0  0  0  0  0  0  0
   -3.9873    0.8611    2.1436 H   0  0  0  0  0  0  0  0  0  0  0  0
   -3.8657   -0.8993    1.9102 H   0  0  0  0  0  0  0  0  0  0  0  0
   -2.3887    0.0875    2.0242 H   0  0  0  0  0  0  0  0  0  0  0  0
   -4.8986    0.3943   -1.4257 H   0  0  0  0  0  0  0  0  0  0  0  0
   -5.3336   -0.7199   -0.1075 H   0  0  0  0  0  0  0  0  0  0  0  0
   -5.4442    1.0392    0.1410 H   0  0  0  0  0  0  0  0  0  0  0  0
    1.5484   -3.4208    0.8875 H   0  0  0  0  0  0  0  0  0  0  0  0
  1  2  1  0  0  0  0
  2  3  2  0  0  0  0
  3  4  1  0  0  0  0
  4  5  2  0  0  0  0
  4  6  1  0  0  0  0
  6  7  2  0  0  0  0
  7  8  1  0  0  0  0
  8  9  2  0  0  0  0
  9 10  1  0  0  0  0
 10 11  2  0  0  0  0
  6 11  1  0  0  0  0
 11 12  1  0  0  0  0
  2 12  1  0  0  0  0
 10 13  1  0  0  0  0
 13 14  2  0  0  0  0
 14 15  1  0  0  0  0
 15 16  1  0  0  0  0
  9 16  1  0  0  0  0
 15 17  1  0  0  0  0
 15 18  1  0  0  0  0
  7 19  1  0  0  0  0
  1 20  1  0  0  0  0
  1 21  1  0  0  0  0
  1 22  1  0  0  0  0
  3 23  1  0  0  0  0
  8 24  1  0  0  0  0
 13 25  1  0  0  0  0
 14 26  1  0  0  0  0
 17 27  1  0  0  0  0
 17 28  1  0  0  0  0
 17 29  1  0  0  0  0
 18 30  1  0  0  0  0
 18 31  1  0  0  0  0
 18 32  1  0  0  0  0
 19 33  1  0  0  0  0
M  END
$$$$
