C16H12O6
APtclcactv06281817363D 0   0.00000     0.00000
 
 34 36  0  0  0  0  0  0  0  0999 V2000
    5.7300    2.0635   -0.0520 C   0  0  0  0  0  0  0  0  0  0  0  0
    4.3277    2.3384   -0.0545 O   0  0  0  0  0  0  0  0  0  0  0  0
    3.4902    1.2701   -0.0361 C   0  0  0  0  0  0  0  0  0  0  0  0
    4.0161   -0.0167   -0.0162 C   0  0  0  0  0  0  0  0  0  0  0  0
    3.1719   -1.1120    0.0031 C   0  0  0  0  0  0  0  0  0  0  0  0
    1.7858   -0.9144    0.0022 C   0  0  0  0  0  0  0  0  0  0  0  0
    1.2569    0.3876   -0.0179 C   0  0  0  0  0  0  0  0  0  0  0  0
    2.1186    1.4729   -0.0317 C   0  0  0  0  0  0  0  0  0  0  0  0
   -0.0811    0.5679   -0.0190 O   0  0  0  0  0  0  0  0  0  0  0  0
   -0.9430   -0.4616   -0.0014 C   0  0  0  0  0  0  0  0  0  0  0  0
   -0.5317   -1.7597    0.0188 C   0  0  0  0  0  0  0  0  0  0  0  0
    0.8511   -2.0527    0.0218 C   0  0  0  0  0  0  0  0  0  0  0  0
    1.2550   -3.2044    0.0394 O   0  0  0  0  0  0  0  0  0  0  0  0
   -2.3878   -0.1761   -0.0037 C   0  0  0  0  0  0  0  0  0  0  0  0
   -2.8448    1.1466    0.0985 C   0  0  0  0  0  0  0  0  0  0  0  0
   -4.2043    1.4061    0.0951 C   0  0  0  0  0  0  0  0  0  0  0  0
   -5.1104    0.3610   -0.0085 C   0  0  0  0  0  0  0  0  0  0  0  0
   -4.6592   -0.9513   -0.1099 C   0  0  0  0  0  0  0  0  0  0  0  0
   -3.3099   -1.2218   -0.1135 C   0  0  0  0  0  0  0  0  0  0  0  0
   -6.4431    0.6195   -0.0105 O   0  0  0  0  0  0  0  0  0  0  0  0
   -1.9568    2.1678    0.2006 O   0  0  0  0  0  0  0  0  0  0  0  0
    3.6832   -2.3690    0.0222 O   0  0  0  0  0  0  0  0  0  0  0  0
    6.2843    3.0019   -0.0679 H   0  0  0  0  0  0  0  0  0  0  0  0
    5.9890    1.5038    0.8467 H   0  0  0  0  0  0  0  0  0  0  0  0
    5.9865    1.4751   -0.9330 H   0  0  0  0  0  0  0  0  0  0  0  0
    5.0864   -0.1614   -0.0160 H   0  0  0  0  0  0  0  0  0  0  0  0
    1.7215    2.4772   -0.0469 H   0  0  0  0  0  0  0  0  0  0  0  0
   -1.2570   -2.5597    0.0326 H   0  0  0  0  0  0  0  0  0  0  0  0
   -4.5599    2.4229    0.1735 H   0  0  0  0  0  0  0  0  0  0  0  0
   -5.3704   -1.7601   -0.1902 H   0  0  0  0  0  0  0  0  0  0  0  0
   -2.9635   -2.2417   -0.1923 H   0  0  0  0  0  0  0  0  0  0  0  0
   -6.8136    0.7681   -0.8913 H   0  0  0  0  0  0  0  0  0  0  0  0
   -1.6830    2.5375   -0.6499 H   0  0  0  0  0  0  0  0  0  0  0  0
    3.8332   -2.7191    0.9110 H   0  0  0  0  0  0  0  0  0  0  0  0
  1  2  1  0  0  0  0
  2  3  1  0  0  0  0
  3  4  2  0  0  0  0
  4  5  1  0  0  0  0
  5  6  2  0  0  0  0
  6  7  1  0  0  0  0
  7  8  2  0  0  0  0
  3  8  1  0  0  0  0
  7  9  1  0  0  0  0
  9 10  1  0  0  0  0
 10 11  2  0  0  0  0
 11 12  1  0  0  0  0
  6 12  1  0  0  0  0
 12 13  2  0  0  0  0
 10 14  1  0  0  0  0
 14 15  2  0  0  0  0
 15 16  1  0  0  0  0
 16 17  2  0  0  0  0
 17 18  1  0  0  0  0
 18 19  2  0  0  0  0
 14 19  1  0  0  0  0
 17 20  1  0  0  0  0
 15 21  1  0  0  0  0
  5 22  1  0  0  0  0
  1 23  1  0  0  0  0
  1 24  1  0  0  0  0
  1 25  1  0  0  0  0
  4 26  1  0  0  0  0
  8 27  1  0  0  0  0
 11 28  1  0  0  0  0
 16 29  1  0  0  0  0
 18 30  1  0  0  0  0
 19 31  1  0  0  0  0
 20 32  1  0  0  0  0
 21 33  1  0  0  0  0
 22 34  1  0  0  0  0
M  END
$$$$
