C17H21NO4
APtclcactv06281817353D 0   0.00000     0.00000
 
 43 44  0  0  0  0  0  0  0  0999 V2000
   -5.3677   -0.8902    0.5979 C   0  0  0  0  0  0  0  0  0  0  0  0
   -4.7758   -0.4163   -0.7044 C   0  0  0  0  0  0  0  0  0  0  0  0
   -3.7157    0.3534   -0.7004 C   0  0  0  0  0  0  0  0  0  0  0  0
   -3.0161    0.6655    0.5973 C   0  0  0  0  0  0  0  0  0  0  0  0
   -1.5577    0.3042    0.4812 C   0  0  0  0  0  0  0  0  0  0  0  0
   -0.6459    1.2582    0.1247 C   0  0  0  0  0  0  0  0  0  0  0  0
    0.7661    0.8705    0.0214 C   0  0  0  0  0  0  0  0  0  0  0  0
    1.1255   -0.4621    0.2922 C   0  0  0  0  0  0  0  0  0  0  0  0
    2.4616   -0.8430    0.1979 C   0  0  0  0  0  0  0  0  0  0  0  0
    3.4186    0.0952   -0.1612 C   0  0  0  0  0  0  0  0  0  0  0  0
    3.0524    1.4120   -0.4272 C   0  0  0  0  0  0  0  0  0  0  0  0
    1.7464    1.8005   -0.3384 C   0  0  0  0  0  0  0  0  0  0  0  0
    4.7232   -0.2736   -0.2535 O   0  0  0  0  0  0  0  0  0  0  0  0
    5.6589    0.7395   -0.6277 C   0  0  0  0  0  0  0  0  0  0  0  0
    2.8266   -2.1281    0.4569 O   0  0  0  0  0  0  0  0  0  0  0  0
    2.8298   -3.0365   -0.6462 C   0  0  0  0  0  0  0  0  0  0  0  0
    0.1500   -1.3739    0.6479 N   0  0  0  0  0  0  0  0  0  0  0  0
   -1.1397   -1.0081    0.7450 C   0  0  0  0  0  0  0  0  0  0  0  0
   -1.9708   -1.8428    1.0623 O   0  0  0  0  0  0  0  0  0  0  0  0
   -1.0356    2.5292   -0.1276 O   0  0  0  0  0  0  0  0  0  0  0  0
   -0.5979    3.5357    0.7876 C   0  0  0  0  0  0  0  0  0  0  0  0
   -5.4033   -0.8277   -2.0113 C   0  0  0  0  0  0  0  0  0  0  0  0
   -5.5867   -0.0308    1.2316 H   0  0  0  0  0  0  0  0  0  0  0  0
   -6.2881   -1.4397    0.4000 H   0  0  0  0  0  0  0  0  0  0  0  0
   -4.6566   -1.5431    1.1040 H   0  0  0  0  0  0  0  0  0  0  0  0
   -3.3432    0.7643   -1.6272 H   0  0  0  0  0  0  0  0  0  0  0  0
   -3.1107    1.7295    0.8143 H   0  0  0  0  0  0  0  0  0  0  0  0
   -3.4703    0.0886    1.4029 H   0  0  0  0  0  0  0  0  0  0  0  0
    3.8077    2.1322   -0.7053 H   0  0  0  0  0  0  0  0  0  0  0  0
    1.4710    2.8238   -0.5465 H   0  0  0  0  0  0  0  0  0  0  0  0
    5.3955    1.1326   -1.6096 H   0  0  0  0  0  0  0  0  0  0  0  0
    5.6338    1.5459    0.1052 H   0  0  0  0  0  0  0  0  0  0  0  0
    6.6613    0.3127   -0.6641 H   0  0  0  0  0  0  0  0  0  0  0  0
    3.1388   -4.0238   -0.3029 H   0  0  0  0  0  0  0  0  0  0  0  0
    1.8274   -3.0966   -1.0703 H   0  0  0  0  0  0  0  0  0  0  0  0
    3.5255   -2.6821   -1.4068 H   0  0  0  0  0  0  0  0  0  0  0  0
    0.4006   -2.2922    0.8341 H   0  0  0  0  0  0  0  0  0  0  0  0
   -0.8960    3.2612    1.7994 H   0  0  0  0  0  0  0  0  0  0  0  0
    0.4876    3.6230    0.7397 H   0  0  0  0  0  0  0  0  0  0  0  0
   -1.0513    4.4906    0.5216 H   0  0  0  0  0  0  0  0  0  0  0  0
   -6.1582   -0.0957   -2.2983 H   0  0  0  0  0  0  0  0  0  0  0  0
   -4.6352   -0.8790   -2.7830 H   0  0  0  0  0  0  0  0  0  0  0  0
   -5.8704   -1.8060   -1.8980 H   0  0  0  0  0  0  0  0  0  0  0  0
  1  2  1  0  0  0  0
  2  3  2  0  0  0  0
  3  4  1  0  0  0  0
  4  5  1  0  0  0  0
  5  6  2  0  0  0  0
  6  7  1  0  0  0  0
  7  8  2  0  0  0  0
  8  9  1  0  0  0  0
  9 10  2  0  0  0  0
 10 11  1  0  0  0  0
 11 12  2  0  0  0  0
  7 12  1  0  0  0  0
 10 13  1  0  0  0  0
 13 14  1  0  0  0  0
  9 15  1  0  0  0  0
 15 16  1  0  0  0  0
  8 17  1  0  0  0  0
 17 18  1  0  0  0  0
  5 18  1  0  0  0  0
 18 19  2  0  0  0  0
  6 20  1  0  0  0  0
 20 21  1  0  0  0  0
  2 22  1  0  0  0  0
  1 23  1  0  0  0  0
  1 24  1  0  0  0  0
  1 25  1  0  0  0  0
  3 26  1  0  0  0  0
  4 27  1  0  0  0  0
  4 28  1  0  0  0  0
 11 29  1  0  0  0  0
 12 30  1  0  0  0  0
 14 31  1  0  0  0  0
 14 32  1  0  0  0  0
 14 33  1  0  0  0  0
 16 34  1  0  0  0  0
 16 35  1  0  0  0  0
 16 36  1  0  0  0  0
 17 37  1  0  0  0  0
 21 38  1  0  0  0  0
 21 39  1  0  0  0  0
 21 40  1  0  0  0  0
 22 41  1  0  0  0  0
 22 42  1  0  0  0  0
 22 43  1  0  0  0  0
M  END
$$$$
