C10H16
APtclcactv06281817353D 0   0.00000     0.00000
 
 26 26  0  0  0  0  0  0  0  0999 V2000
    2.8464   -1.5588   -0.0439 C   0  0  0  0  0  0  0  0  0  0  0  0
    1.7635   -0.5110   -0.0275 C   0  0  0  0  0  0  0  0  0  0  0  0
    2.1222    0.7327   -0.0330 C   0  0  0  0  0  0  0  0  0  0  0  0
    1.1609    1.8851   -0.0291 C   0  0  0  0  0  0  0  0  0  0  0  0
   -0.2280    1.4114    0.4048 C   0  0  0  0  0  0  0  0  0  0  0  0
   -0.5951    0.1686   -0.4160 C   0  0  0  0  0  0  0  0  0  0  0  0
    0.3362   -0.9743   -0.0121 C   0  0  0  0  0  0  0  0  0  0  0  0
   -2.0247   -0.2183   -0.1375 C   0  0  0  0  0  0  0  0  0  0  0  0
   -2.8976   -0.2468   -1.1139 C   0  0  0  0  0  0  0  0  0  0  0  0
   -2.4501   -0.5725    1.2641 C   0  0  0  0  0  0  0  0  0  0  0  0
    3.8220   -1.0729   -0.0587 H   0  0  0  0  0  0  0  0  0  0  0  0
    2.7638   -2.1807    0.8474 H   0  0  0  0  0  0  0  0  0  0  0  0
    2.7368   -2.1807   -0.9323 H   0  0  0  0  0  0  0  0  0  0  0  0
    3.1790    0.9549   -0.0404 H   0  0  0  0  0  0  0  0  0  0  0  0
    1.5149    2.6486    0.6636 H   0  0  0  0  0  0  0  0  0  0  0  0
    1.1012    2.3092   -1.0314 H   0  0  0  0  0  0  0  0  0  0  0  0
   -0.2145    1.1593    1.4652 H   0  0  0  0  0  0  0  0  0  0  0  0
   -0.9578    2.2001    0.2218 H   0  0  0  0  0  0  0  0  0  0  0  0
   -0.4699    0.3807   -1.4778 H   0  0  0  0  0  0  0  0  0  0  0  0
    0.2136   -1.8037   -0.7087 H   0  0  0  0  0  0  0  0  0  0  0  0
    0.0820   -1.3093    0.9936 H   0  0  0  0  0  0  0  0  0  0  0  0
   -2.5928    0.0070   -2.1184 H   0  0  0  0  0  0  0  0  0  0  0  0
   -3.9222   -0.5241   -0.9143 H   0  0  0  0  0  0  0  0  0  0  0  0
   -2.7845    0.3273    1.7806 H   0  0  0  0  0  0  0  0  0  0  0  0
   -3.2666   -1.2935    1.2248 H   0  0  0  0  0  0  0  0  0  0  0  0
   -1.6069   -1.0073    1.8008 H   0  0  0  0  0  0  0  0  0  0  0  0
  1  2  1  0  0  0  0
  2  3  2  0  0  0  0
  3  4  1  0  0  0  0
  4  5  1  0  0  0  0
  5  6  1  0  0  0  0
  6  7  1  0  0  0  0
  2  7  1  0  0  0  0
  6  8  1  0  0  0  0
  8  9  2  0  0  0  0
  8 10  1  0  0  0  0
  1 11  1  0  0  0  0
  1 12  1  0  0  0  0
  1 13  1  0  0  0  0
  3 14  1  0  0  0  0
  4 15  1  0  0  0  0
  4 16  1  0  0  0  0
  5 17  1  0  0  0  0
  5 18  1  0  0  0  0
  6 19  1  0  0  0  0
  7 20  1  0  0  0  0
  7 21  1  0  0  0  0
  9 22  1  0  0  0  0
  9 23  1  0  0  0  0
 10 24  1  0  0  0  0
 10 25  1  0  0  0  0
 10 26  1  0  0  0  0
M  END
$$$$
