C21H21O10
APtclcactv06281817353D 0   0.00000     0.00000
 
 52 55  0  0  0  0  0  0  0  0999 V2000
   -1.0118   -2.4211    0.5990 C   0  0  0  0  0  0  0  0  0  0  0  0
   -1.7730   -3.5596    0.7510 C   0  0  0  0  0  0  0  0  0  0  0  0
   -1.2803   -4.7881    0.3290 C   0  0  0  0  0  0  0  0  0  0  0  0
   -0.0193   -4.8737   -0.2478 C   0  0  0  0  0  0  0  0  0  0  0  0
    0.7476   -3.7395   -0.4030 C   0  0  0  0  0  0  0  0  0  0  0  0
    0.2558   -2.5032    0.0198 C   0  0  0  0  0  0  0  0  0  0  0  0
    1.0758   -1.2833   -0.1456 C   0  0  0  0  0  0  0  0  0  0  0  0
    0.4400   -0.0920   -0.5398 C   0  0  0  0  0  0  0  0  0  0  0  0
    1.2188    1.0351   -0.6886 C   0  0  0  0  0  0  0  0  0  0  0  0
    2.5935    0.8633   -0.4233 C   0  0  0  0  0  0  0  0  0  0  0  0
    3.5035    1.9303   -0.5356 C   0  0  0  0  0  0  0  0  0  0  0  0
    4.8277    1.7198   -0.2687 C   0  0  0  0  0  0  0  0  0  0  0  0
    5.2823    0.4562    0.1136 C   0  0  0  0  0  0  0  0  0  0  0  0
    4.4122   -0.6057    0.2307 C   0  0  0  0  0  0  0  0  0  0  0  0
    3.0466   -0.4231   -0.0356 C   0  0  0  0  0  0  0  0  0  0  0  0
    2.2642   -1.3504    0.0686 O   0  3  0  0  0  0  0  0  0  0  0  0
    6.6023    0.2709    0.3736 O   0  0  0  0  0  0  0  0  0  0  0  0
    3.0693    3.1617   -0.9072 O   0  0  0  0  0  0  0  0  0  0  0  0
   -0.8996   -0.0540   -0.7671 O   0  0  0  0  0  0  0  0  0  0  0  0
   -1.4549    1.2015   -1.1639 C   0  0  0  0  0  0  0  0  0  0  0  0
   -2.9393    1.0221   -1.4929 C   0  0  0  0  0  0  0  0  0  0  0  0
   -3.6813    0.5627   -0.2340 C   0  0  0  0  0  0  0  0  0  0  0  0
   -3.4528    1.5864    0.8822 C   0  0  0  0  0  0  0  0  0  0  0  0
   -1.9486    1.7440    1.1194 C   0  0  0  0  0  0  0  0  0  0  0  0
   -1.3150    2.1427   -0.0978 O   0  0  0  0  0  0  0  0  0  0  0  0
   -1.7100    2.8092    2.1915 C   0  0  0  0  0  0  0  0  0  0  0  0
   -0.3154    2.8741    2.4964 O   0  0  0  0  0  0  0  0  0  0  0  0
   -4.0100    2.8448    0.4974 O   0  0  0  0  0  0  0  0  0  0  0  0
   -5.0794    0.4633   -0.5127 O   0  0  0  0  0  0  0  0  0  0  0  0
   -3.4829    2.2655   -1.9405 O   0  0  0  0  0  0  0  0  0  0  0  0
   -2.0329   -5.9082    0.4812 O   0  0  0  0  0  0  0  0  0  0  0  0
   -1.3971   -1.4658    0.9235 H   0  0  0  0  0  0  0  0  0  0  0  0
   -2.7536   -3.4969    1.1990 H   0  0  0  0  0  0  0  0  0  0  0  0
    0.3604   -5.8304   -0.5747 H   0  0  0  0  0  0  0  0  0  0  0  0
    1.7280   -3.8069   -0.8509 H   0  0  0  0  0  0  0  0  0  0  0  0
    0.8044    1.9863   -0.9885 H   0  0  0  0  0  0  0  0  0  0  0  0
    5.5279    2.5376   -0.3547 H   0  0  0  0  0  0  0  0  0  0  0  0
    4.7806   -1.5767    0.5269 H   0  0  0  0  0  0  0  0  0  0  0  0
    6.8466    0.4241    1.2966 H   0  0  0  0  0  0  0  0  0  0  0  0
    2.8053    3.7255   -0.1673 H   0  0  0  0  0  0  0  0  0  0  0  0
   -0.9292    1.5693   -2.0451 H   0  0  0  0  0  0  0  0  0  0  0  0
   -3.0508    0.2718   -2.2756 H   0  0  0  0  0  0  0  0  0  0  0  0
   -3.3006   -0.4094    0.0793 H   0  0  0  0  0  0  0  0  0  0  0  0
   -3.9317    1.2398    1.7980 H   0  0  0  0  0  0  0  0  0  0  0  0
   -1.5315    0.7935    1.4520 H   0  0  0  0  0  0  0  0  0  0  0  0
   -2.0467    3.7780    1.8225 H   0  0  0  0  0  0  0  0  0  0  0  0
   -2.2670    2.5497    3.0918 H   0  0  0  0  0  0  0  0  0  0  0  0
   -0.0902    3.5300    3.1703 H   0  0  0  0  0  0  0  0  0  0  0  0
   -4.9613    2.8178    0.3260 H   0  0  0  0  0  0  0  0  0  0  0  0
   -5.2966   -0.1638   -1.2160 H   0  0  0  0  0  0  0  0  0  0  0  0
   -3.0561    2.6187   -2.7331 H   0  0  0  0  0  0  0  0  0  0  0  0
   -2.6072   -6.1015   -0.2723 H   0  0  0  0  0  0  0  0  0  0  0  0
  1  2  2  0  0  0  0
  2  3  1  0  0  0  0
  3  4  2  0  0  0  0
  4  5  1  0  0  0  0
  5  6  2  0  0  0  0
  1  6  1  0  0  0  0
  6  7  1  0  0  0  0
  7  8  2  0  0  0  0
  8  9  1  0  0  0  0
  9 10  2  0  0  0  0
 10 11  1  0  0  0  0
 11 12  2  0  0  0  0
 12 13  1  0  0  0  0
 13 14  2  0  0  0  0
 14 15  1  0  0  0  0
 10 15  1  0  0  0  0
 15 16  2  0  0  0  0
  7 16  1  0  0  0  0
 13 17  1  0  0  0  0
 11 18  1  0  0  0  0
  8 19  1  0  0  0  0
 19 20  1  0  0  0  0
 20 21  1  0  0  0  0
 21 22  1  0  0  0  0
 22 23  1  0  0  0  0
 23 24  1  0  0  0  0
 24 25  1  0  0  0  0
 20 25  1  0  0  0  0
 24 26  1  0  0  0  0
 26 27  1  0  0  0  0
 23 28  1  0  0  0  0
 22 29  1  0  0  0  0
 21 30  1  0  0  0  0
  3 31  1  0  0  0  0
  1 32  1  0  0  0  0
  2 33  1  0  0  0  0
  4 34  1  0  0  0  0
  5 35  1  0  0  0  0
  9 36  1  0  0  0  0
 12 37  1  0  0  0  0
 14 38  1  0  0  0  0
 17 39  1  0  0  0  0
 18 40  1  0  0  0  0
 20 41  1  0  0  0  0
 21 42  1  0  0  0  0
 22 43  1  0  0  0  0
 23 44  1  0  0  0  0
 24 45  1  0  0  0  0
 26 46  1  0  0  0  0
 26 47  1  0  0  0  0
 27 48  1  0  0  0  0
 28 49  1  0  0  0  0
 29 50  1  0  0  0  0
 30 51  1  0  0  0  0
 31 52  1  0  0  0  0
M  CHG  1  16   1
M  END
$$$$
