C34H42O22
APtclcactv06281817353D 0   0.00000     0.00000
 
 98103  0  0  0  0  0  0  0  0999 V2000
   -1.0205    5.0851    2.7222 C   0  0  0  0  0  0  0  0  0  0  0  0
   -1.9960    5.4530    1.7449 O   0  0  0  0  0  0  0  0  0  0  0  0
   -1.9938    4.7555    0.5774 C   0  0  0  0  0  0  0  0  0  0  0  0
   -2.9184    5.0622   -0.4193 C   0  0  0  0  0  0  0  0  0  0  0  0
   -2.9193    4.3526   -1.6121 C   0  0  0  0  0  0  0  0  0  0  0  0
   -2.0060    3.3408   -1.8166 C   0  0  0  0  0  0  0  0  0  0  0  0
   -1.0757    3.0276   -0.8215 C   0  0  0  0  0  0  0  0  0  0  0  0
   -1.0712    3.7465    0.3772 C   0  0  0  0  0  0  0  0  0  0  0  0
   -0.0977    1.9456   -1.0382 C   0  0  0  0  0  0  0  0  0  0  0  0
   -0.5397    0.7471   -1.5124 C   0  0  0  0  0  0  0  0  0  0  0  0
    0.3890   -0.3042   -1.7267 C   0  0  0  0  0  0  0  0  0  0  0  0
    0.0298   -1.3911   -2.1507 O   0  0  0  0  0  0  0  0  0  0  0  0
    1.8021   -0.0328   -1.4182 C   0  0  0  0  0  0  0  0  0  0  0  0
    2.7869   -1.0124   -1.6002 C   0  0  0  0  0  0  0  0  0  0  0  0
    4.1038   -0.7182   -1.2992 C   0  0  0  0  0  0  0  0  0  0  0  0
    4.4464    0.5413   -0.8195 C   0  0  0  0  0  0  0  0  0  0  0  0
    3.4772    1.5155   -0.6365 C   0  0  0  0  0  0  0  0  0  0  0  0
    2.1513    1.2399   -0.9330 C   0  0  0  0  0  0  0  0  0  0  0  0
    1.1974    2.1798   -0.7658 O   0  0  0  0  0  0  0  0  0  0  0  0
    5.7426    0.8195   -0.5271 O   0  0  0  0  0  0  0  0  0  0  0  0
    6.6937   -0.2262   -0.7366 C   0  0  0  0  0  0  0  0  0  0  0  0
    8.1046    0.3069   -0.4744 C   0  0  0  0  0  0  0  0  0  0  0  0
    8.2121    0.7466    0.9890 C   0  0  0  0  0  0  0  0  0  0  0  0
    7.8609   -0.4384    1.8938 C   0  0  0  0  0  0  0  0  0  0  0  0
    6.4594   -0.9427    1.5401 C   0  0  0  0  0  0  0  0  0  0  0  0
    6.4199   -1.3059    0.1586 O   0  0  0  0  0  0  0  0  0  0  0  0
    6.1250   -2.1642    2.3986 C   0  0  0  0  0  0  0  0  0  0  0  0
    4.7753   -2.5642    2.1526 O   0  0  0  0  0  0  0  0  0  0  0  0
    8.8102   -1.4881    1.6960 O   0  0  0  0  0  0  0  0  0  0  0  0
    9.5470    1.1773    1.2619 O   0  0  0  0  0  0  0  0  0  0  0  0
    9.0604   -0.7230   -0.7350 O   0  0  0  0  0  0  0  0  0  0  0  0
    2.4506   -2.2412   -2.0680 O   0  0  0  0  0  0  0  0  0  0  0  0
   -1.8612    0.5596   -1.7779 O   0  0  0  0  0  0  0  0  0  0  0  0
   -2.5709   -0.3466   -0.9310 C   0  0  0  0  0  0  0  0  0  0  0  0
   -4.0754   -0.0956   -1.0618 C   0  0  0  0  0  0  0  0  0  0  0  0
   -4.5079   -0.3726   -2.5049 C   0  0  0  0  0  0  0  0  0  0  0  0
   -4.1238   -1.8086   -2.8747 C   0  0  0  0  0  0  0  0  0  0  0  0
   -2.6174   -1.9934   -2.6739 C   0  0  0  0  0  0  0  0  0  0  0  0
   -2.2780   -1.6903   -1.3192 O   0  0  0  0  0  0  0  0  0  0  0  0
   -2.2353   -3.4422   -2.9837 C   0  0  0  0  0  0  0  0  0  0  0  0
   -0.8155   -3.5866   -2.9096 O   0  0  0  0  0  0  0  0  0  0  0  0
   -4.8330   -2.7234   -2.0368 O   0  0  0  0  0  0  0  0  0  0  0  0
   -5.9232   -0.2118   -2.6191 O   0  0  0  0  0  0  0  0  0  0  0  0
   -4.7834   -0.9651   -0.1759 O   0  0  0  0  0  0  0  0  0  0  0  0
   -5.1548   -0.3562    1.0624 C   0  0  0  0  0  0  0  0  0  0  0  0
   -6.2144   -1.2160    1.7565 C   0  0  0  0  0  0  0  0  0  0  0  0
   -5.6173   -2.5902    2.0749 C   0  0  0  0  0  0  0  0  0  0  0  0
   -4.3647   -2.4033    2.9365 C   0  0  0  0  0  0  0  0  0  0  0  0
   -3.3765   -1.4977    2.1968 C   0  0  0  0  0  0  0  0  0  0  0  0
   -4.0050   -0.2481    1.9041 O   0  0  0  0  0  0  0  0  0  0  0  0
   -2.1480   -1.2573    3.0764 C   0  0  0  0  0  0  0  0  0  0  0  0
   -1.1711   -0.5198    2.3389 O   0  0  0  0  0  0  0  0  0  0  0  0
   -4.7264   -1.8000    4.1803 O   0  0  0  0  0  0  0  0  0  0  0  0
   -6.5757   -3.3741    2.7883 O   0  0  0  0  0  0  0  0  0  0  0  0
   -6.6251   -0.5812    2.9692 O   0  0  0  0  0  0  0  0  0  0  0  0
   -3.8216    6.0582   -0.2225 O   0  0  0  0  0  0  0  0  0  0  0  0
   -1.1318    5.7179    3.6027 H   0  0  0  0  0  0  0  0  0  0  0  0
   -1.1638    4.0420    3.0040 H   0  0  0  0  0  0  0  0  0  0  0  0
   -0.0217    5.2149    2.3054 H   0  0  0  0  0  0  0  0  0  0  0  0
   -3.6376    4.5937   -2.3817 H   0  0  0  0  0  0  0  0  0  0  0  0
   -2.0093    2.7898   -2.7454 H   0  0  0  0  0  0  0  0  0  0  0  0
   -0.3539    3.5081    1.1487 H   0  0  0  0  0  0  0  0  0  0  0  0
    4.8683   -1.4685   -1.4366 H   0  0  0  0  0  0  0  0  0  0  0  0
    3.7553    2.4898   -0.2626 H   0  0  0  0  0  0  0  0  0  0  0  0
    6.6242   -0.5801   -1.7652 H   0  0  0  0  0  0  0  0  0  0  0  0
    8.2991    1.1588   -1.1260 H   0  0  0  0  0  0  0  0  0  0  0  0
    7.5179    1.5660    1.1754 H   0  0  0  0  0  0  0  0  0  0  0  0
    7.8811   -0.1195    2.9359 H   0  0  0  0  0  0  0  0  0  0  0  0
    5.7308   -0.1545    1.7297 H   0  0  0  0  0  0  0  0  0  0  0  0
    6.7985   -2.9826    2.1442 H   0  0  0  0  0  0  0  0  0  0  0  0
    6.2426   -1.9111    3.4522 H   0  0  0  0  0  0  0  0  0  0  0  0
    4.4940   -3.3350    2.6644 H   0  0  0  0  0  0  0  0  0  0  0  0
    9.7221   -1.2367    1.8968 H   0  0  0  0  0  0  0  0  0  0  0  0
    9.8388    1.9222    0.7186 H   0  0  0  0  0  0  0  0  0  0  0  0
    9.0449   -1.0532   -1.6437 H   0  0  0  0  0  0  0  0  0  0  0  0
    2.4794   -2.3166   -3.0317 H   0  0  0  0  0  0  0  0  0  0  0  0
   -2.2652   -0.1921    0.1038 H   0  0  0  0  0  0  0  0  0  0  0  0
   -4.2951    0.9416   -0.8084 H   0  0  0  0  0  0  0  0  0  0  0  0
   -4.0052    0.3237   -3.1762 H   0  0  0  0  0  0  0  0  0  0  0  0
   -4.3780   -1.9965   -3.9178 H   0  0  0  0  0  0  0  0  0  0  0  0
   -2.0766   -1.3237   -3.3426 H   0  0  0  0  0  0  0  0  0  0  0  0
   -2.7063   -4.1053   -2.2581 H   0  0  0  0  0  0  0  0  0  0  0  0
   -2.5750   -3.7010   -3.9865 H   0  0  0  0  0  0  0  0  0  0  0  0
   -0.5011   -4.4821   -3.0951 H   0  0  0  0  0  0  0  0  0  0  0  0
   -4.6377   -3.6534   -2.2161 H   0  0  0  0  0  0  0  0  0  0  0  0
   -6.2668   -0.3724   -3.5086 H   0  0  0  0  0  0  0  0  0  0  0  0
   -5.5606    0.6373    0.8717 H   0  0  0  0  0  0  0  0  0  0  0  0
   -7.0745   -1.3362    1.0979 H   0  0  0  0  0  0  0  0  0  0  0  0
   -5.3495   -3.0952    1.1468 H   0  0  0  0  0  0  0  0  0  0  0  0
   -3.9020   -3.3727    3.1217 H   0  0  0  0  0  0  0  0  0  0  0  0
   -3.0700   -1.9770    1.2671 H   0  0  0  0  0  0  0  0  0  0  0  0
   -2.4395   -0.6907    3.9608 H   0  0  0  0  0  0  0  0  0  0  0  0
   -1.7263   -2.2151    3.3812 H   0  0  0  0  0  0  0  0  0  0  0  0
   -0.3633   -0.3308    2.8358 H   0  0  0  0  0  0  0  0  0  0  0  0
   -5.3553   -2.3183    4.7007 H   0  0  0  0  0  0  0  0  0  0  0  0
   -7.3984   -3.5266    2.3036 H   0  0  0  0  0  0  0  0  0  0  0  0
   -7.0090    0.2973    2.8428 H   0  0  0  0  0  0  0  0  0  0  0  0
   -3.4892    6.9394   -0.4417 H   0  0  0  0  0  0  0  0  0  0  0  0
  1  2  1  0  0  0  0
  2  3  1  0  0  0  0
  3  4  2  0  0  0  0
  4  5  1  0  0  0  0
  5  6  2  0  0  0  0
  6  7  1  0  0  0  0
  7  8  2  0  0  0  0
  3  8  1  0  0  0  0
  7  9  1  0  0  0  0
  9 10  2  0  0  0  0
 10 11  1  0  0  0  0
 11 12  2  0  0  0  0
 11 13  1  0  0  0  0
 13 14  2  0  0  0  0
 14 15  1  0  0  0  0
 15 16  2  0  0  0  0
 16 17  1  0  0  0  0
 17 18  2  0  0  0  0
 13 18  1  0  0  0  0
 18 19  1  0  0  0  0
  9 19  1  0  0  0  0
 16 20  1  0  0  0  0
 20 21  1  0  0  0  0
 21 22  1  0  0  0  0
 22 23  1  0  0  0  0
 23 24  1  0  0  0  0
 24 25  1  0  0  0  0
 25 26  1  0  0  0  0
 21 26  1  0  0  0  0
 25 27  1  0  0  0  0
 27 28  1  0  0  0  0
 24 29  1  0  0  0  0
 23 30  1  0  0  0  0
 22 31  1  0  0  0  0
 14 32  1  0  0  0  0
 10 33  1  0  0  0  0
 33 34  1  0  0  0  0
 34 35  1  0  0  0  0
 35 36  1  0  0  0  0
 36 37  1  0  0  0  0
 37 38  1  0  0  0  0
 38 39  1  0  0  0  0
 34 39  1  0  0  0  0
 38 40  1  0  0  0  0
 40 41  1  0  0  0  0
 37 42  1  0  0  0  0
 36 43  1  0  0  0  0
 35 44  1  0  0  0  0
 44 45  1  0  0  0  0
 45 46  1  0  0  0  0
 46 47  1  0  0  0  0
 47 48  1  0  0  0  0
 48 49  1  0  0  0  0
 49 50  1  0  0  0  0
 45 50  1  0  0  0  0
 49 51  1  0  0  0  0
 51 52  1  0  0  0  0
 48 53  1  0  0  0  0
 47 54  1  0  0  0  0
 46 55  1  0  0  0  0
  4 56  1  0  0  0  0
  1 57  1  0  0  0  0
  1 58  1  0  0  0  0
  1 59  1  0  0  0  0
  5 60  1  0  0  0  0
  6 61  1  0  0  0  0
  8 62  1  0  0  0  0
 15 63  1  0  0  0  0
 17 64  1  0  0  0  0
 21 65  1  0  0  0  0
 22 66  1  0  0  0  0
 23 67  1  0  0  0  0
 24 68  1  0  0  0  0
 25 69  1  0  0  0  0
 27 70  1  0  0  0  0
 27 71  1  0  0  0  0
 28 72  1  0  0  0  0
 29 73  1  0  0  0  0
 30 74  1  0  0  0  0
 31 75  1  0  0  0  0
 32 76  1  0  0  0  0
 34 77  1  0  0  0  0
 35 78  1  0  0  0  0
 36 79  1  0  0  0  0
 37 80  1  0  0  0  0
 38 81  1  0  0  0  0
 40 82  1  0  0  0  0
 40 83  1  0  0  0  0
 41 84  1  0  0  0  0
 42 85  1  0  0  0  0
 43 86  1  0  0  0  0
 45 87  1  0  0  0  0
 46 88  1  0  0  0  0
 47 89  1  0  0  0  0
 48 90  1  0  0  0  0
 49 91  1  0  0  0  0
 51 92  1  0  0  0  0
 51 93  1  0  0  0  0
 52 94  1  0  0  0  0
 53 95  1  0  0  0  0
 54 96  1  0  0  0  0
 55 97  1  0  0  0  0
 56 98  1  0  0  0  0
M  END
$$$$
