C31H52O
APtclcactv06281817363D 0   0.00000     0.00000
 
 84 88  0  0  0  0  0  0  0  0999 V2000
   -5.2909    3.5175    0.0877 C   0  0  0  0  0  0  0  0  0  0  0  0
   -5.9799    2.2026    0.4583 C   0  0  0  0  0  0  0  0  0  0  0  0
   -7.4038    2.1974   -0.1014 C   0  0  0  0  0  0  0  0  0  0  0  0
   -5.2065    1.0484   -0.1253 C   0  0  0  0  0  0  0  0  0  0  0  0
   -4.7040    0.1311    0.6635 C   0  0  0  0  0  0  0  0  0  0  0  0
   -3.9993   -1.0643    0.0757 C   0  0  0  0  0  0  0  0  0  0  0  0
   -2.5814   -1.1509    0.6441 C   0  0  0  0  0  0  0  0  0  0  0  0
   -2.6507   -1.4211    2.1485 C   0  0  0  0  0  0  0  0  0  0  0  0
   -1.8289   -2.2824   -0.0402 C   0  0  0  0  0  0  0  0  0  0  0  0
   -1.8689   -2.1468   -1.5822 C   0  0  0  0  0  0  0  0  0  0  0  0
   -0.3894   -2.2035   -2.0580 C   0  0  0  0  0  0  0  0  0  0  0  0
    0.3519   -1.6027   -0.8506 C   0  0  0  0  0  0  0  0  0  0  0  0
   -0.3460   -2.3250    0.3257 C   0  0  0  0  0  0  0  0  0  0  0  0
    0.0827   -1.6806    1.6227 C   0  0  0  0  0  0  0  0  0  0  0  0
    1.5967   -1.8590    1.7910 C   0  0  0  0  0  0  0  0  0  0  0  0
    2.3822   -1.4198    0.5460 C   0  0  0  0  0  0  0  0  0  0  0  0
    1.8422   -1.8805   -0.8027 C   0  0  0  0  0  0  0  0  0  0  0  0
    2.5610   -1.2861   -1.9866 C   0  0  0  0  0  0  0  0  0  0  0  0
    2.9449    0.1676   -1.9105 C   0  0  0  0  0  0  0  0  0  0  0  0
    3.4936    0.6551   -0.6191 C   0  0  0  0  0  0  0  0  0  0  0  0
    3.1920   -0.1199    0.6308 C   0  0  0  0  0  0  0  0  0  0  0  0
    3.9112   -1.4828    0.7381 C   0  0  0  0  0  0  0  0  0  0  0  0
    3.0064    0.6461    1.9417 C   0  0  0  0  0  0  0  0  0  0  0  0
    3.7213    1.9719    1.9843 C   0  0  0  0  0  0  0  0  0  0  0  0
    3.5114    2.7963    0.7357 C   0  0  0  0  0  0  0  0  0  0  0  0
    3.9379    2.0706   -0.5220 C   0  0  0  0  0  0  0  0  0  0  0  0
    5.4692    2.0911   -0.5900 C   0  0  0  0  0  0  0  0  0  0  0  0
    3.4090    2.8651   -1.7178 C   0  0  0  0  0  0  0  0  0  0  0  0
    2.1250    3.1306    0.6284 O   0  0  0  0  0  0  0  0  0  0  0  0
    0.0486   -3.8152    0.3617 C   0  0  0  0  0  0  0  0  0  0  0  0
    0.0898   -0.0915   -0.8078 C   0  0  0  0  0  0  0  0  0  0  0  0
   -5.0112    0.9494   -1.6163 C   0  0  0  0  0  0  0  0  0  0  0  0
   -5.2552    3.6157   -0.9973 H   0  0  0  0  0  0  0  0  0  0  0  0
   -5.8503    4.3524    0.5098 H   0  0  0  0  0  0  0  0  0  0  0  0
   -4.2765    3.5212    0.4865 H   0  0  0  0  0  0  0  0  0  0  0  0
   -6.0156    2.1044    1.5433 H   0  0  0  0  0  0  0  0  0  0  0  0
   -7.3680    2.2956   -1.1864 H   0  0  0  0  0  0  0  0  0  0  0  0
   -7.8946    1.2607    0.1626 H   0  0  0  0  0  0  0  0  0  0  0  0
   -7.9632    3.0323    0.3207 H   0  0  0  0  0  0  0  0  0  0  0  0
   -4.7947    0.2315    1.7350 H   0  0  0  0  0  0  0  0  0  0  0  0
   -4.5485   -1.9710    0.3296 H   0  0  0  0  0  0  0  0  0  0  0  0
   -3.9505   -0.9607   -1.0082 H   0  0  0  0  0  0  0  0  0  0  0  0
   -2.0611   -0.2095    0.4676 H   0  0  0  0  0  0  0  0  0  0  0  0
   -1.6544   -1.3275    2.5807 H   0  0  0  0  0  0  0  0  0  0  0  0
   -3.3193   -0.6989    2.6170 H   0  0  0  0  0  0  0  0  0  0  0  0
   -3.0276   -2.4295    2.3196 H   0  0  0  0  0  0  0  0  0  0  0  0
   -2.2879   -3.2422    0.2416 H   0  0  0  0  0  0  0  0  0  0  0  0
   -2.4277   -2.9763   -2.0155 H   0  0  0  0  0  0  0  0  0  0  0  0
   -2.3225   -1.2010   -1.8699 H   0  0  0  0  0  0  0  0  0  0  0  0
   -0.0745   -3.2203   -2.2586 H   0  0  0  0  0  0  0  0  0  0  0  0
   -0.2495   -1.5731   -2.9378 H   0  0  0  0  0  0  0  0  0  0  0  0
   -0.1703   -0.6252    1.6724 H   0  0  0  0  0  0  0  0  0  0  0  0
   -0.4222   -2.1873    2.4599 H   0  0  0  0  0  0  0  0  0  0  0  0
    1.9219   -1.2527    2.6440 H   0  0  0  0  0  0  0  0  0  0  0  0
    1.8325   -2.8957    2.0239 H   0  0  0  0  0  0  0  0  0  0  0  0
    2.0085   -2.9686   -0.8690 H   0  0  0  0  0  0  0  0  0  0  0  0
    3.4774   -1.8747   -2.1564 H   0  0  0  0  0  0  0  0  0  0  0  0
    1.9394   -1.4371   -2.8809 H   0  0  0  0  0  0  0  0  0  0  0  0
    3.7146    0.3377   -2.6865 H   0  0  0  0  0  0  0  0  0  0  0  0
    2.0822    0.7691   -2.2079 H   0  0  0  0  0  0  0  0  0  0  0  0
    4.5068    0.2358   -0.7641 H   0  0  0  0  0  0  0  0  0  0  0  0
    4.2781   -1.7804    1.7189 H   0  0  0  0  0  0  0  0  0  0  0  0
    4.5079   -1.8050   -0.1133 H   0  0  0  0  0  0  0  0  0  0  0  0
    1.9407    0.8167    2.0987 H   0  0  0  0  0  0  0  0  0  0  0  0
    3.3794    0.0268    2.7607 H   0  0  0  0  0  0  0  0  0  0  0  0
    3.3496    2.5381    2.8421 H   0  0  0  0  0  0  0  0  0  0  0  0
    4.7862    1.7962    2.1282 H   0  0  0  0  0  0  0  0  0  0  0  0
    4.0862    3.7194    0.8211 H   0  0  0  0  0  0  0  0  0  0  0  0
    5.8786    1.5917    0.2881 H   0  0  0  0  0  0  0  0  0  0  0  0
    5.7999    1.5728   -1.4901 H   0  0  0  0  0  0  0  0  0  0  0  0
    5.8179    3.1235   -0.6165 H   0  0  0  0  0  0  0  0  0  0  0  0
    3.8280    3.8712   -1.6996 H   0  0  0  0  0  0  0  0  0  0  0  0
    3.7003    2.3670   -2.6425 H   0  0  0  0  0  0  0  0  0  0  0  0
    2.3219    2.9232   -1.6633 H   0  0  0  0  0  0  0  0  0  0  0  0
    1.7850    3.6427    1.3750 H   0  0  0  0  0  0  0  0  0  0  0  0
    1.1281   -3.9023    0.4856 H   0  0  0  0  0  0  0  0  0  0  0  0
   -0.4535   -4.3039    1.1967 H   0  0  0  0  0  0  0  0  0  0  0  0
   -0.2497   -4.2927   -0.5716 H   0  0  0  0  0  0  0  0  0  0  0  0
   -0.9759    0.0885   -0.6663 H   0  0  0  0  0  0  0  0  0  0  0  0
    0.6459    0.3504    0.0189 H   0  0  0  0  0  0  0  0  0  0  0  0
    0.4132    0.3600   -1.7457 H   0  0  0  0  0  0  0  0  0  0  0  0
   -4.0494    1.3853   -1.8865 H   0  0  0  0  0  0  0  0  0  0  0  0
   -5.0325   -0.0982   -1.9168 H   0  0  0  0  0  0  0  0  0  0  0  0
   -5.8103    1.4894   -2.1241 H   0  0  0  0  0  0  0  0  0  0  0  0
  1  2  1  0  0  0  0
  2  3  1  0  0  0  0
  2  4  1  0  0  0  0
  4  5  2  0  0  0  0
  5  6  1  0  0  0  0
  6  7  1  0  0  0  0
  7  8  1  0  0  0  0
  7  9  1  0  0  0  0
  9 10  1  0  0  0  0
 10 11  1  0  0  0  0
 11 12  1  0  0  0  0
 12 13  1  0  0  0  0
  9 13  1  0  0  0  0
 13 14  1  0  0  0  0
 14 15  1  0  0  0  0
 15 16  1  0  0  0  0
 16 17  1  0  0  0  0
 12 17  1  0  0  0  0
 17 18  1  0  0  0  0
 18 19  1  0  0  0  0
 19 20  1  0  0  0  0
 20 21  1  0  0  0  0
 16 21  1  0  0  0  0
 21 22  1  0  0  0  0
 16 22  1  0  0  0  0
 21 23  1  0  0  0  0
 23 24  1  0  0  0  0
 24 25  1  0  0  0  0
 25 26  1  0  0  0  0
 20 26  1  0  0  0  0
 26 27  1  0  0  0  0
 26 28  1  0  0  0  0
 25 29  1  0  0  0  0
 13 30  1  0  0  0  0
 12 31  1  0  0  0  0
  4 32  1  0  0  0  0
  1 33  1  0  0  0  0
  1 34  1  0  0  0  0
  1 35  1  0  0  0  0
  2 36  1  0  0  0  0
  3 37  1  0  0  0  0
  3 38  1  0  0  0  0
  3 39  1  0  0  0  0
  5 40  1  0  0  0  0
  6 41  1  0  0  0  0
  6 42  1  0  0  0  0
  7 43  1  0  0  0  0
  8 44  1  0  0  0  0
  8 45  1  0  0  0  0
  8 46  1  0  0  0  0
  9 47  1  0  0  0  0
 10 48  1  0  0  0  0
 10 49  1  0  0  0  0
 11 50  1  0  0  0  0
 11 51  1  0  0  0  0
 14 52  1  0  0  0  0
 14 53  1  0  0  0  0
 15 54  1  0  0  0  0
 15 55  1  0  0  0  0
 17 56  1  0  0  0  0
 18 57  1  0  0  0  0
 18 58  1  0  0  0  0
 19 59  1  0  0  0  0
 19 60  1  0  0  0  0
 20 61  1  0  0  0  0
 22 62  1  0  0  0  0
 22 63  1  0  0  0  0
 23 64  1  0  0  0  0
 23 65  1  0  0  0  0
 24 66  1  0  0  0  0
 24 67  1  0  0  0  0
 25 68  1  0  0  0  0
 27 69  1  0  0  0  0
 27 70  1  0  0  0  0
 27 71  1  0  0  0  0
 28 72  1  0  0  0  0
 28 73  1  0  0  0  0
 28 74  1  0  0  0  0
 29 75  1  0  0  0  0
 30 76  1  0  0  0  0
 30 77  1  0  0  0  0
 30 78  1  0  0  0  0
 31 79  1  0  0  0  0
 31 80  1  0  0  0  0
 31 81  1  0  0  0  0
 32 82  1  0  0  0  0
 32 83  1  0  0  0  0
 32 84  1  0  0  0  0
M  END
$$$$
