C20H25NO3
APtclcactv06281817363D 0   0.00000     0.00000
 
 49 50  0  0  0  0  0  0  0  0999 V2000
    0.3451    4.8287    1.2106 C   0  0  0  0  0  0  0  0  0  0  0  0
    0.7621    4.0880    0.0125 N   0  0  0  0  0  0  0  0  0  0  0  0
    1.6276    4.9125   -0.8414 C   0  0  0  0  0  0  0  0  0  0  0  0
    1.4265    2.8294    0.3763 C   0  0  0  0  0  0  0  0  0  0  0  0
    1.6214    1.9747   -0.8777 C   0  0  0  0  0  0  0  0  0  0  0  0
    2.3030    0.6834   -0.5045 C   0  0  0  0  0  0  0  0  0  0  0  0
    1.5468   -0.3994   -0.0469 C   0  0  0  0  0  0  0  0  0  0  0  0
    2.1875   -1.5963    0.2975 C   0  0  0  0  0  0  0  0  0  0  0  0
    3.5681   -1.6957    0.1811 C   0  0  0  0  0  0  0  0  0  0  0  0
    4.3055   -0.6133   -0.2743 C   0  0  0  0  0  0  0  0  0  0  0  0
    3.6724    0.5680   -0.6197 C   0  0  0  0  0  0  0  0  0  0  0  0
    4.1968   -2.8548    0.5142 O   0  0  0  0  0  0  0  0  0  0  0  0
    5.6182   -2.8866    0.3699 C   0  0  0  0  0  0  0  0  0  0  0  0
    1.4618   -2.6553    0.7440 O   0  0  0  0  0  0  0  0  0  0  0  0
    0.0832   -0.2821    0.0729 C   0  0  0  0  0  0  0  0  0  0  0  0
   -0.7119   -1.2230   -0.4623 C   0  0  0  0  0  0  0  0  0  0  0  0
   -2.1758   -1.1057   -0.3425 C   0  0  0  0  0  0  0  0  0  0  0  0
   -3.0053   -2.0836   -0.8987 C   0  0  0  0  0  0  0  0  0  0  0  0
   -4.3738   -1.9698   -0.7836 C   0  0  0  0  0  0  0  0  0  0  0  0
   -4.9291   -0.8854   -0.1167 C   0  0  0  0  0  0  0  0  0  0  0  0
   -4.1089    0.0891    0.4372 C   0  0  0  0  0  0  0  0  0  0  0  0
   -2.7391   -0.0192    0.3327 C   0  0  0  0  0  0  0  0  0  0  0  0
   -6.2790   -0.7772   -0.0062 O   0  0  0  0  0  0  0  0  0  0  0  0
   -6.7834    0.3628    0.6923 C   0  0  0  0  0  0  0  0  0  0  0  0
   -0.1439    5.7561    0.9126 H   0  0  0  0  0  0  0  0  0  0  0  0
   -0.3503    4.2210    1.7897 H   0  0  0  0  0  0  0  0  0  0  0  0
    1.2201    5.0584    1.8186 H   0  0  0  0  0  0  0  0  0  0  0  0
    2.5174    5.2038   -0.2833 H   0  0  0  0  0  0  0  0  0  0  0  0
    1.9217    4.3401   -1.7211 H   0  0  0  0  0  0  0  0  0  0  0  0
    1.0859    5.8055   -1.1534 H   0  0  0  0  0  0  0  0  0  0  0  0
    2.3970    3.0466    0.8224 H   0  0  0  0  0  0  0  0  0  0  0  0
    0.8101    2.2872    1.0933 H   0  0  0  0  0  0  0  0  0  0  0  0
    0.6509    1.7575   -1.3239 H   0  0  0  0  0  0  0  0  0  0  0  0
    2.2378    2.5168   -1.5947 H   0  0  0  0  0  0  0  0  0  0  0  0
    5.3787   -0.6937   -0.3637 H   0  0  0  0  0  0  0  0  0  0  0  0
    4.2544    1.4061   -0.9735 H   0  0  0  0  0  0  0  0  0  0  0  0
    5.9919   -3.8659    0.6686 H   0  0  0  0  0  0  0  0  0  0  0  0
    5.8820   -2.6990   -0.6709 H   0  0  0  0  0  0  0  0  0  0  0  0
    6.0648   -2.1190    1.0020 H   0  0  0  0  0  0  0  0  0  0  0  0
    1.1608   -3.2494    0.0429 H   0  0  0  0  0  0  0  0  0  0  0  0
   -0.3504    0.5604    0.5911 H   0  0  0  0  0  0  0  0  0  0  0  0
   -0.2783   -2.0655   -0.9806 H   0  0  0  0  0  0  0  0  0  0  0  0
   -2.5745   -2.9268   -1.4181 H   0  0  0  0  0  0  0  0  0  0  0  0
   -5.0156   -2.7249   -1.2130 H   0  0  0  0  0  0  0  0  0  0  0  0
   -4.5453    0.9307    0.9546 H   0  0  0  0  0  0  0  0  0  0  0  0
   -2.1022    0.7389    0.7640 H   0  0  0  0  0  0  0  0  0  0  0  0
   -7.8727    0.3267    0.7078 H   0  0  0  0  0  0  0  0  0  0  0  0
   -6.4052    0.3593    1.7146 H   0  0  0  0  0  0  0  0  0  0  0  0
   -6.4572    1.2720    0.1873 H   0  0  0  0  0  0  0  0  0  0  0  0
  1  2  1  0  0  0  0
  2  3  1  0  0  0  0
  2  4  1  0  0  0  0
  4  5  1  0  0  0  0
  5  6  1  0  0  0  0
  6  7  2  0  0  0  0
  7  8  1  0  0  0  0
  8  9  2  0  0  0  0
  9 10  1  0  0  0  0
 10 11  2  0  0  0  0
  6 11  1  0  0  0  0
  9 12  1  0  0  0  0
 12 13  1  0  0  0  0
  8 14  1  0  0  0  0
  7 15  1  0  0  0  0
 15 16  2  0  0  0  0
 16 17  1  0  0  0  0
 17 18  2  0  0  0  0
 18 19  1  0  0  0  0
 19 20  2  0  0  0  0
 20 21  1  0  0  0  0
 21 22  2  0  0  0  0
 17 22  1  0  0  0  0
 20 23  1  0  0  0  0
 23 24  1  0  0  0  0
  1 25  1  0  0  0  0
  1 26  1  0  0  0  0
  1 27  1  0  0  0  0
  3 28  1  0  0  0  0
  3 29  1  0  0  0  0
  3 30  1  0  0  0  0
  4 31  1  0  0  0  0
  4 32  1  0  0  0  0
  5 33  1  0  0  0  0
  5 34  1  0  0  0  0
 10 35  1  0  0  0  0
 11 36  1  0  0  0  0
 13 37  1  0  0  0  0
 13 38  1  0  0  0  0
 13 39  1  0  0  0  0
 14 40  1  0  0  0  0
 15 41  1  0  0  0  0
 16 42  1  0  0  0  0
 18 43  1  0  0  0  0
 19 44  1  0  0  0  0
 21 45  1  0  0  0  0
 22 46  1  0  0  0  0
 24 47  1  0  0  0  0
 24 48  1  0  0  0  0
 24 49  1  0  0  0  0
M  END
$$$$
