C15H16O
APtclcactv06281817363D 0   0.00000     0.00000
 
 32 34  0  0  0  0  0  0  0  0999 V2000
   -3.4315    2.3724   -0.0252 C   0  0  0  0  0  0  0  0  0  0  0  0
   -2.4975    1.1946    0.0817 C   0  0  0  0  0  0  0  0  0  0  0  0
   -1.2092    1.3572   -0.1836 C   0  0  0  0  0  0  0  0  0  0  0  0
   -0.2960    0.2018   -0.1158 C   0  0  0  0  0  0  0  0  0  0  0  0
   -0.8248   -1.0856   -0.1304 C   0  0  0  0  0  0  0  0  0  0  0  0
   -2.3153   -1.2712   -0.2478 C   0  0  0  0  0  0  0  0  0  0  0  0
   -3.0405   -0.1462    0.4939 C   0  0  0  0  0  0  0  0  0  0  0  0
    0.0152   -2.1810   -0.0441 C   0  0  0  0  0  0  0  0  0  0  0  0
    1.3828   -2.0156    0.0455 C   0  0  0  0  0  0  0  0  0  0  0  0
    1.9378   -0.7413    0.0492 C   0  0  0  0  0  0  0  0  0  0  0  0
    1.0945    0.3785   -0.0337 C   0  0  0  0  0  0  0  0  0  0  0  0
    1.9827    1.5430   -0.0079 C   0  0  0  0  0  0  0  0  0  0  0  0
    3.2307    1.0599    0.0853 C   0  0  0  0  0  0  0  0  0  0  0  0
    3.2043   -0.2836    0.1193 O   0  0  0  0  0  0  0  0  0  0  0  0
    1.5762    2.9926   -0.0736 C   0  0  0  0  0  0  0  0  0  0  0  0
   -0.5688   -3.5702   -0.0472 C   0  0  0  0  0  0  0  0  0  0  0  0
   -2.8693    3.2556   -0.3286 H   0  0  0  0  0  0  0  0  0  0  0  0
   -4.2015    2.1593   -0.7668 H   0  0  0  0  0  0  0  0  0  0  0  0
   -3.8993    2.5541    0.9423 H   0  0  0  0  0  0  0  0  0  0  0  0
   -0.8297    2.3329   -0.4489 H   0  0  0  0  0  0  0  0  0  0  0  0
   -2.5997   -1.2576   -1.3000 H   0  0  0  0  0  0  0  0  0  0  0  0
   -2.5958   -2.2298    0.1886 H   0  0  0  0  0  0  0  0  0  0  0  0
   -2.9073   -0.2799    1.5674 H   0  0  0  0  0  0  0  0  0  0  0  0
   -4.1037   -0.1874    0.2571 H   0  0  0  0  0  0  0  0  0  0  0  0
    2.0250   -2.8812    0.1134 H   0  0  0  0  0  0  0  0  0  0  0  0
    4.1260    1.6625    0.1267 H   0  0  0  0  0  0  0  0  0  0  0  0
    1.3119    3.3415    0.9246 H   0  0  0  0  0  0  0  0  0  0  0  0
    2.4061    3.5856   -0.4580 H   0  0  0  0  0  0  0  0  0  0  0  0
    0.7165    3.0992   -0.7352 H   0  0  0  0  0  0  0  0  0  0  0  0
   -0.6396   -3.9322   -1.0729 H   0  0  0  0  0  0  0  0  0  0  0  0
    0.0735   -4.2357    0.5295 H   0  0  0  0  0  0  0  0  0  0  0  0
   -1.5628   -3.5474    0.3994 H   0  0  0  0  0  0  0  0  0  0  0  0
  1  2  1  0  0  0  0
  2  3  2  0  0  0  0
  3  4  1  0  0  0  0
  4  5  2  0  0  0  0
  5  6  1  0  0  0  0
  6  7  1  0  0  0  0
  2  7  1  0  0  0  0
  5  8  1  0  0  0  0
  8  9  2  0  0  0  0
  9 10  1  0  0  0  0
 10 11  2  0  0  0  0
  4 11  1  0  0  0  0
 11 12  1  0  0  0  0
 12 13  2  0  0  0  0
 13 14  1  0  0  0  0
 10 14  1  0  0  0  0
 12 15  1  0  0  0  0
  8 16  1  0  0  0  0
  1 17  1  0  0  0  0
  1 18  1  0  0  0  0
  1 19  1  0  0  0  0
  3 20  1  0  0  0  0
  6 21  1  0  0  0  0
  6 22  1  0  0  0  0
  7 23  1  0  0  0  0
  7 24  1  0  0  0  0
  9 25  1  0  0  0  0
 13 26  1  0  0  0  0
 15 27  1  0  0  0  0
 15 28  1  0  0  0  0
 15 29  1  0  0  0  0
 16 30  1  0  0  0  0
 16 31  1  0  0  0  0
 16 32  1  0  0  0  0
M  END
$$$$
