C16H20O3
APtclcactv06281817103D 0   0.00000     0.00000
 
 39 40  0  0  0  0  0  0  0  0999 V2000
    1.1024    3.0560   -0.0988 C   0  0  0  0  0  0  0  0  0  0  0  0
   -0.1543    2.2540   -0.3194 C   0  0  0  0  0  0  0  0  0  0  0  0
   -1.3130    2.7299    0.0649 C   0  0  0  0  0  0  0  0  0  0  0  0
   -2.5670    1.9236   -0.1568 C   0  0  0  0  0  0  0  0  0  0  0  0
   -2.7084    0.8847    0.9573 C   0  0  0  0  0  0  0  0  0  0  0  0
   -1.5410   -0.0661    0.9118 C   0  0  0  0  0  0  0  0  0  0  0  0
   -0.4298    0.2058    1.5908 C   0  0  0  0  0  0  0  0  0  0  0  0
    0.7327   -0.7513    1.5449 C   0  0  0  0  0  0  0  0  0  0  0  0
    1.6127   -0.4256    0.3657 C   0  0  0  0  0  0  0  0  0  0  0  0
    1.2689    0.2846   -0.7230 C   0  0  0  0  0  0  0  0  0  0  0  0
   -0.0819    0.9055   -0.9881 C   0  0  0  0  0  0  0  0  0  0  0  0
    2.3324    0.3483   -1.5413 O   0  0  0  0  0  0  0  0  0  0  0  0
    3.3634   -0.3119   -0.9895 C   0  0  0  0  0  0  0  0  0  0  0  0
    2.9632   -0.8104    0.1940 C   0  0  0  0  0  0  0  0  0  0  0  0
    3.7940   -1.6236    1.1529 C   0  0  0  0  0  0  0  0  0  0  0  0
   -1.6301   -1.2979    0.1154 C   0  0  0  0  0  0  0  0  0  0  0  0
   -0.6520   -2.0066   -0.0191 O   0  0  0  0  0  0  0  0  0  0  0  0
   -2.7967   -1.6418   -0.4659 O   0  0  0  0  0  0  0  0  0  0  0  0
   -2.8113   -2.8717   -1.2376 C   0  0  0  0  0  0  0  0  0  0  0  0
    0.8514    3.9975    0.3898 H   0  0  0  0  0  0  0  0  0  0  0  0
    1.7881    2.4906    0.5322 H   0  0  0  0  0  0  0  0  0  0  0  0
    1.5764    3.2599   -1.0589 H   0  0  0  0  0  0  0  0  0  0  0  0
   -1.3694    3.6982    0.5400 H   0  0  0  0  0  0  0  0  0  0  0  0
   -3.4319    2.5869   -0.1471 H   0  0  0  0  0  0  0  0  0  0  0  0
   -2.5079    1.4174   -1.1203 H   0  0  0  0  0  0  0  0  0  0  0  0
   -2.7284    1.3889    1.9235 H   0  0  0  0  0  0  0  0  0  0  0  0
   -3.6354    0.3283    0.8193 H   0  0  0  0  0  0  0  0  0  0  0  0
   -0.3610    1.1121    2.1742 H   0  0  0  0  0  0  0  0  0  0  0  0
    1.3113   -0.6634    2.4644 H   0  0  0  0  0  0  0  0  0  0  0  0
    0.3594   -1.7708    1.4482 H   0  0  0  0  0  0  0  0  0  0  0  0
   -0.8631    0.2607   -0.5854 H   0  0  0  0  0  0  0  0  0  0  0  0
   -0.2243    1.0198   -2.0627 H   0  0  0  0  0  0  0  0  0  0  0  0
    4.3464   -0.4241   -1.4226 H   0  0  0  0  0  0  0  0  0  0  0  0
    4.3003   -0.9567    1.8508 H   0  0  0  0  0  0  0  0  0  0  0  0
    3.1477   -2.3053    1.7058 H   0  0  0  0  0  0  0  0  0  0  0  0
    4.5349   -2.1969    0.5958 H   0  0  0  0  0  0  0  0  0  0  0  0
   -2.0891   -2.7989   -2.0508 H   0  0  0  0  0  0  0  0  0  0  0  0
   -2.5479   -3.7091   -0.5916 H   0  0  0  0  0  0  0  0  0  0  0  0
   -3.8078   -3.0301   -1.6498 H   0  0  0  0  0  0  0  0  0  0  0  0
  1  2  1  0  0  0  0
  2  3  2  0  0  0  0
  3  4  1  0  0  0  0
  4  5  1  0  0  0  0
  5  6  1  0  0  0  0
  6  7  2  0  0  0  0
  7  8  1  0  0  0  0
  8  9  1  0  0  0  0
  9 10  2  0  0  0  0
 10 11  1  0  0  0  0
  2 11  1  0  0  0  0
 10 12  1  0  0  0  0
 12 13  1  0  0  0  0
 13 14  2  0  0  0  0
  9 14  1  0  0  0  0
 14 15  1  0  0  0  0
  6 16  1  0  0  0  0
 16 17  2  0  0  0  0
 16 18  1  0  0  0  0
 18 19  1  0  0  0  0
  1 20  1  0  0  0  0
  1 21  1  0  0  0  0
  1 22  1  0  0  0  0
  3 23  1  0  0  0  0
  4 24  1  0  0  0  0
  4 25  1  0  0  0  0
  5 26  1  0  0  0  0
  5 27  1  0  0  0  0
  7 28  1  0  0  0  0
  8 29  1  0  0  0  0
  8 30  1  0  0  0  0
 11 31  1  0  0  0  0
 11 32  1  0  0  0  0
 13 33  1  0  0  0  0
 15 34  1  0  0  0  0
 15 35  1  0  0  0  0
 15 36  1  0  0  0  0
 19 37  1  0  0  0  0
 19 38  1  0  0  0  0
 19 39  1  0  0  0  0
M  END
$$$$
