C30H48O6
APtclcactv06281817363D 0   0.00000     0.00000
 
 84 88  0  0  0  0  0  0  0  0999 V2000
    6.5202   -1.5039   -1.5538 C   0  0  0  0  0  0  0  0  0  0  0  0
    5.5686   -1.4218   -0.3436 C   0  0  0  0  0  0  0  0  0  0  0  0
    6.0934   -0.3509    0.5957 C   0  0  0  0  0  0  0  0  0  0  0  0
    5.0813    0.2157    1.5918 C   0  0  0  0  0  0  0  0  0  0  0  0
    3.8170    0.6181    0.8164 C   0  0  0  0  0  0  0  0  0  0  0  0
    2.7482    1.2649    1.6730 C   0  0  0  0  0  0  0  0  0  0  0  0
    1.5422    1.7037    0.8353 C   0  0  0  0  0  0  0  0  0  0  0  0
    1.1390    0.6905   -0.2159 C   0  0  0  0  0  0  0  0  0  0  0  0
    1.7950   -0.6334    0.0353 C   0  0  0  0  0  0  0  0  0  0  0  0
    1.1383   -1.7547    0.1786 C   0  0  0  0  0  0  0  0  0  0  0  0
   -0.3597   -1.8418    0.2177 C   0  0  0  0  0  0  0  0  0  0  0  0
   -0.8994   -0.4670    0.6137 C   0  0  0  0  0  0  0  0  0  0  0  0
   -0.3948    0.5762   -0.3641 C   0  0  0  0  0  0  0  0  0  0  0  0
   -1.0278    1.9331   -0.1004 C   0  0  0  0  0  0  0  0  0  0  0  0
   -2.5527    1.8908    0.0248 C   0  0  0  0  0  0  0  0  0  0  0  0
   -3.1132    0.4918   -0.1096 C   0  0  0  0  0  0  0  0  0  0  0  0
   -2.4153   -0.5017    0.7937 C   0  0  0  0  0  0  0  0  0  0  0  0
   -2.9222   -1.9194    0.4944 C   0  0  0  0  0  0  0  0  0  0  0  0
   -4.4392   -1.9790    0.6552 C   0  0  0  0  0  0  0  0  0  0  0  0
   -5.1124   -1.0133   -0.3124 C   0  0  0  0  0  0  0  0  0  0  0  0
   -4.6319    0.4269   -0.0978 C   0  0  0  0  0  0  0  0  0  0  0  0
   -5.2852    0.9962    1.1538 C   0  0  0  0  0  0  0  0  0  0  0  0
   -5.1577    1.2395   -1.3053 C   0  0  0  0  0  0  0  0  0  0  0  0
   -6.5847    1.1724   -1.3396 O   0  0  0  0  0  0  0  0  0  0  0  0
   -4.8308   -1.4072   -1.6603 O   0  0  0  0  0  0  0  0  0  0  0  0
   -4.8785   -3.3154    0.3597 O   0  0  0  0  0  0  0  0  0  0  0  0
   -2.6743   -0.2114    2.2829 C   0  0  0  0  0  0  0  0  0  0  0  0
   -2.9076    2.5016    1.2689 O   0  0  0  0  0  0  0  0  0  0  0  0
   -0.6152    0.1640   -1.8279 C   0  0  0  0  0  0  0  0  0  0  0  0
    3.2788   -0.6974    0.2537 C   0  0  0  0  0  0  0  0  0  0  0  0
    4.1530   -1.1725   -0.8784 C   0  0  0  0  0  0  0  0  0  0  0  0
    1.5818    1.1838   -1.6009 C   0  0  0  0  0  0  0  0  0  0  0  0
    4.2660    1.5891   -0.2420 C   0  0  0  0  0  0  0  0  0  0  0  0
    3.8194    2.7116   -0.2606 O   0  0  0  0  0  0  0  0  0  0  0  0
    5.1626    1.2081   -1.1654 O   0  0  0  0  0  0  0  0  0  0  0  0
    5.6045   -2.7828    0.3659 C   0  0  0  0  0  0  0  0  0  0  0  0
    7.5222   -1.7624   -1.2113 H   0  0  0  0  0  0  0  0  0  0  0  0
    6.1641   -2.2679   -2.2448 H   0  0  0  0  0  0  0  0  0  0  0  0
    6.5472   -0.5394   -2.0609 H   0  0  0  0  0  0  0  0  0  0  0  0
    6.9223   -0.7943    1.1813 H   0  0  0  0  0  0  0  0  0  0  0  0
    6.5523    0.4548    0.0166 H   0  0  0  0  0  0  0  0  0  0  0  0
    4.8274   -0.5255    2.3455 H   0  0  0  0  0  0  0  0  0  0  0  0
    5.4948    1.1050    2.0726 H   0  0  0  0  0  0  0  0  0  0  0  0
    2.4178    0.5639    2.4446 H   0  0  0  0  0  0  0  0  0  0  0  0
    3.1733    2.1457    2.1695 H   0  0  0  0  0  0  0  0  0  0  0  0
    0.7092    1.8410    1.5419 H   0  0  0  0  0  0  0  0  0  0  0  0
    1.7479    2.6672    0.3672 H   0  0  0  0  0  0  0  0  0  0  0  0
    1.7095   -2.6649    0.2775 H   0  0  0  0  0  0  0  0  0  0  0  0
   -0.7478   -2.1721   -0.7356 H   0  0  0  0  0  0  0  0  0  0  0  0
   -0.6379   -2.5708    0.9898 H   0  0  0  0  0  0  0  0  0  0  0  0
   -0.4691   -0.2256    1.6153 H   0  0  0  0  0  0  0  0  0  0  0  0
   -0.6404    2.3686    0.8248 H   0  0  0  0  0  0  0  0  0  0  0  0
   -0.7763    2.6208   -0.9178 H   0  0  0  0  0  0  0  0  0  0  0  0
   -2.9539    2.5322   -0.7784 H   0  0  0  0  0  0  0  0  0  0  0  0
   -2.8881    0.1657   -1.1636 H   0  0  0  0  0  0  0  0  0  0  0  0
   -2.6528   -2.1886   -0.5264 H   0  0  0  0  0  0  0  0  0  0  0  0
   -2.4605   -2.6174    1.1950 H   0  0  0  0  0  0  0  0  0  0  0  0
   -4.7252   -1.7531    1.6800 H   0  0  0  0  0  0  0  0  0  0  0  0
   -6.1965   -1.0472   -0.1576 H   0  0  0  0  0  0  0  0  0  0  0  0
   -5.1032    0.3274    1.9950 H   0  0  0  0  0  0  0  0  0  0  0  0
   -4.8614    1.9767    1.3709 H   0  0  0  0  0  0  0  0  0  0  0  0
   -6.3588    1.0922    0.9917 H   0  0  0  0  0  0  0  0  0  0  0  0
   -4.8451    2.2791   -1.2075 H   0  0  0  0  0  0  0  0  0  0  0  0
   -4.7521    0.8234   -2.2275 H   0  0  0  0  0  0  0  0  0  0  0  0
   -6.9839    1.6606   -2.0727 H   0  0  0  0  0  0  0  0  0  0  0  0
   -5.1416   -2.2952   -1.8836 H   0  0  0  0  0  0  0  0  0  0  0  0
   -5.8340   -3.4417    0.4380 H   0  0  0  0  0  0  0  0  0  0  0  0
   -3.7229   -0.4003    2.5129 H   0  0  0  0  0  0  0  0  0  0  0  0
   -2.0459   -0.8592    2.8940 H   0  0  0  0  0  0  0  0  0  0  0  0
   -2.4376    0.8310    2.4964 H   0  0  0  0  0  0  0  0  0  0  0  0
   -2.6254    3.4230    1.3493 H   0  0  0  0  0  0  0  0  0  0  0  0
   -1.6377   -0.1912   -1.9553 H   0  0  0  0  0  0  0  0  0  0  0  0
   -0.4455    1.0232   -2.4768 H   0  0  0  0  0  0  0  0  0  0  0  0
    0.0814   -0.6324   -2.0899 H   0  0  0  0  0  0  0  0  0  0  0  0
    3.4073   -1.4504    1.0827 H   0  0  0  0  0  0  0  0  0  0  0  0
    4.1751   -0.4792   -1.7125 H   0  0  0  0  0  0  0  0  0  0  0  0
    3.7583   -2.1275   -1.2645 H   0  0  0  0  0  0  0  0  0  0  0  0
    2.6305    1.4786   -1.5635 H   0  0  0  0  0  0  0  0  0  0  0  0
    1.4553    0.3829   -2.3294 H   0  0  0  0  0  0  0  0  0  0  0  0
    0.9738    2.0400   -1.8931 H   0  0  0  0  0  0  0  0  0  0  0  0
    5.4204    1.8667   -1.8250 H   0  0  0  0  0  0  0  0  0  0  0  0
    6.6218   -2.9941    0.6953 H   0  0  0  0  0  0  0  0  0  0  0  0
    4.9403   -2.7598    1.2298 H   0  0  0  0  0  0  0  0  0  0  0  0
    5.2770   -3.5608   -0.3237 H   0  0  0  0  0  0  0  0  0  0  0  0
  1  2  1  0  0  0  0
  2  3  1  0  0  0  0
  3  4  1  0  0  0  0
  4  5  1  0  0  0  0
  5  6  1  0  0  0  0
  6  7  1  0  0  0  0
  7  8  1  0  0  0  0
  8  9  1  0  0  0  0
  9 10  2  0  0  0  0
 10 11  1  0  0  0  0
 11 12  1  0  0  0  0
 12 13  1  0  0  0  0
  8 13  1  0  0  0  0
 13 14  1  0  0  0  0
 14 15  1  0  0  0  0
 15 16  1  0  0  0  0
 16 17  1  0  0  0  0
 12 17  1  0  0  0  0
 17 18  1  0  0  0  0
 18 19  1  0  0  0  0
 19 20  1  0  0  0  0
 20 21  1  0  0  0  0
 16 21  1  0  0  0  0
 21 22  1  0  0  0  0
 21 23  1  0  0  0  0
 23 24  1  0  0  0  0
 20 25  1  0  0  0  0
 19 26  1  0  0  0  0
 17 27  1  0  0  0  0
 15 28  1  0  0  0  0
 13 29  1  0  0  0  0
  9 30  1  0  0  0  0
  5 30  1  0  0  0  0
 30 31  1  0  0  0  0
  2 31  1  0  0  0  0
  8 32  1  0  0  0  0
  5 33  1  0  0  0  0
 33 34  2  0  0  0  0
 33 35  1  0  0  0  0
  2 36  1  0  0  0  0
  1 37  1  0  0  0  0
  1 38  1  0  0  0  0
  1 39  1  0  0  0  0
  3 40  1  0  0  0  0
  3 41  1  0  0  0  0
  4 42  1  0  0  0  0
  4 43  1  0  0  0  0
  6 44  1  0  0  0  0
  6 45  1  0  0  0  0
  7 46  1  0  0  0  0
  7 47  1  0  0  0  0
 10 48  1  0  0  0  0
 11 49  1  0  0  0  0
 11 50  1  0  0  0  0
 12 51  1  0  0  0  0
 14 52  1  0  0  0  0
 14 53  1  0  0  0  0
 15 54  1  0  0  0  0
 16 55  1  0  0  0  0
 18 56  1  0  0  0  0
 18 57  1  0  0  0  0
 19 58  1  0  0  0  0
 20 59  1  0  0  0  0
 22 60  1  0  0  0  0
 22 61  1  0  0  0  0
 22 62  1  0  0  0  0
 23 63  1  0  0  0  0
 23 64  1  0  0  0  0
 24 65  1  0  0  0  0
 25 66  1  0  0  0  0
 26 67  1  0  0  0  0
 27 68  1  0  0  0  0
 27 69  1  0  0  0  0
 27 70  1  0  0  0  0
 28 71  1  0  0  0  0
 29 72  1  0  0  0  0
 29 73  1  0  0  0  0
 29 74  1  0  0  0  0
 30 75  1  0  0  0  0
 31 76  1  0  0  0  0
 31 77  1  0  0  0  0
 32 78  1  0  0  0  0
 32 79  1  0  0  0  0
 32 80  1  0  0  0  0
 35 81  1  0  0  0  0
 36 82  1  0  0  0  0
 36 83  1  0  0  0  0
 36 84  1  0  0  0  0
M  END
$$$$
