C12H12O4
APtclcactv06281817363D 0   0.00000     0.00000
 
 28 29  0  0  0  0  0  0  0  0999 V2000
    3.8097   -1.9519    0.0082 C   0  0  0  0  0  0  0  0  0  0  0  0
    2.6527   -0.9864    0.0027 C   0  0  0  0  0  0  0  0  0  0  0  0
    2.9151    0.3317   -0.0043 C   0  0  0  0  0  0  0  0  0  0  0  0
    1.8401    1.2621   -0.0097 C   0  0  0  0  0  0  0  0  0  0  0  0
    2.0412    2.4650   -0.0165 O   0  0  0  0  0  0  0  0  0  0  0  0
    0.4748    0.7133   -0.0071 C   0  0  0  0  0  0  0  0  0  0  0  0
    0.3178   -0.6840    0.0003 C   0  0  0  0  0  0  0  0  0  0  0  0
    1.4085   -1.4782   -0.0005 O   0  0  0  0  0  0  0  0  0  0  0  0
   -0.9582   -1.2259    0.0029 C   0  0  0  0  0  0  0  0  0  0  0  0
   -2.0655   -0.3923   -0.0023 C   0  0  0  0  0  0  0  0  0  0  0  0
   -1.9129    0.9904   -0.0097 C   0  0  0  0  0  0  0  0  0  0  0  0
   -0.6489    1.5498   -0.0115 C   0  0  0  0  0  0  0  0  0  0  0  0
   -0.4977    2.8983   -0.0187 O   0  0  0  0  0  0  0  0  0  0  0  0
   -3.3117   -0.9306   -0.0006 O   0  0  0  0  0  0  0  0  0  0  0  0
   -4.4122   -0.0190   -0.0062 C   0  0  0  0  0  0  0  0  0  0  0  0
   -1.1414   -2.7217    0.0109 C   0  0  0  0  0  0  0  0  0  0  0  0
    4.0883   -2.1792    1.0372 H   0  0  0  0  0  0  0  0  0  0  0  0
    3.5186   -2.8708   -0.5008 H   0  0  0  0  0  0  0  0  0  0  0  0
    4.6591   -1.5042   -0.5077 H   0  0  0  0  0  0  0  0  0  0  0  0
    3.9367    0.6822   -0.0055 H   0  0  0  0  0  0  0  0  0  0  0  0
   -2.7843    1.6284   -0.0137 H   0  0  0  0  0  0  0  0  0  0  0  0
   -0.4548    3.2940    0.8625 H   0  0  0  0  0  0  0  0  0  0  0  0
   -4.3650    0.6130    0.8806 H   0  0  0  0  0  0  0  0  0  0  0  0
   -4.3634    0.6039   -0.8994 H   0  0  0  0  0  0  0  0  0  0  0  0
   -5.3475   -0.5787   -0.0042 H   0  0  0  0  0  0  0  0  0  0  0  0
   -1.1859   -3.0768    1.0405 H   0  0  0  0  0  0  0  0  0  0  0  0
   -2.0688   -2.9769   -0.5018 H   0  0  0  0  0  0  0  0  0  0  0  0
   -0.3021   -3.1932   -0.5002 H   0  0  0  0  0  0  0  0  0  0  0  0
  1  2  1  0  0  0  0
  2  3  2  0  0  0  0
  3  4  1  0  0  0  0
  4  5  2  0  0  0  0
  4  6  1  0  0  0  0
  6  7  2  0  0  0  0
  7  8  1  0  0  0  0
  2  8  1  0  0  0  0
  7  9  1  0  0  0  0
  9 10  2  0  0  0  0
 10 11  1  0  0  0  0
 11 12  2  0  0  0  0
  6 12  1  0  0  0  0
 12 13  1  0  0  0  0
 10 14  1  0  0  0  0
 14 15  1  0  0  0  0
  9 16  1  0  0  0  0
  1 17  1  0  0  0  0
  1 18  1  0  0  0  0
  1 19  1  0  0  0  0
  3 20  1  0  0  0  0
 11 21  1  0  0  0  0
 13 22  1  0  0  0  0
 15 23  1  0  0  0  0
 15 24  1  0  0  0  0
 15 25  1  0  0  0  0
 16 26  1  0  0  0  0
 16 27  1  0  0  0  0
 16 28  1  0  0  0  0
M  END
$$$$
