C20H26O7
APtclcactv06281817363D 0   0.00000     0.00000
 
 53 56  0  0  0  0  0  0  0  0999 V2000
    2.1879    0.1770   -1.2831 C   0  0  0  0  0  0  0  0  0  0  0  0
    2.4517    0.1323    0.2233 C   0  0  0  0  0  0  0  0  0  0  0  0
    3.2059    1.3992    0.6605 C   0  0  0  0  0  0  0  0  0  0  0  0
    2.3842    2.6574    0.3976 C   0  0  0  0  0  0  0  0  0  0  0  0
    0.9943    2.5716    1.0488 C   0  0  0  0  0  0  0  0  0  0  0  0
    0.3085    1.3407    0.4875 C   0  0  0  0  0  0  0  0  0  0  0  0
    1.1377    0.1100    0.9764 C   0  0  0  0  0  0  0  0  0  0  0  0
    0.2184   -1.0871    0.7081 C   0  0  0  0  0  0  0  0  0  0  0  0
   -1.1908   -0.5001    0.6824 C   0  0  0  0  0  0  0  0  0  0  0  0
   -1.0538    0.9898    1.0478 C   0  0  0  0  0  0  0  0  0  0  0  0
   -2.2211    1.8450    0.7347 C   0  0  0  0  0  0  0  0  0  0  0  0
   -3.2232    1.3449   -0.2805 C   0  0  0  0  0  0  0  0  0  0  0  0
   -3.2555   -0.1752   -0.4091 C   0  0  0  0  0  0  0  0  0  0  0  0
   -1.7974   -0.6076   -0.7342 C   0  0  0  0  0  0  0  0  0  0  0  0
   -3.5620   -0.8306    0.9246 C   0  0  0  0  0  0  0  0  0  0  0  0
   -4.7520   -1.0808    1.4118 C   0  0  0  0  0  0  0  0  0  0  0  0
   -2.2268   -1.1439    1.5927 C   0  0  0  0  0  0  0  0  0  0  0  0
   -4.1637   -0.5905   -1.4312 O   0  0  0  0  0  0  0  0  0  0  0  0
    0.5493   -1.7148   -0.6214 C   0  0  0  0  0  0  0  0  0  0  0  0
   -0.2498   -1.6694   -1.5265 O   0  0  0  0  0  0  0  0  0  0  0  0
    1.7319   -2.3242   -0.8002 O   0  0  0  0  0  0  0  0  0  0  0  0
    0.2797    1.3957   -1.0183 C   0  0  0  0  0  0  0  0  0  0  0  0
    0.3730    2.4582   -1.5859 O   0  0  0  0  0  0  0  0  0  0  0  0
    0.1504    0.2643   -1.7288 O   0  0  0  0  0  0  0  0  0  0  0  0
    3.2621   -1.0911    0.5659 C   0  0  0  0  0  0  0  0  0  0  0  0
    2.8172   -1.9166    1.3278 O   0  0  0  0  0  0  0  0  0  0  0  0
    4.4782   -1.2638    0.0247 O   0  0  0  0  0  0  0  0  0  0  0  0
    3.1124   -0.0348   -1.8203 H   0  0  0  0  0  0  0  0  0  0  0  0
    1.4375   -0.5697   -1.5429 H   0  0  0  0  0  0  0  0  0  0  0  0
    1.8259    1.1673   -1.5594 H   0  0  0  0  0  0  0  0  0  0  0  0
    3.4254    1.3333    1.7261 H   0  0  0  0  0  0  0  0  0  0  0  0
    4.1434    1.4642    0.1082 H   0  0  0  0  0  0  0  0  0  0  0  0
    2.9142    3.5196    0.8022 H   0  0  0  0  0  0  0  0  0  0  0  0
    2.2658    2.7867   -0.6782 H   0  0  0  0  0  0  0  0  0  0  0  0
    1.0965    2.4785    2.1300 H   0  0  0  0  0  0  0  0  0  0  0  0
    0.4151    3.4623    0.8054 H   0  0  0  0  0  0  0  0  0  0  0  0
    1.3256    0.1948    2.0467 H   0  0  0  0  0  0  0  0  0  0  0  0
    0.3089   -1.8217    1.5083 H   0  0  0  0  0  0  0  0  0  0  0  0
   -0.9476    1.0186    2.1322 H   0  0  0  0  0  0  0  0  0  0  0  0
   -2.7568    2.0280    1.6662 H   0  0  0  0  0  0  0  0  0  0  0  0
   -1.8433    2.8046    0.3819 H   0  0  0  0  0  0  0  0  0  0  0  0
   -4.2153    1.6916    0.0087 H   0  0  0  0  0  0  0  0  0  0  0  0
   -2.9774    1.7720   -1.2528 H   0  0  0  0  0  0  0  0  0  0  0  0
   -1.3202    0.0861   -1.4264 H   0  0  0  0  0  0  0  0  0  0  0  0
   -1.7585   -1.6306   -1.1084 H   0  0  0  0  0  0  0  0  0  0  0  0
   -5.6335   -0.8138    0.8479 H   0  0  0  0  0  0  0  0  0  0  0  0
   -4.8515   -1.5541    2.3775 H   0  0  0  0  0  0  0  0  0  0  0  0
   -2.0707   -2.2214    1.6456 H   0  0  0  0  0  0  0  0  0  0  0  0
   -2.1861   -0.7026    2.5886 H   0  0  0  0  0  0  0  0  0  0  0  0
   -5.0762   -0.3050   -1.2864 H   0  0  0  0  0  0  0  0  0  0  0  0
    1.8988   -2.7120   -1.6701 H   0  0  0  0  0  0  0  0  0  0  0  0
    0.0622    0.3556   -2.6875 H   0  0  0  0  0  0  0  0  0  0  0  0
    4.9603   -2.0640    0.2744 H   0  0  0  0  0  0  0  0  0  0  0  0
  1  2  1  0  0  0  0
  2  3  1  0  0  0  0
  3  4  1  0  0  0  0
  4  5  1  0  0  0  0
  5  6  1  0  0  0  0
  6  7  1  0  0  0  0
  2  7  1  0  0  0  0
  7  8  1  0  0  0  0
  8  9  1  0  0  0  0
  9 10  1  0  0  0  0
  6 10  1  0  0  0  0
 10 11  1  0  0  0  0
 11 12  1  0  0  0  0
 12 13  1  0  0  0  0
 13 14  1  0  0  0  0
  9 14  1  0  0  0  0
 13 15  1  0  0  0  0
 15 16  2  0  0  0  0
 15 17  1  0  0  0  0
  9 17  1  0  0  0  0
 13 18  1  0  0  0  0
  8 19  1  0  0  0  0
 19 20  2  0  0  0  0
 19 21  1  0  0  0  0
  6 22  1  0  0  0  0
 22 23  2  0  0  0  0
 22 24  1  0  0  0  0
  2 25  1  0  0  0  0
 25 26  2  0  0  0  0
 25 27  1  0  0  0  0
  1 28  1  0  0  0  0
  1 29  1  0  0  0  0
  1 30  1  0  0  0  0
  3 31  1  0  0  0  0
  3 32  1  0  0  0  0
  4 33  1  0  0  0  0
  4 34  1  0  0  0  0
  5 35  1  0  0  0  0
  5 36  1  0  0  0  0
  7 37  1  0  0  0  0
  8 38  1  0  0  0  0
 10 39  1  0  0  0  0
 11 40  1  0  0  0  0
 11 41  1  0  0  0  0
 12 42  1  0  0  0  0
 12 43  1  0  0  0  0
 14 44  1  0  0  0  0
 14 45  1  0  0  0  0
 16 46  1  0  0  0  0
 16 47  1  0  0  0  0
 17 48  1  0  0  0  0
 17 49  1  0  0  0  0
 18 50  1  0  0  0  0
 21 51  1  0  0  0  0
 24 52  1  0  0  0  0
 27 53  1  0  0  0  0
M  END
$$$$
