C30H50O2
APtclcactv06281817363D 0   0.00000     0.00000
 
 82 86  0  0  0  0  0  0  0  0999 V2000
    5.7275   -1.2767   -1.5081 C   0  0  0  0  0  0  0  0  0  0  0  0
    5.2041   -1.4588   -0.0820 C   0  0  0  0  0  0  0  0  0  0  0  0
    5.6399   -0.2845    0.7879 C   0  0  0  0  0  0  0  0  0  0  0  0
    4.9306    1.0081    0.3988 C   0  0  0  0  0  0  0  0  0  0  0  0
    3.4131    0.8284    0.4591 C   0  0  0  0  0  0  0  0  0  0  0  0
    3.0156   -0.2980   -0.4982 C   0  0  0  0  0  0  0  0  0  0  0  0
    3.6825   -1.6041   -0.0971 C   0  0  0  0  0  0  0  0  0  0  0  0
    1.5014   -0.4215   -0.4491 C   0  0  0  0  0  0  0  0  0  0  0  0
    0.9699   -1.5639   -0.1339 C   0  0  0  0  0  0  0  0  0  0  0  0
   -0.5246   -1.7520   -0.0186 C   0  0  0  0  0  0  0  0  0  0  0  0
   -1.1136   -0.3916    0.3500 C   0  0  0  0  0  0  0  0  0  0  0  0
   -2.5843   -0.4798    0.7409 C   0  0  0  0  0  0  0  0  0  0  0  0
   -3.0649   -1.9303    0.6401 C   0  0  0  0  0  0  0  0  0  0  0  0
   -4.5339   -2.0170    1.0528 C   0  0  0  0  0  0  0  0  0  0  0  0
   -5.3966   -1.1644    0.1320 C   0  0  0  0  0  0  0  0  0  0  0  0
   -4.9440    0.2965    0.1091 C   0  0  0  0  0  0  0  0  0  0  0  0
   -3.4469    0.4058   -0.1384 C   0  0  0  0  0  0  0  0  0  0  0  0
   -2.9538    1.8415   -0.1195 C   0  0  0  0  0  0  0  0  0  0  0  0
   -1.4666    1.9602   -0.4390 C   0  0  0  0  0  0  0  0  0  0  0  0
   -0.7893    0.6284   -0.7207 C   0  0  0  0  0  0  0  0  0  0  0  0
    0.7295    0.8215   -0.7920 C   0  0  0  0  0  0  0  0  0  0  0  0
    1.1988    1.9867    0.0645 C   0  0  0  0  0  0  0  0  0  0  0  0
    2.7204    2.1245    0.0388 C   0  0  0  0  0  0  0  0  0  0  0  0
    3.1089    3.1691    0.9415 O   0  0  0  0  0  0  0  0  0  0  0  0
    1.0311    1.1590   -2.2570 C   0  0  0  0  0  0  0  0  0  0  0  0
   -1.1743    0.1355   -2.1199 C   0  0  0  0  0  0  0  0  0  0  0  0
   -5.6678    0.9542   -1.0927 C   0  0  0  0  0  0  0  0  0  0  0  0
   -5.4147    1.0194    1.3649 C   0  0  0  0  0  0  0  0  0  0  0  0
   -5.3466   -1.6928   -1.1979 O   0  0  0  0  0  0  0  0  0  0  0  0
   -2.6558   -0.0496    2.2179 C   0  0  0  0  0  0  0  0  0  0  0  0
    2.9983    0.4863    1.8903 C   0  0  0  0  0  0  0  0  0  0  0  0
    5.8114   -2.7476    0.4958 C   0  0  0  0  0  0  0  0  0  0  0  0
    6.8163   -1.2273   -1.4920 H   0  0  0  0  0  0  0  0  0  0  0  0
    5.4111   -2.1202   -2.1217 H   0  0  0  0  0  0  0  0  0  0  0  0
    5.3280   -0.3530   -1.9266 H   0  0  0  0  0  0  0  0  0  0  0  0
    5.4630   -0.5178    1.8377 H   0  0  0  0  0  0  0  0  0  0  0  0
    6.7228   -0.1424    0.6614 H   0  0  0  0  0  0  0  0  0  0  0  0
    5.2218    1.8027    1.0936 H   0  0  0  0  0  0  0  0  0  0  0  0
    5.2191    1.3097   -0.6089 H   0  0  0  0  0  0  0  0  0  0  0  0
    3.3187   -0.0294   -1.5147 H   0  0  0  0  0  0  0  0  0  0  0  0
    3.4143   -2.3801   -0.8277 H   0  0  0  0  0  0  0  0  0  0  0  0
    3.3352   -1.9353    0.8811 H   0  0  0  0  0  0  0  0  0  0  0  0
    1.6023   -2.4178    0.0536 H   0  0  0  0  0  0  0  0  0  0  0  0
   -0.9301   -2.1429   -0.9406 H   0  0  0  0  0  0  0  0  0  0  0  0
   -0.7138   -2.4664    0.7906 H   0  0  0  0  0  0  0  0  0  0  0  0
   -0.5730   -0.0610    1.2735 H   0  0  0  0  0  0  0  0  0  0  0  0
   -2.9530   -2.2810   -0.3854 H   0  0  0  0  0  0  0  0  0  0  0  0
   -2.4710   -2.5568    1.3072 H   0  0  0  0  0  0  0  0  0  0  0  0
   -4.8558   -3.0654    0.9624 H   0  0  0  0  0  0  0  0  0  0  0  0
   -4.6671   -1.7208    2.0888 H   0  0  0  0  0  0  0  0  0  0  0  0
   -6.4365   -1.2028    0.4782 H   0  0  0  0  0  0  0  0  0  0  0  0
   -3.3463    0.0301   -1.1844 H   0  0  0  0  0  0  0  0  0  0  0  0
   -3.5057    2.4383   -0.8572 H   0  0  0  0  0  0  0  0  0  0  0  0
   -3.1315    2.2970    0.8605 H   0  0  0  0  0  0  0  0  0  0  0  0
   -1.3483    2.6189   -1.3081 H   0  0  0  0  0  0  0  0  0  0  0  0
   -0.9744    2.4475    0.4125 H   0  0  0  0  0  0  0  0  0  0  0  0
    0.7636    2.9163   -0.3290 H   0  0  0  0  0  0  0  0  0  0  0  0
    0.8471    1.8656    1.0891 H   0  0  0  0  0  0  0  0  0  0  0  0
    3.0551    2.3979   -0.9633 H   0  0  0  0  0  0  0  0  0  0  0  0
    2.7357    4.0346    0.7254 H   0  0  0  0  0  0  0  0  0  0  0  0
    0.3907    1.9797   -2.5801 H   0  0  0  0  0  0  0  0  0  0  0  0
    2.0761    1.4535   -2.3543 H   0  0  0  0  0  0  0  0  0  0  0  0
    0.8410    0.2836   -2.8781 H   0  0  0  0  0  0  0  0  0  0  0  0
   -1.0375    0.9425   -2.8398 H   0  0  0  0  0  0  0  0  0  0  0  0
   -0.5410   -0.7079   -2.3950 H   0  0  0  0  0  0  0  0  0  0  0  0
   -2.2180   -0.1785   -2.1201 H   0  0  0  0  0  0  0  0  0  0  0  0
   -6.7461    0.8799   -0.9523 H   0  0  0  0  0  0  0  0  0  0  0  0
   -5.3814    2.0038   -1.1592 H   0  0  0  0  0  0  0  0  0  0  0  0
   -5.3849    0.4415   -2.0121 H   0  0  0  0  0  0  0  0  0  0  0  0
   -5.1144    0.4512    2.2453 H   0  0  0  0  0  0  0  0  0  0  0  0
   -4.9659    2.0120    1.4025 H   0  0  0  0  0  0  0  0  0  0  0  0
   -6.5006    1.1121    1.3453 H   0  0  0  0  0  0  0  0  0  0  0  0
   -5.6653   -2.6028   -1.2717 H   0  0  0  0  0  0  0  0  0  0  0  0
   -2.4365    1.0151    2.2972 H   0  0  0  0  0  0  0  0  0  0  0  0
   -3.6560   -0.2444    2.6050 H   0  0  0  0  0  0  0  0  0  0  0  0
   -1.9256   -0.6152    2.7968 H   0  0  0  0  0  0  0  0  0  0  0  0
    3.2958    1.2949    2.5580 H   0  0  0  0  0  0  0  0  0  0  0  0
    1.9168    0.3580    1.9343 H   0  0  0  0  0  0  0  0  0  0  0  0
    3.4867   -0.4380    2.1990 H   0  0  0  0  0  0  0  0  0  0  0  0
    6.8982   -2.6649    0.5048 H   0  0  0  0  0  0  0  0  0  0  0  0
    5.4498   -2.8952    1.5134 H   0  0  0  0  0  0  0  0  0  0  0  0
    5.5167   -3.5965   -0.1212 H   0  0  0  0  0  0  0  0  0  0  0  0
  1  2  1  0  0  0  0
  2  3  1  0  0  0  0
  3  4  1  0  0  0  0
  4  5  1  0  0  0  0
  5  6  1  0  0  0  0
  6  7  1  0  0  0  0
  2  7  1  0  0  0  0
  6  8  1  0  0  0  0
  8  9  2  0  0  0  0
  9 10  1  0  0  0  0
 10 11  1  0  0  0  0
 11 12  1  0  0  0  0
 12 13  1  0  0  0  0
 13 14  1  0  0  0  0
 14 15  1  0  0  0  0
 15 16  1  0  0  0  0
 16 17  1  0  0  0  0
 12 17  1  0  0  0  0
 17 18  1  0  0  0  0
 18 19  1  0  0  0  0
 19 20  1  0  0  0  0
 11 20  1  0  0  0  0
 20 21  1  0  0  0  0
  8 21  1  0  0  0  0
 21 22  1  0  0  0  0
 22 23  1  0  0  0  0
  5 23  1  0  0  0  0
 23 24  1  0  0  0  0
 21 25  1  0  0  0  0
 20 26  1  0  0  0  0
 16 27  1  0  0  0  0
 16 28  1  0  0  0  0
 15 29  1  0  0  0  0
 12 30  1  0  0  0  0
  5 31  1  0  0  0  0
  2 32  1  0  0  0  0
  1 33  1  0  0  0  0
  1 34  1  0  0  0  0
  1 35  1  0  0  0  0
  3 36  1  0  0  0  0
  3 37  1  0  0  0  0
  4 38  1  0  0  0  0
  4 39  1  0  0  0  0
  6 40  1  0  0  0  0
  7 41  1  0  0  0  0
  7 42  1  0  0  0  0
  9 43  1  0  0  0  0
 10 44  1  0  0  0  0
 10 45  1  0  0  0  0
 11 46  1  0  0  0  0
 13 47  1  0  0  0  0
 13 48  1  0  0  0  0
 14 49  1  0  0  0  0
 14 50  1  0  0  0  0
 15 51  1  0  0  0  0
 17 52  1  0  0  0  0
 18 53  1  0  0  0  0
 18 54  1  0  0  0  0
 19 55  1  0  0  0  0
 19 56  1  0  0  0  0
 22 57  1  0  0  0  0
 22 58  1  0  0  0  0
 23 59  1  0  0  0  0
 24 60  1  0  0  0  0
 25 61  1  0  0  0  0
 25 62  1  0  0  0  0
 25 63  1  0  0  0  0
 26 64  1  0  0  0  0
 26 65  1  0  0  0  0
 26 66  1  0  0  0  0
 27 67  1  0  0  0  0
 27 68  1  0  0  0  0
 27 69  1  0  0  0  0
 28 70  1  0  0  0  0
 28 71  1  0  0  0  0
 28 72  1  0  0  0  0
 29 73  1  0  0  0  0
 30 74  1  0  0  0  0
 30 75  1  0  0  0  0
 30 76  1  0  0  0  0
 31 77  1  0  0  0  0
 31 78  1  0  0  0  0
 31 79  1  0  0  0  0
 32 80  1  0  0  0  0
 32 81  1  0  0  0  0
 32 82  1  0  0  0  0
M  END
$$$$
