C27H30O15
APtclcactv06281817373D 0   0.00000     0.00000
 
 72 76  0  0  0  0  0  0  0  0999 V2000
   -6.2992    2.5401    2.0815 C   0  0  0  0  0  0  0  0  0  0  0  0
   -5.8804    2.5928    0.6109 C   0  0  0  0  0  0  0  0  0  0  0  0
   -5.1247    3.8967    0.3416 C   0  0  0  0  0  0  0  0  0  0  0  0
   -3.8491    3.9228    1.1894 C   0  0  0  0  0  0  0  0  0  0  0  0
   -3.0074    2.6851    0.8637 C   0  0  0  0  0  0  0  0  0  0  0  0
   -3.8450    1.4280    1.1128 C   0  0  0  0  0  0  0  0  0  0  0  0
   -5.0308    1.4819    0.3172 O   0  0  0  0  0  0  0  0  0  0  0  0
   -3.0851    0.2710    0.7578 O   0  0  0  0  0  0  0  0  0  0  0  0
   -3.7348   -0.9658    1.0583 C   0  0  0  0  0  0  0  0  0  0  0  0
   -2.8351   -2.1297    0.6382 C   0  0  0  0  0  0  0  0  0  0  0  0
   -3.4741   -3.4515    1.0723 C   0  0  0  0  0  0  0  0  0  0  0  0
   -2.5980   -4.6140    0.5957 C   0  0  0  0  0  0  0  0  0  0  0  0
   -2.4287   -4.5217   -0.9239 C   0  0  0  0  0  0  0  0  0  0  0  0
   -1.8300   -3.1586   -1.2809 C   0  0  0  0  0  0  0  0  0  0  0  0
   -2.6779   -2.1221   -0.7821 O   0  0  0  0  0  0  0  0  0  0  0  0
   -0.5336   -3.0385   -0.6921 O   0  0  0  0  0  0  0  0  0  0  0  0
    0.1819   -1.9263   -0.9985 C   0  0  0  0  0  0  0  0  0  0  0  0
   -0.3609   -0.9718   -1.8514 C   0  0  0  0  0  0  0  0  0  0  0  0
    0.3591    0.1651   -2.1698 C   0  0  0  0  0  0  0  0  0  0  0  0
    1.6370    0.3467   -1.6270 C   0  0  0  0  0  0  0  0  0  0  0  0
    2.1833   -0.6199   -0.7648 C   0  0  0  0  0  0  0  0  0  0  0  0
    1.4445   -1.7503   -0.4532 C   0  0  0  0  0  0  0  0  0  0  0  0
    3.4167   -0.4363   -0.2476 O   0  0  0  0  0  0  0  0  0  0  0  0
    4.1568    0.6485   -0.5263 C   0  0  0  0  0  0  0  0  0  0  0  0
    3.7197    1.6404   -1.3481 C   0  0  0  0  0  0  0  0  0  0  0  0
    2.4382    1.5421   -1.9399 C   0  0  0  0  0  0  0  0  0  0  0  0
    2.0141    2.4132   -2.6821 O   0  0  0  0  0  0  0  0  0  0  0  0
    5.4950    0.7698    0.0824 C   0  0  0  0  0  0  0  0  0  0  0  0
    5.9717   -0.2328    0.9315 C   0  0  0  0  0  0  0  0  0  0  0  0
    7.2260   -0.1146    1.4986 C   0  0  0  0  0  0  0  0  0  0  0  0
    8.0126    1.0029    1.2239 C   0  0  0  0  0  0  0  0  0  0  0  0
    7.5392    1.9987    0.3807 C   0  0  0  0  0  0  0  0  0  0  0  0
    6.2914    1.8846   -0.1931 C   0  0  0  0  0  0  0  0  0  0  0  0
    9.2453    1.1179    1.7832 O   0  0  0  0  0  0  0  0  0  0  0  0
    7.6930   -1.0883    2.3253 O   0  0  0  0  0  0  0  0  0  0  0  0
   -0.1687    1.0977   -3.0026 O   0  0  0  0  0  0  0  0  0  0  0  0
   -1.5538   -5.5593   -1.3709 O   0  0  0  0  0  0  0  0  0  0  0  0
   -1.3173   -4.5368    1.2249 O   0  0  0  0  0  0  0  0  0  0  0  0
   -3.5794   -3.4857    2.4970 O   0  0  0  0  0  0  0  0  0  0  0  0
   -2.6061    2.7276   -0.5071 O   0  0  0  0  0  0  0  0  0  0  0  0
   -3.1002    5.1024    0.8900 O   0  0  0  0  0  0  0  0  0  0  0  0
   -4.7794    3.9713   -1.0430 O   0  0  0  0  0  0  0  0  0  0  0  0
   -6.9464    3.3881    2.3056 H   0  0  0  0  0  0  0  0  0  0  0  0
   -6.8373    1.6118    2.2731 H   0  0  0  0  0  0  0  0  0  0  0  0
   -5.4122    2.5831    2.7136 H   0  0  0  0  0  0  0  0  0  0  0  0
   -6.7673    2.5495   -0.0214 H   0  0  0  0  0  0  0  0  0  0  0  0
   -5.7557    4.7449    0.6069 H   0  0  0  0  0  0  0  0  0  0  0  0
   -4.1138    3.9158    2.2467 H   0  0  0  0  0  0  0  0  0  0  0  0
   -2.1243    2.6668    1.5024 H   0  0  0  0  0  0  0  0  0  0  0  0
   -4.1167    1.3752    2.1671 H   0  0  0  0  0  0  0  0  0  0  0  0
   -3.9278   -1.0239    2.1295 H   0  0  0  0  0  0  0  0  0  0  0  0
   -4.6785   -1.0217    0.5156 H   0  0  0  0  0  0  0  0  0  0  0  0
   -1.8594   -2.0246    1.1127 H   0  0  0  0  0  0  0  0  0  0  0  0
   -4.4668   -3.5385    0.6306 H   0  0  0  0  0  0  0  0  0  0  0  0
   -3.0755   -5.5596    0.8525 H   0  0  0  0  0  0  0  0  0  0  0  0
   -3.4002   -4.6303   -1.4060 H   0  0  0  0  0  0  0  0  0  0  0  0
   -1.7470   -3.0705   -2.3642 H   0  0  0  0  0  0  0  0  0  0  0  0
   -1.3470   -1.1189   -2.2666 H   0  0  0  0  0  0  0  0  0  0  0  0
    1.8558   -2.4984    0.2083 H   0  0  0  0  0  0  0  0  0  0  0  0
    4.3460    2.4976   -1.5465 H   0  0  0  0  0  0  0  0  0  0  0  0
    5.3610   -1.0978    1.1441 H   0  0  0  0  0  0  0  0  0  0  0  0
    8.1517    2.8631    0.1707 H   0  0  0  0  0  0  0  0  0  0  0  0
    5.9255    2.6608   -0.8489 H   0  0  0  0  0  0  0  0  0  0  0  0
    9.9555    0.7322    1.2524 H   0  0  0  0  0  0  0  0  0  0  0  0
    8.1809   -1.7890    1.8714 H   0  0  0  0  0  0  0  0  0  0  0  0
   -0.6758    1.7863   -2.5510 H   0  0  0  0  0  0  0  0  0  0  0  0
   -1.4011   -5.5610   -2.3257 H   0  0  0  0  0  0  0  0  0  0  0  0
   -0.7097   -5.2439    0.9683 H   0  0  0  0  0  0  0  0  0  0  0  0
   -3.9765   -4.2969    2.8427 H   0  0  0  0  0  0  0  0  0  0  0  0
   -2.0686    1.9727   -0.7832 H   0  0  0  0  0  0  0  0  0  0  0  0
   -2.2779    5.1842    1.3921 H   0  0  0  0  0  0  0  0  0  0  0  0
   -5.5403    3.9547   -1.6396 H   0  0  0  0  0  0  0  0  0  0  0  0
  1  2  1  0  0  0  0
  2  3  1  0  0  0  0
  3  4  1  0  0  0  0
  4  5  1  0  0  0  0
  5  6  1  0  0  0  0
  6  7  1  0  0  0  0
  2  7  1  0  0  0  0
  6  8  1  0  0  0  0
  8  9  1  0  0  0  0
  9 10  1  0  0  0  0
 10 11  1  0  0  0  0
 11 12  1  0  0  0  0
 12 13  1  0  0  0  0
 13 14  1  0  0  0  0
 14 15  1  0  0  0  0
 10 15  1  0  0  0  0
 14 16  1  0  0  0  0
 16 17  1  0  0  0  0
 17 18  2  0  0  0  0
 18 19  1  0  0  0  0
 19 20  2  0  0  0  0
 20 21  1  0  0  0  0
 21 22  2  0  0  0  0
 17 22  1  0  0  0  0
 21 23  1  0  0  0  0
 23 24  1  0  0  0  0
 24 25  2  0  0  0  0
 25 26  1  0  0  0  0
 20 26  1  0  0  0  0
 26 27  2  0  0  0  0
 24 28  1  0  0  0  0
 28 29  2  0  0  0  0
 29 30  1  0  0  0  0
 30 31  2  0  0  0  0
 31 32  1  0  0  0  0
 32 33  2  0  0  0  0
 28 33  1  0  0  0  0
 31 34  1  0  0  0  0
 30 35  1  0  0  0  0
 19 36  1  0  0  0  0
 13 37  1  0  0  0  0
 12 38  1  0  0  0  0
 11 39  1  0  0  0  0
  5 40  1  0  0  0  0
  4 41  1  0  0  0  0
  3 42  1  0  0  0  0
  1 43  1  0  0  0  0
  1 44  1  0  0  0  0
  1 45  1  0  0  0  0
  2 46  1  0  0  0  0
  3 47  1  0  0  0  0
  4 48  1  0  0  0  0
  5 49  1  0  0  0  0
  6 50  1  0  0  0  0
  9 51  1  0  0  0  0
  9 52  1  0  0  0  0
 10 53  1  0  0  0  0
 11 54  1  0  0  0  0
 12 55  1  0  0  0  0
 13 56  1  0  0  0  0
 14 57  1  0  0  0  0
 18 58  1  0  0  0  0
 22 59  1  0  0  0  0
 25 60  1  0  0  0  0
 29 61  1  0  0  0  0
 32 62  1  0  0  0  0
 33 63  1  0  0  0  0
 34 64  1  0  0  0  0
 35 65  1  0  0  0  0
 36 66  1  0  0  0  0
 37 67  1  0  0  0  0
 38 68  1  0  0  0  0
 39 69  1  0  0  0  0
 40 70  1  0  0  0  0
 41 71  1  0  0  0  0
 42 72  1  0  0  0  0
M  END
$$$$
