C20H26O4
APtclcactv06281817363D 0   0.00000     0.00000
 
 50 54  0  0  0  0  0  0  0  0999 V2000
    2.6607    1.8073    0.8693 C   0  0  0  0  0  0  0  0  0  0  0  0
    2.3653    0.3802    0.4033 C   0  0  0  0  0  0  0  0  0  0  0  0
    3.0525   -0.6540    1.3237 C   0  0  0  0  0  0  0  0  0  0  0  0
    2.7351   -2.0730    0.8576 C   0  0  0  0  0  0  0  0  0  0  0  0
    1.2221   -2.3323    0.8102 C   0  0  0  0  0  0  0  0  0  0  0  0
    0.5989   -1.3118   -0.1226 C   0  0  0  0  0  0  0  0  0  0  0  0
    0.8894    0.0892    0.4697 C   0  0  0  0  0  0  0  0  0  0  0  0
   -0.0827    0.9948   -0.2897 C   0  0  0  0  0  0  0  0  0  0  0  0
   -1.3549    0.1476   -0.2476 C   0  0  0  0  0  0  0  0  0  0  0  0
   -0.9223   -1.3397   -0.2318 C   0  0  0  0  0  0  0  0  0  0  0  0
   -1.6136   -2.0202    0.9440 C   0  0  0  0  0  0  0  0  0  0  0  0
   -3.1334   -1.8512    0.7684 C   0  0  0  0  0  0  0  0  0  0  0  0
   -3.4646   -0.3483    0.7151 C   0  0  0  0  0  0  0  0  0  0  0  0
   -2.1436    0.3991    1.0596 C   0  0  0  0  0  0  0  0  0  0  0  0
   -3.7189    0.0282   -0.7407 C   0  0  0  0  0  0  0  0  0  0  0  0
   -4.8786    0.0428   -1.3496 C   0  0  0  0  0  0  0  0  0  0  0  0
   -2.3696    0.3844   -1.3539 C   0  0  0  0  0  0  0  0  0  0  0  0
   -0.2782    2.3056    0.4278 C   0  0  0  0  0  0  0  0  0  0  0  0
   -0.1619    2.3599    1.6292 O   0  0  0  0  0  0  0  0  0  0  0  0
   -0.5814    3.4128   -0.2679 O   0  0  0  0  0  0  0  0  0  0  0  0
    1.1845   -1.4244   -1.5305 C   0  0  0  0  0  0  0  0  0  0  0  0
    2.5903   -1.0675   -1.5423 O   0  0  0  0  0  0  0  0  0  0  0  0
    2.8902    0.1516   -0.9999 C   0  0  0  0  0  0  0  0  0  0  0  0
    3.5208    0.9839   -1.6078 O   0  0  0  0  0  0  0  0  0  0  0  0
    3.7391    1.9556    0.9243 H   0  0  0  0  0  0  0  0  0  0  0  0
    2.2320    2.5167    0.1614 H   0  0  0  0  0  0  0  0  0  0  0  0
    2.2213    1.9662    1.8541 H   0  0  0  0  0  0  0  0  0  0  0  0
    4.1311   -0.4988    1.2985 H   0  0  0  0  0  0  0  0  0  0  0  0
    2.6955   -0.5215    2.3450 H   0  0  0  0  0  0  0  0  0  0  0  0
    3.1523   -2.2214   -0.1384 H   0  0  0  0  0  0  0  0  0  0  0  0
    3.1959   -2.7837    1.5437 H   0  0  0  0  0  0  0  0  0  0  0  0
    1.0324   -3.3380    0.4351 H   0  0  0  0  0  0  0  0  0  0  0  0
    0.7987   -2.2252    1.8088 H   0  0  0  0  0  0  0  0  0  0  0  0
    0.5869    0.0831    1.5168 H   0  0  0  0  0  0  0  0  0  0  0  0
    0.2491    1.1557   -1.3154 H   0  0  0  0  0  0  0  0  0  0  0  0
   -1.2169   -1.8201   -1.1649 H   0  0  0  0  0  0  0  0  0  0  0  0
   -1.3601   -3.0802    0.9567 H   0  0  0  0  0  0  0  0  0  0  0  0
   -1.2969   -1.5542    1.8771 H   0  0  0  0  0  0  0  0  0  0  0  0
   -3.4489   -2.3277   -0.1598 H   0  0  0  0  0  0  0  0  0  0  0  0
   -3.6515   -2.3097    1.6107 H   0  0  0  0  0  0  0  0  0  0  0  0
   -4.2860   -0.0778    1.3787 H   0  0  0  0  0  0  0  0  0  0  0  0
   -1.6445   -0.0515    1.9175 H   0  0  0  0  0  0  0  0  0  0  0  0
   -2.3191    1.4629    1.2191 H   0  0  0  0  0  0  0  0  0  0  0  0
   -5.7744   -0.2306   -0.8118 H   0  0  0  0  0  0  0  0  0  0  0  0
   -4.9390    0.3282   -2.3895 H   0  0  0  0  0  0  0  0  0  0  0  0
   -2.3577    1.4304   -1.6604 H   0  0  0  0  0  0  0  0  0  0  0  0
   -2.1585   -0.2624   -2.2055 H   0  0  0  0  0  0  0  0  0  0  0  0
   -0.6973    4.2299    0.2360 H   0  0  0  0  0  0  0  0  0  0  0  0
    1.0729   -2.4497   -1.8831 H   0  0  0  0  0  0  0  0  0  0  0  0
    0.6405   -0.7564   -2.1984 H   0  0  0  0  0  0  0  0  0  0  0  0
  1  2  1  0  0  0  0
  2  3  1  0  0  0  0
  3  4  1  0  0  0  0
  4  5  1  0  0  0  0
  5  6  1  0  0  0  0
  6  7  1  0  0  0  0
  2  7  1  0  0  0  0
  7  8  1  0  0  0  0
  8  9  1  0  0  0  0
  9 10  1  0  0  0  0
  6 10  1  0  0  0  0
 10 11  1  0  0  0  0
 11 12  1  0  0  0  0
 12 13  1  0  0  0  0
 13 14  1  0  0  0  0
  9 14  1  0  0  0  0
 13 15  1  0  0  0  0
 15 16  2  0  0  0  0
 15 17  1  0  0  0  0
  9 17  1  0  0  0  0
  8 18  1  0  0  0  0
 18 19  2  0  0  0  0
 18 20  1  0  0  0  0
  6 21  1  0  0  0  0
 21 22  1  0  0  0  0
 22 23  1  0  0  0  0
  2 23  1  0  0  0  0
 23 24  2  0  0  0  0
  1 25  1  0  0  0  0
  1 26  1  0  0  0  0
  1 27  1  0  0  0  0
  3 28  1  0  0  0  0
  3 29  1  0  0  0  0
  4 30  1  0  0  0  0
  4 31  1  0  0  0  0
  5 32  1  0  0  0  0
  5 33  1  0  0  0  0
  7 34  1  0  0  0  0
  8 35  1  0  0  0  0
 10 36  1  0  0  0  0
 11 37  1  0  0  0  0
 11 38  1  0  0  0  0
 12 39  1  0  0  0  0
 12 40  1  0  0  0  0
 13 41  1  0  0  0  0
 14 42  1  0  0  0  0
 14 43  1  0  0  0  0
 16 44  1  0  0  0  0
 16 45  1  0  0  0  0
 17 46  1  0  0  0  0
 17 47  1  0  0  0  0
 20 48  1  0  0  0  0
 21 49  1  0  0  0  0
 21 50  1  0  0  0  0
M  END
$$$$
