C30H48O5
APtclcactv06281817053D 0   0.00000     0.00000
 
 83 87  0  0  0  0  0  0  0  0999 V2000
    5.9903   -2.5268    0.3196 C   0  0  0  0  0  0  0  0  0  0  0  0
    5.0793   -1.4399    0.9008 C   0  0  0  0  0  0  0  0  0  0  0  0
    5.7691   -0.0874    0.7863 C   0  0  0  0  0  0  0  0  0  0  0  0
    4.8553    1.0084    1.3216 C   0  0  0  0  0  0  0  0  0  0  0  0
    3.5652    1.0637    0.4779 C   0  0  0  0  0  0  0  0  0  0  0  0
    2.6946    2.1690    1.0696 C   0  0  0  0  0  0  0  0  0  0  0  0
    1.2185    1.8475    1.1446 C   0  0  0  0  0  0  0  0  0  0  0  0
    0.7242    1.0206   -0.0261 C   0  0  0  0  0  0  0  0  0  0  0  0
    1.5119   -0.2558   -0.1281 C   0  0  0  0  0  0  0  0  0  0  0  0
    1.0073   -1.3464   -0.6546 C   0  0  0  0  0  0  0  0  0  0  0  0
   -0.4634   -1.3513   -1.0738 C   0  0  0  0  0  0  0  0  0  0  0  0
   -1.1416   -0.6306    0.0913 C   0  0  0  0  0  0  0  0  0  0  0  0
   -0.7916    0.8356    0.0316 C   0  0  0  0  0  0  0  0  0  0  0  0
   -1.4497    1.6250    1.1400 C   0  0  0  0  0  0  0  0  0  0  0  0
   -2.9480    1.3444    1.2726 C   0  0  0  0  0  0  0  0  0  0  0  0
   -3.4572    0.3046    0.2923 C   0  0  0  0  0  0  0  0  0  0  0  0
   -2.6073   -0.9528    0.3046 C   0  0  0  0  0  0  0  0  0  0  0  0
   -3.1084   -1.9245   -0.7675 C   0  0  0  0  0  0  0  0  0  0  0  0
   -4.5768   -2.2606   -0.5096 C   0  0  0  0  0  0  0  0  0  0  0  0
   -5.4319   -1.0028   -0.5697 C   0  0  0  0  0  0  0  0  0  0  0  0
   -4.9576    0.0733    0.4064 C   0  0  0  0  0  0  0  0  0  0  0  0
   -5.4260   -0.2405    1.8216 C   0  0  0  0  0  0  0  0  0  0  0  0
   -5.6622    1.3852   -0.0233 C   0  0  0  0  0  0  0  0  0  0  0  0
   -7.0787    1.2114    0.0506 O   0  0  0  0  0  0  0  0  0  0  0  0
   -5.4015   -0.4724   -1.9019 O   0  0  0  0  0  0  0  0  0  0  0  0
   -2.6875   -1.6657    1.6702 C   0  0  0  0  0  0  0  0  0  0  0  0
   -1.2282    1.4408   -1.3077 C   0  0  0  0  0  0  0  0  0  0  0  0
    2.8747   -0.2823    0.5294 C   0  0  0  0  0  0  0  0  0  0  0  0
    3.7413   -1.4622    0.1491 C   0  0  0  0  0  0  0  0  0  0  0  0
    4.0108   -1.5814   -1.3485 C   0  0  0  0  0  0  0  0  0  0  0  0
    3.0848   -2.6786    0.5767 O   0  0  0  0  0  0  0  0  0  0  0  0
    0.9298    1.8219   -1.3181 C   0  0  0  0  0  0  0  0  0  0  0  0
    3.9671    1.4785   -0.9127 C   0  0  0  0  0  0  0  0  0  0  0  0
    3.5970    0.8347   -1.8658 O   0  0  0  0  0  0  0  0  0  0  0  0
    4.7364    2.5635   -1.0934 O   0  0  0  0  0  0  0  0  0  0  0  0
    6.9287   -2.5488    0.8736 H   0  0  0  0  0  0  0  0  0  0  0  0
    5.4975   -3.4956    0.4010 H   0  0  0  0  0  0  0  0  0  0  0  0
    6.1924   -2.3090   -0.7291 H   0  0  0  0  0  0  0  0  0  0  0  0
    4.8919   -1.6626    1.9533 H   0  0  0  0  0  0  0  0  0  0  0  0
    6.6845   -0.1056    1.3978 H   0  0  0  0  0  0  0  0  0  0  0  0
    6.0681    0.1090   -0.2407 H   0  0  0  0  0  0  0  0  0  0  0  0
    4.5895    0.7959    2.3544 H   0  0  0  0  0  0  0  0  0  0  0  0
    5.3546    1.9727    1.2589 H   0  0  0  0  0  0  0  0  0  0  0  0
    3.0612    2.3778    2.0794 H   0  0  0  0  0  0  0  0  0  0  0  0
    2.8345    3.0721    0.4725 H   0  0  0  0  0  0  0  0  0  0  0  0
    1.0208    1.3117    2.0793 H   0  0  0  0  0  0  0  0  0  0  0  0
    0.6588    2.7907    1.1788 H   0  0  0  0  0  0  0  0  0  0  0  0
    1.5753   -2.2420   -0.8165 H   0  0  0  0  0  0  0  0  0  0  0  0
   -0.5882   -0.8565   -2.0210 H   0  0  0  0  0  0  0  0  0  0  0  0
   -0.8048   -2.3852   -1.1351 H   0  0  0  0  0  0  0  0  0  0  0  0
   -0.6280   -1.0249    1.0114 H   0  0  0  0  0  0  0  0  0  0  0  0
   -0.9631    1.4102    2.0970 H   0  0  0  0  0  0  0  0  0  0  0  0
   -1.3178    2.6990    0.9385 H   0  0  0  0  0  0  0  0  0  0  0  0
   -3.1565    1.0382    2.3022 H   0  0  0  0  0  0  0  0  0  0  0  0
   -3.4741    2.2975    1.1074 H   0  0  0  0  0  0  0  0  0  0  0  0
   -3.3766    0.7399   -0.7317 H   0  0  0  0  0  0  0  0  0  0  0  0
   -3.0034   -1.4601   -1.7477 H   0  0  0  0  0  0  0  0  0  0  0  0
   -2.5170   -2.8392   -0.7344 H   0  0  0  0  0  0  0  0  0  0  0  0
   -4.9114   -2.9488   -1.3007 H   0  0  0  0  0  0  0  0  0  0  0  0
   -4.7036   -2.7681    0.4408 H   0  0  0  0  0  0  0  0  0  0  0  0
   -6.4697   -1.2619   -0.3311 H   0  0  0  0  0  0  0  0  0  0  0  0
   -5.0653   -1.2268    2.1134 H   0  0  0  0  0  0  0  0  0  0  0  0
   -5.0325    0.5084    2.5090 H   0  0  0  0  0  0  0  0  0  0  0  0
   -6.5154   -0.2275    1.8549 H   0  0  0  0  0  0  0  0  0  0  0  0
   -5.3603    2.1945    0.6415 H   0  0  0  0  0  0  0  0  0  0  0  0
   -5.3793    1.6312   -1.0468 H   0  0  0  0  0  0  0  0  0  0  0  0
   -7.5850    1.9946   -0.2050 H   0  0  0  0  0  0  0  0  0  0  0  0
   -5.7374   -1.0801   -2.5749 H   0  0  0  0  0  0  0  0  0  0  0  0
   -3.6900   -2.0699    1.8107 H   0  0  0  0  0  0  0  0  0  0  0  0
   -1.9609   -2.4777    1.6994 H   0  0  0  0  0  0  0  0  0  0  0  0
   -2.4683   -0.9532    2.4655 H   0  0  0  0  0  0  0  0  0  0  0  0
   -2.3164    1.4404   -1.3691 H   0  0  0  0  0  0  0  0  0  0  0  0
   -0.8605    2.4643   -1.3809 H   0  0  0  0  0  0  0  0  0  0  0  0
   -0.8179    0.8480   -2.1252 H   0  0  0  0  0  0  0  0  0  0  0  0
    2.6431   -0.4426    1.6291 H   0  0  0  0  0  0  0  0  0  0  0  0
    4.7192   -0.8108   -1.6526 H   0  0  0  0  0  0  0  0  0  0  0  0
    4.4282   -2.5647   -1.5654 H   0  0  0  0  0  0  0  0  0  0  0  0
    3.0775   -1.4538   -1.8969 H   0  0  0  0  0  0  0  0  0  0  0  0
    3.5770   -3.4849    0.3697 H   0  0  0  0  0  0  0  0  0  0  0  0
    1.9969    1.9382   -1.5076 H   0  0  0  0  0  0  0  0  0  0  0  0
    0.4684    1.2923   -2.1515 H   0  0  0  0  0  0  0  0  0  0  0  0
    0.4703    2.8047   -1.2130 H   0  0  0  0  0  0  0  0  0  0  0  0
    4.9685    2.7903   -2.0044 H   0  0  0  0  0  0  0  0  0  0  0  0
  1  2  1  0  0  0  0
  2  3  1  0  0  0  0
  3  4  1  0  0  0  0
  4  5  1  0  0  0  0
  5  6  1  0  0  0  0
  6  7  1  0  0  0  0
  7  8  1  0  0  0  0
  8  9  1  0  0  0  0
  9 10  2  0  0  0  0
 10 11  1  0  0  0  0
 11 12  1  0  0  0  0
 12 13  1  0  0  0  0
  8 13  1  0  0  0  0
 13 14  1  0  0  0  0
 14 15  1  0  0  0  0
 15 16  1  0  0  0  0
 16 17  1  0  0  0  0
 12 17  1  0  0  0  0
 17 18  1  0  0  0  0
 18 19  1  0  0  0  0
 19 20  1  0  0  0  0
 20 21  1  0  0  0  0
 16 21  1  0  0  0  0
 21 22  1  0  0  0  0
 21 23  1  0  0  0  0
 23 24  1  0  0  0  0
 20 25  1  0  0  0  0
 17 26  1  0  0  0  0
 13 27  1  0  0  0  0
  9 28  1  0  0  0  0
  5 28  1  0  0  0  0
 28 29  1  0  0  0  0
  2 29  1  0  0  0  0
 29 30  1  0  0  0  0
 29 31  1  0  0  0  0
  8 32  1  0  0  0  0
  5 33  1  0  0  0  0
 33 34  2  0  0  0  0
 33 35  1  0  0  0  0
  1 36  1  0  0  0  0
  1 37  1  0  0  0  0
  1 38  1  0  0  0  0
  2 39  1  0  0  0  0
  3 40  1  0  0  0  0
  3 41  1  0  0  0  0
  4 42  1  0  0  0  0
  4 43  1  0  0  0  0
  6 44  1  0  0  0  0
  6 45  1  0  0  0  0
  7 46  1  0  0  0  0
  7 47  1  0  0  0  0
 10 48  1  0  0  0  0
 11 49  1  0  0  0  0
 11 50  1  0  0  0  0
 12 51  1  0  0  0  0
 14 52  1  0  0  0  0
 14 53  1  0  0  0  0
 15 54  1  0  0  0  0
 15 55  1  0  0  0  0
 16 56  1  0  0  0  0
 18 57  1  0  0  0  0
 18 58  1  0  0  0  0
 19 59  1  0  0  0  0
 19 60  1  0  0  0  0
 20 61  1  0  0  0  0
 22 62  1  0  0  0  0
 22 63  1  0  0  0  0
 22 64  1  0  0  0  0
 23 65  1  0  0  0  0
 23 66  1  0  0  0  0
 24 67  1  0  0  0  0
 25 68  1  0  0  0  0
 26 69  1  0  0  0  0
 26 70  1  0  0  0  0
 26 71  1  0  0  0  0
 27 72  1  0  0  0  0
 27 73  1  0  0  0  0
 27 74  1  0  0  0  0
 28 75  1  0  0  0  0
 30 76  1  0  0  0  0
 30 77  1  0  0  0  0
 30 78  1  0  0  0  0
 31 79  1  0  0  0  0
 32 80  1  0  0  0  0
 32 81  1  0  0  0  0
 32 82  1  0  0  0  0
 35 83  1  0  0  0  0
M  END
$$$$
