C16H20O8
APtclcactv06281817363D 0   0.00000     0.00000
 
 44 45  0  0  0  0  0  0  0  0999 V2000
    8.0484   -1.1629    0.7908 C   0  0  0  0  0  0  0  0  0  0  0  0
    6.6338   -1.0552    0.9617 O   0  0  0  0  0  0  0  0  0  0  0  0
    5.9821   -0.1974    0.1492 C   0  0  0  0  0  0  0  0  0  0  0  0
    6.5997    0.4415   -0.6817 O   0  0  0  0  0  0  0  0  0  0  0  0
    4.5777   -0.0405    0.2638 C   0  0  0  0  0  0  0  0  0  0  0  0
    3.9253    0.8183   -0.5496 C   0  0  0  0  0  0  0  0  0  0  0  0
    2.4696    0.9809   -0.4308 C   0  0  0  0  0  0  0  0  0  0  0  0
    1.7911    1.8702   -1.2726 C   0  0  0  0  0  0  0  0  0  0  0  0
    0.4275    2.0188   -1.1571 C   0  0  0  0  0  0  0  0  0  0  0  0
   -0.2758    1.2879   -0.2063 C   0  0  0  0  0  0  0  0  0  0  0  0
    0.3932    0.4033    0.6322 C   0  0  0  0  0  0  0  0  0  0  0  0
    1.7558    0.2427    0.5207 C   0  0  0  0  0  0  0  0  0  0  0  0
   -1.6202    1.4387   -0.0959 O   0  0  0  0  0  0  0  0  0  0  0  0
   -2.2809    0.6574    0.9017 C   0  0  0  0  0  0  0  0  0  0  0  0
   -3.7593    1.0505    0.9616 C   0  0  0  0  0  0  0  0  0  0  0  0
   -4.4178    0.7375   -0.3855 C   0  0  0  0  0  0  0  0  0  0  0  0
   -4.2237   -0.7483   -0.7033 C   0  0  0  0  0  0  0  0  0  0  0  0
   -2.7274   -1.0718   -0.6989 C   0  0  0  0  0  0  0  0  0  0  0  0
   -2.1709   -0.7286    0.5717 O   0  0  0  0  0  0  0  0  0  0  0  0
   -2.5278   -2.5668   -0.9563 C   0  0  0  0  0  0  0  0  0  0  0  0
   -1.1314   -2.8487   -1.0681 O   0  0  0  0  0  0  0  0  0  0  0  0
   -4.8861   -1.5387    0.2859 O   0  0  0  0  0  0  0  0  0  0  0  0
   -5.8142    1.0329   -0.3151 O   0  0  0  0  0  0  0  0  0  0  0  0
   -4.4094    0.3077    1.9950 O   0  0  0  0  0  0  0  0  0  0  0  0
    8.5101   -0.1903    0.9610 H   0  0  0  0  0  0  0  0  0  0  0  0
    8.4467   -1.8841    1.5045 H   0  0  0  0  0  0  0  0  0  0  0  0
    8.2675   -1.4965   -0.2235 H   0  0  0  0  0  0  0  0  0  0  0  0
    4.0295   -0.6077    1.0015 H   0  0  0  0  0  0  0  0  0  0  0  0
    4.4736    1.3855   -1.2873 H   0  0  0  0  0  0  0  0  0  0  0  0
    2.3366    2.4390   -2.0110 H   0  0  0  0  0  0  0  0  0  0  0  0
   -0.0969    2.7046   -1.8060 H   0  0  0  0  0  0  0  0  0  0  0  0
   -0.1577   -0.1619    1.3694 H   0  0  0  0  0  0  0  0  0  0  0  0
    2.2745   -0.4447    1.1725 H   0  0  0  0  0  0  0  0  0  0  0  0
   -1.8171    0.8384    1.8713 H   0  0  0  0  0  0  0  0  0  0  0  0
   -3.8445    2.1170    1.1697 H   0  0  0  0  0  0  0  0  0  0  0  0
   -3.9551    1.3409   -1.1665 H   0  0  0  0  0  0  0  0  0  0  0  0
   -4.6411   -0.9682   -1.6859 H   0  0  0  0  0  0  0  0  0  0  0  0
   -2.2292   -0.4986   -1.4808 H   0  0  0  0  0  0  0  0  0  0  0  0
   -2.9486   -3.1374   -0.1283 H   0  0  0  0  0  0  0  0  0  0  0  0
   -3.0302   -2.8462   -1.8824 H   0  0  0  0  0  0  0  0  0  0  0  0
   -0.9301   -3.7802   -1.2320 H   0  0  0  0  0  0  0  0  0  0  0  0
   -5.8386   -1.3814    0.3420 H   0  0  0  0  0  0  0  0  0  0  0  0
   -6.0108    1.9572   -0.1100 H   0  0  0  0  0  0  0  0  0  0  0  0
   -4.0398    0.4539    2.8765 H   0  0  0  0  0  0  0  0  0  0  0  0
  1  2  1  0  0  0  0
  2  3  1  0  0  0  0
  3  4  2  0  0  0  0
  3  5  1  0  0  0  0
  5  6  2  0  0  0  0
  6  7  1  0  0  0  0
  7  8  2  0  0  0  0
  8  9  1  0  0  0  0
  9 10  2  0  0  0  0
 10 11  1  0  0  0  0
 11 12  2  0  0  0  0
  7 12  1  0  0  0  0
 10 13  1  0  0  0  0
 13 14  1  0  0  0  0
 14 15  1  0  0  0  0
 15 16  1  0  0  0  0
 16 17  1  0  0  0  0
 17 18  1  0  0  0  0
 18 19  1  0  0  0  0
 14 19  1  0  0  0  0
 18 20  1  0  0  0  0
 20 21  1  0  0  0  0
 17 22  1  0  0  0  0
 16 23  1  0  0  0  0
 15 24  1  0  0  0  0
  1 25  1  0  0  0  0
  1 26  1  0  0  0  0
  1 27  1  0  0  0  0
  5 28  1  0  0  0  0
  6 29  1  0  0  0  0
  8 30  1  0  0  0  0
  9 31  1  0  0  0  0
 11 32  1  0  0  0  0
 12 33  1  0  0  0  0
 14 34  1  0  0  0  0
 15 35  1  0  0  0  0
 16 36  1  0  0  0  0
 17 37  1  0  0  0  0
 18 38  1  0  0  0  0
 20 39  1  0  0  0  0
 20 40  1  0  0  0  0
 21 41  1  0  0  0  0
 22 42  1  0  0  0  0
 23 43  1  0  0  0  0
 24 44  1  0  0  0  0
M  END
$$$$
