C10H16O3
APtclcactv06281817363D 0   0.00000     0.00000
 
 29 29  0  0  0  0  0  0  0  0999 V2000
    3.2690    1.2314   -0.7154 C   0  0  0  0  0  0  0  0  0  0  0  0
    2.6369   -0.0034   -0.0699 C   0  0  0  0  0  0  0  0  0  0  0  0
    2.8588    0.0420    1.4432 C   0  0  0  0  0  0  0  0  0  0  0  0
    1.1357   -0.0211   -0.3649 C   0  0  0  0  0  0  0  0  0  0  0  0
    0.4774   -1.1870    0.3828 C   0  0  0  0  0  0  0  0  0  0  0  0
   -0.9769   -1.3009   -0.0789 C   0  0  0  0  0  0  0  0  0  0  0  0
   -1.6470    0.0404   -0.0113 C   0  0  0  0  0  0  0  0  0  0  0  0
   -0.9949    1.1811    0.0708 C   0  0  0  0  0  0  0  0  0  0  0  0
    0.5017    1.2853    0.1174 C   0  0  0  0  0  0  0  0  0  0  0  0
   -3.1157    0.0829   -0.0388 C   0  0  0  0  0  0  0  0  0  0  0  0
   -3.6938    1.1506    0.0141 O   0  0  0  0  0  0  0  0  0  0  0  0
   -3.8216   -1.0624   -0.1227 O   0  0  0  0  0  0  0  0  0  0  0  0
    3.2413   -1.1826   -0.6048 O   0  0  0  0  0  0  0  0  0  0  0  0
    4.3385    1.2439   -0.5053 H   0  0  0  0  0  0  0  0  0  0  0  0
    3.1109    1.1990   -1.7934 H   0  0  0  0  0  0  0  0  0  0  0  0
    2.8080    2.1309   -0.3074 H   0  0  0  0  0  0  0  0  0  0  0  0
    2.3978    0.9415    1.8512 H   0  0  0  0  0  0  0  0  0  0  0  0
    2.4085   -0.8377    1.9030 H   0  0  0  0  0  0  0  0  0  0  0  0
    3.9283    0.0546    1.6534 H   0  0  0  0  0  0  0  0  0  0  0  0
    0.9745   -0.1358   -1.4368 H   0  0  0  0  0  0  0  0  0  0  0  0
    1.0069   -2.1126    0.1568 H   0  0  0  0  0  0  0  0  0  0  0  0
    0.5071   -0.9974    1.4558 H   0  0  0  0  0  0  0  0  0  0  0  0
   -1.0026   -1.6663   -1.1055 H   0  0  0  0  0  0  0  0  0  0  0  0
   -1.5067   -2.0024    0.5656 H   0  0  0  0  0  0  0  0  0  0  0  0
   -1.5700    2.0945    0.1071 H   0  0  0  0  0  0  0  0  0  0  0  0
    0.8183    1.4845    1.1412 H   0  0  0  0  0  0  0  0  0  0  0  0
    0.8271    2.1035   -0.5251 H   0  0  0  0  0  0  0  0  0  0  0  0
   -4.7853   -0.9840   -0.1377 H   0  0  0  0  0  0  0  0  0  0  0  0
    4.1949   -1.2387   -0.4545 H   0  0  0  0  0  0  0  0  0  0  0  0
  1  2  1  0  0  0  0
  2  3  1  0  0  0  0
  2  4  1  0  0  0  0
  4  5  1  0  0  0  0
  5  6  1  0  0  0  0
  6  7  1  0  0  0  0
  7  8  2  0  0  0  0
  8  9  1  0  0  0  0
  4  9  1  0  0  0  0
  7 10  1  0  0  0  0
 10 11  2  0  0  0  0
 10 12  1  0  0  0  0
  2 13  1  0  0  0  0
  1 14  1  0  0  0  0
  1 15  1  0  0  0  0
  1 16  1  0  0  0  0
  3 17  1  0  0  0  0
  3 18  1  0  0  0  0
  3 19  1  0  0  0  0
  4 20  1  0  0  0  0
  5 21  1  0  0  0  0
  5 22  1  0  0  0  0
  6 23  1  0  0  0  0
  6 24  1  0  0  0  0
  8 25  1  0  0  0  0
  9 26  1  0  0  0  0
  9 27  1  0  0  0  0
 12 28  1  0  0  0  0
 13 29  1  0  0  0  0
M  END
$$$$
