C13H26O2
APtclcactv06211806033D 0   0.00000     0.00000
 
 41 40  0  0  0  0  0  0  0  0999 V2000
    8.4150    0.4717    0.0000 C   0  0  0  0  0  0  0  0  0  0  0  0
    7.1886   -0.4432   -0.0000 C   0  0  0  0  0  0  0  0  0  0  0  0
    5.9173    0.4080    0.0000 C   0  0  0  0  0  0  0  0  0  0  0  0
    4.6910   -0.5069   -0.0000 C   0  0  0  0  0  0  0  0  0  0  0  0
    3.4196    0.3443    0.0000 C   0  0  0  0  0  0  0  0  0  0  0  0
    2.1933   -0.5706   -0.0000 C   0  0  0  0  0  0  0  0  0  0  0  0
    0.9220    0.2806    0.0000 C   0  0  0  0  0  0  0  0  0  0  0  0
   -0.3044   -0.6343    0.0000 C   0  0  0  0  0  0  0  0  0  0  0  0
   -1.5757    0.2169    0.0000 C   0  0  0  0  0  0  0  0  0  0  0  0
   -2.8020   -0.6981    0.0000 C   0  0  0  0  0  0  0  0  0  0  0  0
   -4.0543    0.1403    0.0000 C   0  0  0  0  0  0  0  0  0  0  0  0
   -3.9741    1.3459   -0.0000 O   0  0  0  0  0  0  0  0  0  0  0  0
   -5.2587   -0.4522    0.0000 O   0  0  0  0  0  0  0  0  0  0  0  0
   -6.4213    0.4176   -0.0000 C   0  0  0  0  0  0  0  0  0  0  0  0
   -7.6938   -0.4319    0.0000 C   0  0  0  0  0  0  0  0  0  0  0  0
    8.3989    1.1008    0.8900 H   0  0  0  0  0  0  0  0  0  0  0  0
    9.3207   -0.1347   -0.0000 H   0  0  0  0  0  0  0  0  0  0  0  0
    8.3989    1.1008   -0.8900 H   0  0  0  0  0  0  0  0  0  0  0  0
    7.2047   -1.0723   -0.8900 H   0  0  0  0  0  0  0  0  0  0  0  0
    7.2047   -1.0723    0.8900 H   0  0  0  0  0  0  0  0  0  0  0  0
    5.9012    1.0371    0.8900 H   0  0  0  0  0  0  0  0  0  0  0  0
    5.9012    1.0371   -0.8900 H   0  0  0  0  0  0  0  0  0  0  0  0
    4.7070   -1.1360   -0.8900 H   0  0  0  0  0  0  0  0  0  0  0  0
    4.7070   -1.1360    0.8900 H   0  0  0  0  0  0  0  0  0  0  0  0
    3.4036    0.9734    0.8900 H   0  0  0  0  0  0  0  0  0  0  0  0
    3.4036    0.9734   -0.8900 H   0  0  0  0  0  0  0  0  0  0  0  0
    2.2094   -1.1997   -0.8900 H   0  0  0  0  0  0  0  0  0  0  0  0
    2.2094   -1.1997    0.8900 H   0  0  0  0  0  0  0  0  0  0  0  0
    0.9059    0.9097    0.8900 H   0  0  0  0  0  0  0  0  0  0  0  0
    0.9059    0.9097   -0.8900 H   0  0  0  0  0  0  0  0  0  0  0  0
   -0.2883   -1.2634   -0.8900 H   0  0  0  0  0  0  0  0  0  0  0  0
   -0.2883   -1.2634    0.8900 H   0  0  0  0  0  0  0  0  0  0  0  0
   -1.5918    0.8460    0.8900 H   0  0  0  0  0  0  0  0  0  0  0  0
   -1.5918    0.8460   -0.8900 H   0  0  0  0  0  0  0  0  0  0  0  0
   -2.7860   -1.3272   -0.8900 H   0  0  0  0  0  0  0  0  0  0  0  0
   -2.7860   -1.3272    0.8900 H   0  0  0  0  0  0  0  0  0  0  0  0
   -6.4044    1.0467    0.8900 H   0  0  0  0  0  0  0  0  0  0  0  0
   -6.4044    1.0467   -0.8900 H   0  0  0  0  0  0  0  0  0  0  0  0
   -7.7107   -1.0609    0.8900 H   0  0  0  0  0  0  0  0  0  0  0  0
   -8.5666    0.2211   -0.0000 H   0  0  0  0  0  0  0  0  0  0  0  0
   -7.7107   -1.0609   -0.8900 H   0  0  0  0  0  0  0  0  0  0  0  0
  1  2  1  0  0  0  0
  2  3  1  0  0  0  0
  3  4  1  0  0  0  0
  4  5  1  0  0  0  0
  5  6  1  0  0  0  0
  6  7  1  0  0  0  0
  7  8  1  0  0  0  0
  8  9  1  0  0  0  0
  9 10  1  0  0  0  0
 10 11  1  0  0  0  0
 11 12  2  0  0  0  0
 11 13  1  0  0  0  0
 13 14  1  0  0  0  0
 14 15  1  0  0  0  0
  1 16  1  0  0  0  0
  1 17  1  0  0  0  0
  1 18  1  0  0  0  0
  2 19  1  0  0  0  0
  2 20  1  0  0  0  0
  3 21  1  0  0  0  0
  3 22  1  0  0  0  0
  4 23  1  0  0  0  0
  4 24  1  0  0  0  0
  5 25  1  0  0  0  0
  5 26  1  0  0  0  0
  6 27  1  0  0  0  0
  6 28  1  0  0  0  0
  7 29  1  0  0  0  0
  7 30  1  0  0  0  0
  8 31  1  0  0  0  0
  8 32  1  0  0  0  0
  9 33  1  0  0  0  0
  9 34  1  0  0  0  0
 10 35  1  0  0  0  0
 10 36  1  0  0  0  0
 14 37  1  0  0  0  0
 14 38  1  0  0  0  0
 15 39  1  0  0  0  0
 15 40  1  0  0  0  0
 15 41  1  0  0  0  0
M  END
$$$$
