C21H20O12
APtclcactv06291803073D 0   0.00000     0.00000
 
 53 56  0  0  0  0  0  0  0  0999 V2000
   -1.4904    1.6482    1.6189 C   0  0  0  0  0  0  0  0  0  0  0  0
   -2.6404    2.4021    1.6993 C   0  0  0  0  0  0  0  0  0  0  0  0
   -2.9279    3.3417    0.7168 C   0  0  0  0  0  0  0  0  0  0  0  0
   -2.0573    3.5257   -0.3505 C   0  0  0  0  0  0  0  0  0  0  0  0
   -0.9050    2.7763   -0.4391 C   0  0  0  0  0  0  0  0  0  0  0  0
   -0.6117    1.8299    0.5470 C   0  0  0  0  0  0  0  0  0  0  0  0
    0.6209    1.0255    0.4568 C   0  0  0  0  0  0  0  0  0  0  0  0
    0.5404   -0.3217    0.6449 C   0  0  0  0  0  0  0  0  0  0  0  0
    1.7171   -1.1097    0.5613 C   0  0  0  0  0  0  0  0  0  0  0  0
    1.6832   -2.3191    0.7238 O   0  0  0  0  0  0  0  0  0  0  0  0
    2.9801   -0.4125    0.2707 C   0  0  0  0  0  0  0  0  0  0  0  0
    4.1890   -1.1122    0.1701 C   0  0  0  0  0  0  0  0  0  0  0  0
    5.3569   -0.4196   -0.1053 C   0  0  0  0  0  0  0  0  0  0  0  0
    5.3249    0.9627   -0.2797 C   0  0  0  0  0  0  0  0  0  0  0  0
    4.1308    1.6590   -0.1809 C   0  0  0  0  0  0  0  0  0  0  0  0
    2.9522    0.9824    0.0936 C   0  0  0  0  0  0  0  0  0  0  0  0
    1.7810    1.6477    0.1867 O   0  0  0  0  0  0  0  0  0  0  0  0
    6.4749    1.6339   -0.5485 O   0  0  0  0  0  0  0  0  0  0  0  0
    6.5375   -1.0903   -0.2053 O   0  0  0  0  0  0  0  0  0  0  0  0
    4.2163   -2.4594    0.3415 O   0  0  0  0  0  0  0  0  0  0  0  0
   -0.6593   -0.9065    0.9113 O   0  0  0  0  0  0  0  0  0  0  0  0
   -1.1359   -1.8683   -0.0321 C   0  0  0  0  0  0  0  0  0  0  0  0
   -2.2957   -2.6556    0.5831 C   0  0  0  0  0  0  0  0  0  0  0  0
   -3.4486   -1.6950    0.8903 C   0  0  0  0  0  0  0  0  0  0  0  0
   -3.8547   -0.9736   -0.3985 C   0  0  0  0  0  0  0  0  0  0  0  0
   -2.6346   -0.2512   -0.9758 C   0  0  0  0  0  0  0  0  0  0  0  0
   -1.5891   -1.1969   -1.2094 O   0  0  0  0  0  0  0  0  0  0  0  0
   -3.0175    0.4224   -2.2952 C   0  0  0  0  0  0  0  0  0  0  0  0
   -1.9133    1.1922   -2.7750 O   0  0  0  0  0  0  0  0  0  0  0  0
   -4.3385   -1.9265   -1.3470 O   0  0  0  0  0  0  0  0  0  0  0  0
   -4.5630   -2.4322    1.3970 O   0  0  0  0  0  0  0  0  0  0  0  0
   -2.7383   -3.6532   -0.3394 O   0  0  0  0  0  0  0  0  0  0  0  0
   -4.0632    4.0821    0.7997 O   0  0  0  0  0  0  0  0  0  0  0  0
   -1.2658    0.9210    2.3851 H   0  0  0  0  0  0  0  0  0  0  0  0
   -3.3199    2.2625    2.5271 H   0  0  0  0  0  0  0  0  0  0  0  0
   -2.2847    4.2571   -1.1119 H   0  0  0  0  0  0  0  0  0  0  0  0
   -0.2293    2.9194   -1.2694 H   0  0  0  0  0  0  0  0  0  0  0  0
    4.1183    2.7302   -0.3176 H   0  0  0  0  0  0  0  0  0  0  0  0
    6.6711    1.7159   -1.4919 H   0  0  0  0  0  0  0  0  0  0  0  0
    6.7413   -1.3967   -1.0996 H   0  0  0  0  0  0  0  0  0  0  0  0
    4.0868   -2.9624   -0.4741 H   0  0  0  0  0  0  0  0  0  0  0  0
   -0.3289   -2.5533   -0.2920 H   0  0  0  0  0  0  0  0  0  0  0  0
   -1.9636   -3.1326    1.5052 H   0  0  0  0  0  0  0  0  0  0  0  0
   -3.1262   -0.9636    1.6315 H   0  0  0  0  0  0  0  0  0  0  0  0
   -4.6374   -0.2476   -0.1784 H   0  0  0  0  0  0  0  0  0  0  0  0
   -2.2907    0.5036   -0.2686 H   0  0  0  0  0  0  0  0  0  0  0  0
   -3.2761   -0.3396   -3.0305 H   0  0  0  0  0  0  0  0  0  0  0  0
   -3.8740    1.0770   -2.1338 H   0  0  0  0  0  0  0  0  0  0  0  0
   -2.0853    1.6483   -3.6101 H   0  0  0  0  0  0  0  0  0  0  0  0
   -5.1097   -2.4256   -1.0448 H   0  0  0  0  0  0  0  0  0  0  0  0
   -4.3748   -2.9202    2.2103 H   0  0  0  0  0  0  0  0  0  0  0  0
   -2.0817   -4.3393   -0.5216 H   0  0  0  0  0  0  0  0  0  0  0  0
   -3.9571    4.9118    1.2848 H   0  0  0  0  0  0  0  0  0  0  0  0
  1  2  2  0  0  0  0
  2  3  1  0  0  0  0
  3  4  2  0  0  0  0
  4  5  1  0  0  0  0
  5  6  2  0  0  0  0
  1  6  1  0  0  0  0
  6  7  1  0  0  0  0
  7  8  2  0  0  0  0
  8  9  1  0  0  0  0
  9 10  2  0  0  0  0
  9 11  1  0  0  0  0
 11 12  2  0  0  0  0
 12 13  1  0  0  0  0
 13 14  2  0  0  0  0
 14 15  1  0  0  0  0
 15 16  2  0  0  0  0
 11 16  1  0  0  0  0
 16 17  1  0  0  0  0
  7 17  1  0  0  0  0
 14 18  1  0  0  0  0
 13 19  1  0  0  0  0
 12 20  1  0  0  0  0
  8 21  1  0  0  0  0
 21 22  1  0  0  0  0
 22 23  1  0  0  0  0
 23 24  1  0  0  0  0
 24 25  1  0  0  0  0
 25 26  1  0  0  0  0
 26 27  1  0  0  0  0
 22 27  1  0  0  0  0
 26 28  1  0  0  0  0
 28 29  1  0  0  0  0
 25 30  1  0  0  0  0
 24 31  1  0  0  0  0
 23 32  1  0  0  0  0
  3 33  1  0  0  0  0
  1 34  1  0  0  0  0
  2 35  1  0  0  0  0
  4 36  1  0  0  0  0
  5 37  1  0  0  0  0
 15 38  1  0  0  0  0
 18 39  1  0  0  0  0
 19 40  1  0  0  0  0
 20 41  1  0  0  0  0
 22 42  1  0  0  0  0
 23 43  1  0  0  0  0
 24 44  1  0  0  0  0
 25 45  1  0  0  0  0
 26 46  1  0  0  0  0
 28 47  1  0  0  0  0
 28 48  1  0  0  0  0
 29 49  1  0  0  0  0
 30 50  1  0  0  0  0
 31 51  1  0  0  0  0
 32 52  1  0  0  0  0
 33 53  1  0  0  0  0
M  END
$$$$
