C5H8O
APtclcactv06281817373D 0   0.00000     0.00000
 
 14 13  0  0  0  0  0  0  0  0999 V2000
    2.8687    0.3674   -0.4470 C   0  0  0  0  0  0  0  0  0  0  0  0
    1.8606   -0.5370    0.2648 C   0  0  0  0  0  0  0  0  0  0  0  0
    0.5571    0.1999    0.4347 C   0  0  0  0  0  0  0  0  0  0  0  0
   -0.5761   -0.3335   -0.0264 C   0  0  0  0  0  0  0  0  0  0  0  0
   -1.8412    0.3817    0.1386 C   0  0  0  0  0  0  0  0  0  0  0  0
   -2.8713   -0.1032   -0.2806 O   0  0  0  0  0  0  0  0  0  0  0  0
    3.8115   -0.1656   -0.5699 H   0  0  0  0  0  0  0  0  0  0  0  0
    2.4787    0.6464   -1.4259 H   0  0  0  0  0  0  0  0  0  0  0  0
    3.0340    1.2658    0.1477 H   0  0  0  0  0  0  0  0  0  0  0  0
    1.6952   -1.4354   -0.3300 H   0  0  0  0  0  0  0  0  0  0  0  0
    2.2505   -0.8160    1.2436 H   0  0  0  0  0  0  0  0  0  0  0  0
    0.5399    1.1597    0.9297 H   0  0  0  0  0  0  0  0  0  0  0  0
   -0.5589   -1.2933   -0.5213 H   0  0  0  0  0  0  0  0  0  0  0  0
   -1.8584    1.3415    0.6335 H   0  0  0  0  0  0  0  0  0  0  0  0
  1  2  1  0  0  0  0
  2  3  1  0  0  0  0
  3  4  2  0  0  0  0
  4  5  1  0  0  0  0
  5  6  2  0  0  0  0
  1  7  1  0  0  0  0
  1  8  1  0  0  0  0
  1  9  1  0  0  0  0
  2 10  1  0  0  0  0
  2 11  1  0  0  0  0
  3 12  1  0  0  0  0
  4 13  1  0  0  0  0
  5 14  1  0  0  0  0
M  END
$$$$
