C18H36O2
APtclcactv06211806033D 0   0.00000     0.00000
 
 56 55  0  0  0  0  0  0  0  0999 V2000
   11.6575   -0.2790   -0.0000 C   0  0  0  0  0  0  0  0  0  0  0  0
   10.3876    0.5744    0.0000 C   0  0  0  0  0  0  0  0  0  0  0  0
    9.1597   -0.3384   -0.0000 C   0  0  0  0  0  0  0  0  0  0  0  0
    7.8898    0.5150    0.0000 C   0  0  0  0  0  0  0  0  0  0  0  0
    6.6619   -0.3977   -0.0000 C   0  0  0  0  0  0  0  0  0  0  0  0
    5.3920    0.4557    0.0000 C   0  0  0  0  0  0  0  0  0  0  0  0
    4.1642   -0.4571   -0.0000 C   0  0  0  0  0  0  0  0  0  0  0  0
    2.8943    0.3963    0.0000 C   0  0  0  0  0  0  0  0  0  0  0  0
    1.6664   -0.5165   -0.0000 C   0  0  0  0  0  0  0  0  0  0  0  0
    0.3965    0.3369    0.0000 C   0  0  0  0  0  0  0  0  0  0  0  0
   -0.8314   -0.5759    0.0000 C   0  0  0  0  0  0  0  0  0  0  0  0
   -2.1013    0.2776    0.0000 C   0  0  0  0  0  0  0  0  0  0  0  0
   -3.3292   -0.6352    0.0000 C   0  0  0  0  0  0  0  0  0  0  0  0
   -4.5990    0.2182    0.0000 C   0  0  0  0  0  0  0  0  0  0  0  0
   -5.8269   -0.6946    0.0000 C   0  0  0  0  0  0  0  0  0  0  0  0
   -7.0777    0.1460   -0.0000 C   0  0  0  0  0  0  0  0  0  0  0  0
   -6.9955    1.3514   -0.0000 O   0  0  0  0  0  0  0  0  0  0  0  0
   -8.2832   -0.4445    0.0000 O   0  0  0  0  0  0  0  0  0  0  0  0
   -9.4443    0.4274   -0.0000 C   0  0  0  0  0  0  0  0  0  0  0  0
  -10.7183   -0.4199    0.0000 C   0  0  0  0  0  0  0  0  0  0  0  0
   11.6724   -0.9081    0.8900 H   0  0  0  0  0  0  0  0  0  0  0  0
   11.6724   -0.9081   -0.8900 H   0  0  0  0  0  0  0  0  0  0  0  0
   12.5322    0.3713    0.0000 H   0  0  0  0  0  0  0  0  0  0  0  0
   10.3726    1.2036    0.8900 H   0  0  0  0  0  0  0  0  0  0  0  0
   10.3726    1.2036   -0.8900 H   0  0  0  0  0  0  0  0  0  0  0  0
    9.1747   -0.9675   -0.8900 H   0  0  0  0  0  0  0  0  0  0  0  0
    9.1747   -0.9675    0.8900 H   0  0  0  0  0  0  0  0  0  0  0  0
    7.8749    1.1442    0.8900 H   0  0  0  0  0  0  0  0  0  0  0  0
    7.8749    1.1442   -0.8900 H   0  0  0  0  0  0  0  0  0  0  0  0
    6.6769   -1.0269   -0.8900 H   0  0  0  0  0  0  0  0  0  0  0  0
    6.6769   -1.0269    0.8900 H   0  0  0  0  0  0  0  0  0  0  0  0
    5.3771    1.0848    0.8900 H   0  0  0  0  0  0  0  0  0  0  0  0
    5.3771    1.0848   -0.8900 H   0  0  0  0  0  0  0  0  0  0  0  0
    4.1791   -1.0862   -0.8900 H   0  0  0  0  0  0  0  0  0  0  0  0
    4.1791   -1.0862    0.8900 H   0  0  0  0  0  0  0  0  0  0  0  0
    2.8793    1.0254    0.8900 H   0  0  0  0  0  0  0  0  0  0  0  0
    2.8793    1.0254   -0.8900 H   0  0  0  0  0  0  0  0  0  0  0  0
    1.6813   -1.1456   -0.8900 H   0  0  0  0  0  0  0  0  0  0  0  0
    1.6813   -1.1456    0.8900 H   0  0  0  0  0  0  0  0  0  0  0  0
    0.3815    0.9661    0.8900 H   0  0  0  0  0  0  0  0  0  0  0  0
    0.3815    0.9661   -0.8900 H   0  0  0  0  0  0  0  0  0  0  0  0
   -0.8164   -1.2050   -0.8900 H   0  0  0  0  0  0  0  0  0  0  0  0
   -0.8164   -1.2050    0.8900 H   0  0  0  0  0  0  0  0  0  0  0  0
   -2.1162    0.9067    0.8900 H   0  0  0  0  0  0  0  0  0  0  0  0
   -2.1162    0.9067   -0.8900 H   0  0  0  0  0  0  0  0  0  0  0  0
   -3.3142   -1.2644   -0.8900 H   0  0  0  0  0  0  0  0  0  0  0  0
   -3.3142   -1.2644    0.8900 H   0  0  0  0  0  0  0  0  0  0  0  0
   -4.6140    0.8473    0.8900 H   0  0  0  0  0  0  0  0  0  0  0  0
   -4.6140    0.8473   -0.8900 H   0  0  0  0  0  0  0  0  0  0  0  0
   -5.8120   -1.3237   -0.8900 H   0  0  0  0  0  0  0  0  0  0  0  0
   -5.8120   -1.3237    0.8900 H   0  0  0  0  0  0  0  0  0  0  0  0
   -9.4263    1.0564    0.8900 H   0  0  0  0  0  0  0  0  0  0  0  0
   -9.4263    1.0564   -0.8900 H   0  0  0  0  0  0  0  0  0  0  0  0
  -10.7362   -1.0489   -0.8900 H   0  0  0  0  0  0  0  0  0  0  0  0
  -10.7362   -1.0489    0.8900 H   0  0  0  0  0  0  0  0  0  0  0  0
  -11.5899    0.2346   -0.0000 H   0  0  0  0  0  0  0  0  0  0  0  0
  1  2  1  0  0  0  0
  2  3  1  0  0  0  0
  3  4  1  0  0  0  0
  4  5  1  0  0  0  0
  5  6  1  0  0  0  0
  6  7  1  0  0  0  0
  7  8  1  0  0  0  0
  8  9  1  0  0  0  0
  9 10  1  0  0  0  0
 10 11  1  0  0  0  0
 11 12  1  0  0  0  0
 12 13  1  0  0  0  0
 13 14  1  0  0  0  0
 14 15  1  0  0  0  0
 15 16  1  0  0  0  0
 16 17  2  0  0  0  0
 16 18  1  0  0  0  0
 18 19  1  0  0  0  0
 19 20  1  0  0  0  0
  1 21  1  0  0  0  0
  1 22  1  0  0  0  0
  1 23  1  0  0  0  0
  2 24  1  0  0  0  0
  2 25  1  0  0  0  0
  3 26  1  0  0  0  0
  3 27  1  0  0  0  0
  4 28  1  0  0  0  0
  4 29  1  0  0  0  0
  5 30  1  0  0  0  0
  5 31  1  0  0  0  0
  6 32  1  0  0  0  0
  6 33  1  0  0  0  0
  7 34  1  0  0  0  0
  7 35  1  0  0  0  0
  8 36  1  0  0  0  0
  8 37  1  0  0  0  0
  9 38  1  0  0  0  0
  9 39  1  0  0  0  0
 10 40  1  0  0  0  0
 10 41  1  0  0  0  0
 11 42  1  0  0  0  0
 11 43  1  0  0  0  0
 12 44  1  0  0  0  0
 12 45  1  0  0  0  0
 13 46  1  0  0  0  0
 13 47  1  0  0  0  0
 14 48  1  0  0  0  0
 14 49  1  0  0  0  0
 15 50  1  0  0  0  0
 15 51  1  0  0  0  0
 19 52  1  0  0  0  0
 19 53  1  0  0  0  0
 20 54  1  0  0  0  0
 20 55  1  0  0  0  0
 20 56  1  0  0  0  0
M  END
$$$$
