C6H14S2
APtclcactv06211806033D 0   0.00000     0.00000
 
 22 21  0  0  0  0  0  0  0  0999 V2000
   -3.8585    1.1379   -0.3818 C   0  0  0  0  0  0  0  0  0  0  0  0
   -2.8048    0.0388   -0.2313 C   0  0  0  0  0  0  0  0  0  0  0  0
   -1.7145    0.5064    0.7349 C   0  0  0  0  0  0  0  0  0  0  0  0
   -0.4653   -0.7968    0.9133 S   0  0  0  0  0  0  0  0  0  0  0  0
    0.4653   -0.7968   -0.9133 S   0  0  0  0  0  0  0  0  0  0  0  0
    1.7145    0.5064   -0.7349 C   0  0  0  0  0  0  0  0  0  0  0  0
    2.8048    0.0388    0.2313 C   0  0  0  0  0  0  0  0  0  0  0  0
    3.8585    1.1379    0.3818 C   0  0  0  0  0  0  0  0  0  0  0  0
   -3.3888    2.0404   -0.7732 H   0  0  0  0  0  0  0  0  0  0  0  0
   -4.6352    0.8048   -1.0701 H   0  0  0  0  0  0  0  0  0  0  0  0
   -4.3020    1.3517    0.5907 H   0  0  0  0  0  0  0  0  0  0  0  0
   -3.2745   -0.8636    0.1601 H   0  0  0  0  0  0  0  0  0  0  0  0
   -2.3613   -0.1749   -1.2038 H   0  0  0  0  0  0  0  0  0  0  0  0
   -1.2448    1.4088    0.3435 H   0  0  0  0  0  0  0  0  0  0  0  0
   -2.1581    0.7201    1.7073 H   0  0  0  0  0  0  0  0  0  0  0  0
    2.1581    0.7201   -1.7073 H   0  0  0  0  0  0  0  0  0  0  0  0
    1.2448    1.4088   -0.3435 H   0  0  0  0  0  0  0  0  0  0  0  0
    2.3613   -0.1749    1.2038 H   0  0  0  0  0  0  0  0  0  0  0  0
    3.2745   -0.8636   -0.1601 H   0  0  0  0  0  0  0  0  0  0  0  0
    4.6352    0.8048    1.0701 H   0  0  0  0  0  0  0  0  0  0  0  0
    4.3020    1.3517   -0.5907 H   0  0  0  0  0  0  0  0  0  0  0  0
    3.3888    2.0404    0.7732 H   0  0  0  0  0  0  0  0  0  0  0  0
  1  2  1  0  0  0  0
  2  3  1  0  0  0  0
  3  4  1  0  0  0  0
  4  5  1  0  0  0  0
  5  6  1  0  0  0  0
  6  7  1  0  0  0  0
  7  8  1  0  0  0  0
  1  9  1  0  0  0  0
  1 10  1  0  0  0  0
  1 11  1  0  0  0  0
  2 12  1  0  0  0  0
  2 13  1  0  0  0  0
  3 14  1  0  0  0  0
  3 15  1  0  0  0  0
  6 16  1  0  0  0  0
  6 17  1  0  0  0  0
  7 18  1  0  0  0  0
  7 19  1  0  0  0  0
  8 20  1  0  0  0  0
  8 21  1  0  0  0  0
  8 22  1  0  0  0  0
M  END
$$$$
