C17H36
APtclcactv06201809233D 0   0.00000     0.00000
 
 53 52  0  0  0  0  0  0  0  0999 V2000
    9.9939   -0.4122   -0.0000 C   0  0  0  0  0  0  0  0  0  0  0  0
    8.7447    0.4711    0.0000 C   0  0  0  0  0  0  0  0  0  0  0  0
    7.4954   -0.4122   -0.0000 C   0  0  0  0  0  0  0  0  0  0  0  0
    6.2462    0.4711    0.0000 C   0  0  0  0  0  0  0  0  0  0  0  0
    4.9970   -0.4122   -0.0000 C   0  0  0  0  0  0  0  0  0  0  0  0
    3.7477    0.4711    0.0000 C   0  0  0  0  0  0  0  0  0  0  0  0
    2.4985   -0.4122   -0.0000 C   0  0  0  0  0  0  0  0  0  0  0  0
    1.2492    0.4711    0.0000 C   0  0  0  0  0  0  0  0  0  0  0  0
    0.0000   -0.4122   -0.0000 C   0  0  0  0  0  0  0  0  0  0  0  0
   -1.2492    0.4711   -0.0000 C   0  0  0  0  0  0  0  0  0  0  0  0
   -2.4985   -0.4122    0.0000 C   0  0  0  0  0  0  0  0  0  0  0  0
   -3.7477    0.4711   -0.0000 C   0  0  0  0  0  0  0  0  0  0  0  0
   -4.9970   -0.4122    0.0000 C   0  0  0  0  0  0  0  0  0  0  0  0
   -6.2462    0.4711   -0.0000 C   0  0  0  0  0  0  0  0  0  0  0  0
   -7.4954   -0.4122    0.0000 C   0  0  0  0  0  0  0  0  0  0  0  0
   -8.7447    0.4711   -0.0000 C   0  0  0  0  0  0  0  0  0  0  0  0
   -9.9939   -0.4122    0.0000 C   0  0  0  0  0  0  0  0  0  0  0  0
    9.9939   -1.0415    0.8900 H   0  0  0  0  0  0  0  0  0  0  0  0
    9.9939   -1.0415   -0.8900 H   0  0  0  0  0  0  0  0  0  0  0  0
   10.8839    0.2171    0.0000 H   0  0  0  0  0  0  0  0  0  0  0  0
    8.7447    1.1005    0.8900 H   0  0  0  0  0  0  0  0  0  0  0  0
    8.7447    1.1005   -0.8900 H   0  0  0  0  0  0  0  0  0  0  0  0
    7.4954   -1.0415   -0.8900 H   0  0  0  0  0  0  0  0  0  0  0  0
    7.4954   -1.0415    0.8900 H   0  0  0  0  0  0  0  0  0  0  0  0
    6.2462    1.1005    0.8900 H   0  0  0  0  0  0  0  0  0  0  0  0
    6.2462    1.1005   -0.8900 H   0  0  0  0  0  0  0  0  0  0  0  0
    4.9970   -1.0415   -0.8900 H   0  0  0  0  0  0  0  0  0  0  0  0
    4.9970   -1.0415    0.8900 H   0  0  0  0  0  0  0  0  0  0  0  0
    3.7477    1.1005    0.8900 H   0  0  0  0  0  0  0  0  0  0  0  0
    3.7477    1.1005   -0.8900 H   0  0  0  0  0  0  0  0  0  0  0  0
    2.4985   -1.0415   -0.8900 H   0  0  0  0  0  0  0  0  0  0  0  0
    2.4985   -1.0415    0.8900 H   0  0  0  0  0  0  0  0  0  0  0  0
    1.2492    1.1005    0.8900 H   0  0  0  0  0  0  0  0  0  0  0  0
    1.2492    1.1005   -0.8900 H   0  0  0  0  0  0  0  0  0  0  0  0
    0.0000   -1.0415   -0.8900 H   0  0  0  0  0  0  0  0  0  0  0  0
   -0.0000   -1.0415    0.8900 H   0  0  0  0  0  0  0  0  0  0  0  0
   -1.2492    1.1005    0.8900 H   0  0  0  0  0  0  0  0  0  0  0  0
   -1.2492    1.1005   -0.8900 H   0  0  0  0  0  0  0  0  0  0  0  0
   -2.4985   -1.0415   -0.8900 H   0  0  0  0  0  0  0  0  0  0  0  0
   -2.4985   -1.0415    0.8900 H   0  0  0  0  0  0  0  0  0  0  0  0
   -3.7477    1.1005    0.8900 H   0  0  0  0  0  0  0  0  0  0  0  0
   -3.7477    1.1005   -0.8900 H   0  0  0  0  0  0  0  0  0  0  0  0
   -4.9970   -1.0415   -0.8900 H   0  0  0  0  0  0  0  0  0  0  0  0
   -4.9970   -1.0415    0.8900 H   0  0  0  0  0  0  0  0  0  0  0  0
   -6.2462    1.1005    0.8900 H   0  0  0  0  0  0  0  0  0  0  0  0
   -6.2462    1.1005   -0.8900 H   0  0  0  0  0  0  0  0  0  0  0  0
   -7.4954   -1.0415   -0.8900 H   0  0  0  0  0  0  0  0  0  0  0  0
   -7.4954   -1.0415    0.8900 H   0  0  0  0  0  0  0  0  0  0  0  0
   -8.7447    1.1005    0.8900 H   0  0  0  0  0  0  0  0  0  0  0  0
   -8.7447    1.1005   -0.8900 H   0  0  0  0  0  0  0  0  0  0  0  0
   -9.9939   -1.0415    0.8900 H   0  0  0  0  0  0  0  0  0  0  0  0
  -10.8839    0.2171   -0.0000 H   0  0  0  0  0  0  0  0  0  0  0  0
   -9.9939   -1.0415   -0.8900 H   0  0  0  0  0  0  0  0  0  0  0  0
  1  2  1  0  0  0  0
  2  3  1  0  0  0  0
  3  4  1  0  0  0  0
  4  5  1  0  0  0  0
  5  6  1  0  0  0  0
  6  7  1  0  0  0  0
  7  8  1  0  0  0  0
  8  9  1  0  0  0  0
  9 10  1  0  0  0  0
 10 11  1  0  0  0  0
 11 12  1  0  0  0  0
 12 13  1  0  0  0  0
 13 14  1  0  0  0  0
 14 15  1  0  0  0  0
 15 16  1  0  0  0  0
 16 17  1  0  0  0  0
  1 18  1  0  0  0  0
  1 19  1  0  0  0  0
  1 20  1  0  0  0  0
  2 21  1  0  0  0  0
  2 22  1  0  0  0  0
  3 23  1  0  0  0  0
  3 24  1  0  0  0  0
  4 25  1  0  0  0  0
  4 26  1  0  0  0  0
  5 27  1  0  0  0  0
  5 28  1  0  0  0  0
  6 29  1  0  0  0  0
  6 30  1  0  0  0  0
  7 31  1  0  0  0  0
  7 32  1  0  0  0  0
  8 33  1  0  0  0  0
  8 34  1  0  0  0  0
  9 35  1  0  0  0  0
  9 36  1  0  0  0  0
 10 37  1  0  0  0  0
 10 38  1  0  0  0  0
 11 39  1  0  0  0  0
 11 40  1  0  0  0  0
 12 41  1  0  0  0  0
 12 42  1  0  0  0  0
 13 43  1  0  0  0  0
 13 44  1  0  0  0  0
 14 45  1  0  0  0  0
 14 46  1  0  0  0  0
 15 47  1  0  0  0  0
 15 48  1  0  0  0  0
 16 49  1  0  0  0  0
 16 50  1  0  0  0  0
 17 51  1  0  0  0  0
 17 52  1  0  0  0  0
 17 53  1  0  0  0  0
M  END
$$$$
