C15H32O
APtclcactv06211806043D 0   0.00000     0.00000
 
 48 47  0  0  0  0  0  0  0  0999 V2000
    9.4469   -0.3645   -0.0000 C   0  0  0  0  0  0  0  0  0  0  0  0
    8.1910    0.5093    0.0000 C   0  0  0  0  0  0  0  0  0  0  0  0
    6.9485   -0.3835   -0.0000 C   0  0  0  0  0  0  0  0  0  0  0  0
    5.6926    0.4904    0.0000 C   0  0  0  0  0  0  0  0  0  0  0  0
    4.4501   -0.4024   -0.0000 C   0  0  0  0  0  0  0  0  0  0  0  0
    3.1942    0.4714    0.0000 C   0  0  0  0  0  0  0  0  0  0  0  0
    1.9517   -0.4214   -0.0000 C   0  0  0  0  0  0  0  0  0  0  0  0
    0.6958    0.4525    0.0000 C   0  0  0  0  0  0  0  0  0  0  0  0
   -0.5467   -0.4404    0.0000 C   0  0  0  0  0  0  0  0  0  0  0  0
   -1.8026    0.4335   -0.0000 C   0  0  0  0  0  0  0  0  0  0  0  0
   -3.0451   -0.4593    0.0000 C   0  0  0  0  0  0  0  0  0  0  0  0
   -4.3010    0.4145   -0.0000 C   0  0  0  0  0  0  0  0  0  0  0  0
   -5.5435   -0.4783    0.0000 C   0  0  0  0  0  0  0  0  0  0  0  0
   -6.7994    0.3956   -0.0000 C   0  0  0  0  0  0  0  0  0  0  0  0
   -8.0419   -0.4972    0.0000 C   0  0  0  0  0  0  0  0  0  0  0  0
   -9.2149    0.3189   -0.0000 O   0  0  0  0  0  0  0  0  0  0  0  0
    9.4517   -0.9938    0.8900 H   0  0  0  0  0  0  0  0  0  0  0  0
    9.4517   -0.9938   -0.8900 H   0  0  0  0  0  0  0  0  0  0  0  0
   10.3321    0.2715    0.0000 H   0  0  0  0  0  0  0  0  0  0  0  0
    8.1862    1.1386    0.8900 H   0  0  0  0  0  0  0  0  0  0  0  0
    8.1862    1.1386   -0.8900 H   0  0  0  0  0  0  0  0  0  0  0  0
    6.9533   -1.0128   -0.8900 H   0  0  0  0  0  0  0  0  0  0  0  0
    6.9533   -1.0128    0.8900 H   0  0  0  0  0  0  0  0  0  0  0  0
    5.6878    1.1197    0.8900 H   0  0  0  0  0  0  0  0  0  0  0  0
    5.6878    1.1197   -0.8900 H   0  0  0  0  0  0  0  0  0  0  0  0
    4.4549   -1.0317   -0.8900 H   0  0  0  0  0  0  0  0  0  0  0  0
    4.4549   -1.0317    0.8900 H   0  0  0  0  0  0  0  0  0  0  0  0
    3.1894    1.1007    0.8900 H   0  0  0  0  0  0  0  0  0  0  0  0
    3.1894    1.1007   -0.8900 H   0  0  0  0  0  0  0  0  0  0  0  0
    1.9565   -1.0507   -0.8900 H   0  0  0  0  0  0  0  0  0  0  0  0
    1.9565   -1.0507    0.8900 H   0  0  0  0  0  0  0  0  0  0  0  0
    0.6910    1.0817    0.8900 H   0  0  0  0  0  0  0  0  0  0  0  0
    0.6910    1.0817   -0.8900 H   0  0  0  0  0  0  0  0  0  0  0  0
   -0.5419   -1.0696   -0.8900 H   0  0  0  0  0  0  0  0  0  0  0  0
   -0.5419   -1.0696    0.8900 H   0  0  0  0  0  0  0  0  0  0  0  0
   -1.8074    1.0628    0.8900 H   0  0  0  0  0  0  0  0  0  0  0  0
   -1.8074    1.0628   -0.8900 H   0  0  0  0  0  0  0  0  0  0  0  0
   -3.0404   -1.0886   -0.8900 H   0  0  0  0  0  0  0  0  0  0  0  0
   -3.0404   -1.0886    0.8900 H   0  0  0  0  0  0  0  0  0  0  0  0
   -4.3058    1.0438    0.8900 H   0  0  0  0  0  0  0  0  0  0  0  0
   -4.3058    1.0438   -0.8900 H   0  0  0  0  0  0  0  0  0  0  0  0
   -5.5388   -1.1076   -0.8900 H   0  0  0  0  0  0  0  0  0  0  0  0
   -5.5388   -1.1076    0.8900 H   0  0  0  0  0  0  0  0  0  0  0  0
   -6.8042    1.0249    0.8900 H   0  0  0  0  0  0  0  0  0  0  0  0
   -6.8042    1.0249   -0.8900 H   0  0  0  0  0  0  0  0  0  0  0  0
   -8.0372   -1.1265   -0.8900 H   0  0  0  0  0  0  0  0  0  0  0  0
   -8.0372   -1.1265    0.8900 H   0  0  0  0  0  0  0  0  0  0  0  0
  -10.0423   -0.1816    0.0000 H   0  0  0  0  0  0  0  0  0  0  0  0
  1  2  1  0  0  0  0
  2  3  1  0  0  0  0
  3  4  1  0  0  0  0
  4  5  1  0  0  0  0
  5  6  1  0  0  0  0
  6  7  1  0  0  0  0
  7  8  1  0  0  0  0
  8  9  1  0  0  0  0
  9 10  1  0  0  0  0
 10 11  1  0  0  0  0
 11 12  1  0  0  0  0
 12 13  1  0  0  0  0
 13 14  1  0  0  0  0
 14 15  1  0  0  0  0
 15 16  1  0  0  0  0
  1 17  1  0  0  0  0
  1 18  1  0  0  0  0
  1 19  1  0  0  0  0
  2 20  1  0  0  0  0
  2 21  1  0  0  0  0
  3 22  1  0  0  0  0
  3 23  1  0  0  0  0
  4 24  1  0  0  0  0
  4 25  1  0  0  0  0
  5 26  1  0  0  0  0
  5 27  1  0  0  0  0
  6 28  1  0  0  0  0
  6 29  1  0  0  0  0
  7 30  1  0  0  0  0
  7 31  1  0  0  0  0
  8 32  1  0  0  0  0
  8 33  1  0  0  0  0
  9 34  1  0  0  0  0
  9 35  1  0  0  0  0
 10 36  1  0  0  0  0
 10 37  1  0  0  0  0
 11 38  1  0  0  0  0
 11 39  1  0  0  0  0
 12 40  1  0  0  0  0
 12 41  1  0  0  0  0
 13 42  1  0  0  0  0
 13 43  1  0  0  0  0
 14 44  1  0  0  0  0
 14 45  1  0  0  0  0
 15 46  1  0  0  0  0
 15 47  1  0  0  0  0
 16 48  1  0  0  0  0
M  END
$$$$
