C16H32
APtclcactv06211806043D 0   0.00000     0.00000
 
 48 47  0  0  0  0  0  0  0  0999 V2000
    9.2657    0.4305   -0.0782 C   0  0  0  0  0  0  0  0  0  0  0  0
    8.0194   -0.4570   -0.0883 C   0  0  0  0  0  0  0  0  0  0  0  0
    6.7675    0.4211   -0.0378 C   0  0  0  0  0  0  0  0  0  0  0  0
    5.5213   -0.4665   -0.0479 C   0  0  0  0  0  0  0  0  0  0  0  0
    4.2694    0.4116    0.0026 C   0  0  0  0  0  0  0  0  0  0  0  0
    3.0232   -0.4760   -0.0075 C   0  0  0  0  0  0  0  0  0  0  0  0
    1.7713    0.4021    0.0430 C   0  0  0  0  0  0  0  0  0  0  0  0
    0.5250   -0.4854    0.0329 C   0  0  0  0  0  0  0  0  0  0  0  0
   -0.7269    0.3927    0.0834 C   0  0  0  0  0  0  0  0  0  0  0  0
   -1.9731   -0.4949    0.0733 C   0  0  0  0  0  0  0  0  0  0  0  0
   -3.2250    0.3832    0.1238 C   0  0  0  0  0  0  0  0  0  0  0  0
   -4.4712   -0.5043    0.1137 C   0  0  0  0  0  0  0  0  0  0  0  0
   -5.7232    0.3738    0.1642 C   0  0  0  0  0  0  0  0  0  0  0  0
   -6.9694   -0.5138    0.1541 C   0  0  0  0  0  0  0  0  0  0  0  0
   -8.2025    0.3511    0.2039 C   0  0  0  0  0  0  0  0  0  0  0  0
   -9.1275    0.2265   -0.7153 C   0  0  0  0  0  0  0  0  0  0  0  0
    9.2781    1.0289    0.8328 H   0  0  0  0  0  0  0  0  0  0  0  0
   10.1575   -0.1951   -0.1142 H   0  0  0  0  0  0  0  0  0  0  0  0
    9.2491    1.0900   -0.9459 H   0  0  0  0  0  0  0  0  0  0  0  0
    8.0070   -1.0555   -0.9992 H   0  0  0  0  0  0  0  0  0  0  0  0
    8.0360   -1.1165    0.7794 H   0  0  0  0  0  0  0  0  0  0  0  0
    6.7800    1.0195    0.8732 H   0  0  0  0  0  0  0  0  0  0  0  0
    6.7510    1.0805   -0.9055 H   0  0  0  0  0  0  0  0  0  0  0  0
    5.5088   -1.0649   -0.9588 H   0  0  0  0  0  0  0  0  0  0  0  0
    5.5378   -1.1259    0.8198 H   0  0  0  0  0  0  0  0  0  0  0  0
    4.2819    1.0100    0.9136 H   0  0  0  0  0  0  0  0  0  0  0  0
    4.2529    1.0710   -0.8651 H   0  0  0  0  0  0  0  0  0  0  0  0
    3.0107   -1.0744   -0.9184 H   0  0  0  0  0  0  0  0  0  0  0  0
    3.0397   -1.1354    0.8602 H   0  0  0  0  0  0  0  0  0  0  0  0
    1.7837    1.0006    0.9540 H   0  0  0  0  0  0  0  0  0  0  0  0
    1.7547    1.0616   -0.8247 H   0  0  0  0  0  0  0  0  0  0  0  0
    0.5126   -1.0838   -0.8780 H   0  0  0  0  0  0  0  0  0  0  0  0
    0.5416   -1.1449    0.9006 H   0  0  0  0  0  0  0  0  0  0  0  0
   -0.7144    0.9911    0.9944 H   0  0  0  0  0  0  0  0  0  0  0  0
   -0.7434    1.0521   -0.7843 H   0  0  0  0  0  0  0  0  0  0  0  0
   -1.9856   -1.0933   -0.8376 H   0  0  0  0  0  0  0  0  0  0  0  0
   -1.9566   -1.1543    0.9410 H   0  0  0  0  0  0  0  0  0  0  0  0
   -3.2126    0.9817    1.0348 H   0  0  0  0  0  0  0  0  0  0  0  0
   -3.2415    1.0427   -0.7439 H   0  0  0  0  0  0  0  0  0  0  0  0
   -4.4837   -1.1028   -0.7972 H   0  0  0  0  0  0  0  0  0  0  0  0
   -4.4547   -1.1638    0.9814 H   0  0  0  0  0  0  0  0  0  0  0  0
   -5.7107    0.9722    1.0752 H   0  0  0  0  0  0  0  0  0  0  0  0
   -5.7397    1.0332   -0.7035 H   0  0  0  0  0  0  0  0  0  0  0  0
   -6.9818   -1.1122   -0.7568 H   0  0  0  0  0  0  0  0  0  0  0  0
   -6.9528   -1.1732    1.0218 H   0  0  0  0  0  0  0  0  0  0  0  0
   -8.3236    1.0737    0.9974 H   0  0  0  0  0  0  0  0  0  0  0  0
   -9.0064   -0.4961   -1.5088 H   0  0  0  0  0  0  0  0  0  0  0  0
  -10.0112    0.8463   -0.6796 H   0  0  0  0  0  0  0  0  0  0  0  0
  1  2  1  0  0  0  0
  2  3  1  0  0  0  0
  3  4  1  0  0  0  0
  4  5  1  0  0  0  0
  5  6  1  0  0  0  0
  6  7  1  0  0  0  0
  7  8  1  0  0  0  0
  8  9  1  0  0  0  0
  9 10  1  0  0  0  0
 10 11  1  0  0  0  0
 11 12  1  0  0  0  0
 12 13  1  0  0  0  0
 13 14  1  0  0  0  0
 14 15  1  0  0  0  0
 15 16  2  0  0  0  0
  1 17  1  0  0  0  0
  1 18  1  0  0  0  0
  1 19  1  0  0  0  0
  2 20  1  0  0  0  0
  2 21  1  0  0  0  0
  3 22  1  0  0  0  0
  3 23  1  0  0  0  0
  4 24  1  0  0  0  0
  4 25  1  0  0  0  0
  5 26  1  0  0  0  0
  5 27  1  0  0  0  0
  6 28  1  0  0  0  0
  6 29  1  0  0  0  0
  7 30  1  0  0  0  0
  7 31  1  0  0  0  0
  8 32  1  0  0  0  0
  8 33  1  0  0  0  0
  9 34  1  0  0  0  0
  9 35  1  0  0  0  0
 10 36  1  0  0  0  0
 10 37  1  0  0  0  0
 11 38  1  0  0  0  0
 11 39  1  0  0  0  0
 12 40  1  0  0  0  0
 12 41  1  0  0  0  0
 13 42  1  0  0  0  0
 13 43  1  0  0  0  0
 14 44  1  0  0  0  0
 14 45  1  0  0  0  0
 15 46  1  0  0  0  0
 16 47  1  0  0  0  0
 16 48  1  0  0  0  0
M  END
$$$$
