C21H24O6
APtclcactv06211806383D 0   0.00000     0.00000
 
 51 52  0  0  0  0  0  0  0  0999 V2000
    6.8331    3.1001   -0.2911 C   0  0  0  0  0  0  0  0  0  0  0  0
    7.5405    1.9982    0.2813 O   0  0  0  0  0  0  0  0  0  0  0  0
    6.9225    0.7871    0.2549 C   0  0  0  0  0  0  0  0  0  0  0  0
    7.5535   -0.3296    0.7947 C   0  0  0  0  0  0  0  0  0  0  0  0
    6.9195   -1.5613    0.7659 C   0  0  0  0  0  0  0  0  0  0  0  0
    5.6629   -1.6789    0.2017 C   0  0  0  0  0  0  0  0  0  0  0  0
    5.0362   -0.5696   -0.3349 C   0  0  0  0  0  0  0  0  0  0  0  0
    5.6608    0.6634   -0.3043 C   0  0  0  0  0  0  0  0  0  0  0  0
    3.6668   -0.7036   -0.9496 C   0  0  0  0  0  0  0  0  0  0  0  0
    2.6012   -0.4695    0.1231 C   0  0  0  0  0  0  0  0  0  0  0  0
    1.2318   -0.6036   -0.4915 C   0  0  0  0  0  0  0  0  0  0  0  0
    1.1196   -0.8598   -1.6663 O   0  0  0  0  0  0  0  0  0  0  0  0
    0.0023   -0.4178    0.3599 C   0  0  0  0  0  0  0  0  0  0  0  0
   -1.2291   -0.6029   -0.4889 C   0  0  0  0  0  0  0  0  0  0  0  0
   -1.1197   -0.8592   -1.6639 O   0  0  0  0  0  0  0  0  0  0  0  0
   -2.5972   -0.4681    0.1287 C   0  0  0  0  0  0  0  0  0  0  0  0
   -3.6652   -0.7015   -0.9417 C   0  0  0  0  0  0  0  0  0  0  0  0
   -5.0332   -0.5668   -0.3242 C   0  0  0  0  0  0  0  0  0  0  0  0
   -5.6592    0.6655   -0.2969 C   0  0  0  0  0  0  0  0  0  0  0  0
   -6.9171    0.7911    0.2706 C   0  0  0  0  0  0  0  0  0  0  0  0
   -7.5474   -0.3251    0.8121 C   0  0  0  0  0  0  0  0  0  0  0  0
   -6.9143   -1.5573    0.7815 C   0  0  0  0  0  0  0  0  0  0  0  0
   -5.6618   -1.6768    0.2088 C   0  0  0  0  0  0  0  0  0  0  0  0
   -8.7817   -0.2068    1.3705 O   0  0  0  0  0  0  0  0  0  0  0  0
   -7.5341    2.0027    0.2986 O   0  0  0  0  0  0  0  0  0  0  0  0
   -6.8274    3.1041   -0.2753 C   0  0  0  0  0  0  0  0  0  0  0  0
    8.7899   -0.2123    1.3489 O   0  0  0  0  0  0  0  0  0  0  0  0
    7.4365    4.0037   -0.2046 H   0  0  0  0  0  0  0  0  0  0  0  0
    6.6328    2.8962   -1.3430 H   0  0  0  0  0  0  0  0  0  0  0  0
    5.8903    3.2407    0.2376 H   0  0  0  0  0  0  0  0  0  0  0  0
    7.4072   -2.4296    1.1838 H   0  0  0  0  0  0  0  0  0  0  0  0
    5.1698   -2.6395    0.1799 H   0  0  0  0  0  0  0  0  0  0  0  0
    5.1689    1.5285   -0.7238 H   0  0  0  0  0  0  0  0  0  0  0  0
    3.5511    0.0341   -1.7436 H   0  0  0  0  0  0  0  0  0  0  0  0
    3.5511   -1.7049   -1.3643 H   0  0  0  0  0  0  0  0  0  0  0  0
    2.7168   -1.2072    0.9172 H   0  0  0  0  0  0  0  0  0  0  0  0
    2.7169    0.5318    0.5378 H   0  0  0  0  0  0  0  0  0  0  0  0
    0.0029   -1.1532    1.1644 H   0  0  0  0  0  0  0  0  0  0  0  0
    0.0030    0.5859    0.7851 H   0  0  0  0  0  0  0  0  0  0  0  0
   -2.7115   -1.2057    0.9230 H   0  0  0  0  0  0  0  0  0  0  0  0
   -2.7114    0.5333    0.5436 H   0  0  0  0  0  0  0  0  0  0  0  0
   -3.5508    0.0361   -1.7360 H   0  0  0  0  0  0  0  0  0  0  0  0
   -3.5509   -1.7030   -1.3567 H   0  0  0  0  0  0  0  0  0  0  0  0
   -5.1678    1.5303   -0.7175 H   0  0  0  0  0  0  0  0  0  0  0  0
   -7.4012   -2.4251    1.2014 H   0  0  0  0  0  0  0  0  0  0  0  0
   -5.1694   -2.6378    0.1856 H   0  0  0  0  0  0  0  0  0  0  0  0
   -9.5095   -0.3433    0.7486 H   0  0  0  0  0  0  0  0  0  0  0  0
   -5.8833    3.2440    0.2511 H   0  0  0  0  0  0  0  0  0  0  0  0
   -6.6298    2.9003   -1.3277 H   0  0  0  0  0  0  0  0  0  0  0  0
   -7.4300    4.0081   -0.1872 H   0  0  0  0  0  0  0  0  0  0  0  0
    8.7795   -0.0070    2.2938 H   0  0  0  0  0  0  0  0  0  0  0  0
  1  2  1  0  0  0  0
  2  3  1  0  0  0  0
  3  4  2  0  0  0  0
  4  5  1  0  0  0  0
  5  6  2  0  0  0  0
  6  7  1  0  0  0  0
  7  8  2  0  0  0  0
  3  8  1  0  0  0  0
  7  9  1  0  0  0  0
  9 10  1  0  0  0  0
 10 11  1  0  0  0  0
 11 12  2  0  0  0  0
 11 13  1  0  0  0  0
 13 14  1  0  0  0  0
 14 15  2  0  0  0  0
 14 16  1  0  0  0  0
 16 17  1  0  0  0  0
 17 18  1  0  0  0  0
 18 19  2  0  0  0  0
 19 20  1  0  0  0  0
 20 21  2  0  0  0  0
 21 22  1  0  0  0  0
 22 23  2  0  0  0  0
 18 23  1  0  0  0  0
 21 24  1  0  0  0  0
 20 25  1  0  0  0  0
 25 26  1  0  0  0  0
  4 27  1  0  0  0  0
  1 28  1  0  0  0  0
  1 29  1  0  0  0  0
  1 30  1  0  0  0  0
  5 31  1  0  0  0  0
  6 32  1  0  0  0  0
  8 33  1  0  0  0  0
  9 34  1  0  0  0  0
  9 35  1  0  0  0  0
 10 36  1  0  0  0  0
 10 37  1  0  0  0  0
 13 38  1  0  0  0  0
 13 39  1  0  0  0  0
 16 40  1  0  0  0  0
 16 41  1  0  0  0  0
 17 42  1  0  0  0  0
 17 43  1  0  0  0  0
 19 44  1  0  0  0  0
 22 45  1  0  0  0  0
 23 46  1  0  0  0  0
 24 47  1  0  0  0  0
 26 48  1  0  0  0  0
 26 49  1  0  0  0  0
 26 50  1  0  0  0  0
 27 51  1  0  0  0  0
M  END
$$$$
