C20H20O4
APtclcactv06211806383D 0   0.00000     0.00000
 
 44 46  0  0  0  0  0  0  0  0999 V2000
    1.3526   -3.3371    0.3211 C   0  0  0  0  0  0  0  0  0  0  0  0
    0.2327   -3.4798   -0.6772 C   0  0  0  0  0  0  0  0  0  0  0  0
   -0.9579   -3.0103   -0.3975 C   0  0  0  0  0  0  0  0  0  0  0  0
   -1.1794   -2.2242    0.8690 C   0  0  0  0  0  0  0  0  0  0  0  0
   -1.8132   -0.8988    0.5332 C   0  0  0  0  0  0  0  0  0  0  0  0
   -3.1968   -0.7832    0.4940 C   0  0  0  0  0  0  0  0  0  0  0  0
   -3.7985    0.4312    0.1871 C   0  0  0  0  0  0  0  0  0  0  0  0
   -3.0193    1.5410   -0.0865 C   0  0  0  0  0  0  0  0  0  0  0  0
   -1.6203    1.4291   -0.0529 C   0  0  0  0  0  0  0  0  0  0  0  0
   -1.0150    0.2006    0.2705 C   0  0  0  0  0  0  0  0  0  0  0  0
    0.3329    0.0851    0.3216 O   0  0  0  0  0  0  0  0  0  0  0  0
    1.1287    1.0231   -0.4025 C   0  0  0  0  0  0  0  0  0  0  0  0
    0.7052    2.4494   -0.0225 C   0  0  0  0  0  0  0  0  0  0  0  0
   -0.7694    2.5858   -0.3530 C   0  0  0  0  0  0  0  0  0  0  0  0
   -1.2215    3.5980   -0.8472 O   0  0  0  0  0  0  0  0  0  0  0  0
    2.5819    0.8213   -0.0580 C   0  0  0  0  0  0  0  0  0  0  0  0
    3.5536    1.0097   -1.0230 C   0  0  0  0  0  0  0  0  0  0  0  0
    4.8865    0.8246   -0.7071 C   0  0  0  0  0  0  0  0  0  0  0  0
    5.2479    0.4516    0.5740 C   0  0  0  0  0  0  0  0  0  0  0  0
    4.2762    0.2640    1.5392 C   0  0  0  0  0  0  0  0  0  0  0  0
    2.9436    0.4534    1.2244 C   0  0  0  0  0  0  0  0  0  0  0  0
   -3.6026    2.7283   -0.3853 O   0  0  0  0  0  0  0  0  0  0  0  0
   -3.9688   -1.8673    0.7576 O   0  0  0  0  0  0  0  0  0  0  0  0
    0.4824   -4.1626   -1.9972 C   0  0  0  0  0  0  0  0  0  0  0  0
    1.0455   -3.7653    1.2753 H   0  0  0  0  0  0  0  0  0  0  0  0
    2.2350   -3.8617   -0.0453 H   0  0  0  0  0  0  0  0  0  0  0  0
    1.5873   -2.2812    0.4554 H   0  0  0  0  0  0  0  0  0  0  0  0
   -1.7806   -3.1866   -1.0745 H   0  0  0  0  0  0  0  0  0  0  0  0
   -1.8378   -2.7837    1.5335 H   0  0  0  0  0  0  0  0  0  0  0  0
   -0.2229   -2.0546    1.3634 H   0  0  0  0  0  0  0  0  0  0  0  0
   -4.8754    0.5085    0.1617 H   0  0  0  0  0  0  0  0  0  0  0  0
    0.9839    0.8735   -1.4724 H   0  0  0  0  0  0  0  0  0  0  0  0
    0.8595    2.6106    1.0444 H   0  0  0  0  0  0  0  0  0  0  0  0
    1.2841    3.1736   -0.5957 H   0  0  0  0  0  0  0  0  0  0  0  0
    3.2713    1.3012   -2.0239 H   0  0  0  0  0  0  0  0  0  0  0  0
    5.6456    0.9711   -1.4612 H   0  0  0  0  0  0  0  0  0  0  0  0
    6.2892    0.3063    0.8206 H   0  0  0  0  0  0  0  0  0  0  0  0
    4.5585   -0.0277    2.5400 H   0  0  0  0  0  0  0  0  0  0  0  0
    2.1845    0.3069    1.9786 H   0  0  0  0  0  0  0  0  0  0  0  0
   -3.7755    3.2865    0.3851 H   0  0  0  0  0  0  0  0  0  0  0  0
   -4.1991   -1.9685    1.6913 H   0  0  0  0  0  0  0  0  0  0  0  0
    1.5228   -4.4837   -2.0491 H   0  0  0  0  0  0  0  0  0  0  0  0
   -0.1706   -5.0307   -2.0865 H   0  0  0  0  0  0  0  0  0  0  0  0
    0.2758   -3.4672   -2.8107 H   0  0  0  0  0  0  0  0  0  0  0  0
  1  2  1  0  0  0  0
  2  3  2  0  0  0  0
  3  4  1  0  0  0  0
  4  5  1  0  0  0  0
  5  6  2  0  0  0  0
  6  7  1  0  0  0  0
  7  8  2  0  0  0  0
  8  9  1  0  0  0  0
  9 10  2  0  0  0  0
  5 10  1  0  0  0  0
 10 11  1  0  0  0  0
 11 12  1  0  0  0  0
 12 13  1  0  0  0  0
 13 14  1  0  0  0  0
  9 14  1  0  0  0  0
 14 15  2  0  0  0  0
 12 16  1  0  0  0  0
 16 17  2  0  0  0  0
 17 18  1  0  0  0  0
 18 19  2  0  0  0  0
 19 20  1  0  0  0  0
 20 21  2  0  0  0  0
 16 21  1  0  0  0  0
  8 22  1  0  0  0  0
  6 23  1  0  0  0  0
  2 24  1  0  0  0  0
  1 25  1  0  0  0  0
  1 26  1  0  0  0  0
  1 27  1  0  0  0  0
  3 28  1  0  0  0  0
  4 29  1  0  0  0  0
  4 30  1  0  0  0  0
  7 31  1  0  0  0  0
 12 32  1  0  0  0  0
 13 33  1  0  0  0  0
 13 34  1  0  0  0  0
 17 35  1  0  0  0  0
 18 36  1  0  0  0  0
 19 37  1  0  0  0  0
 20 38  1  0  0  0  0
 21 39  1  0  0  0  0
 22 40  1  0  0  0  0
 23 41  1  0  0  0  0
 24 42  1  0  0  0  0
 24 43  1  0  0  0  0
 24 44  1  0  0  0  0
M  END
$$$$
