C12H11NO4
APtclcactv06211806383D 0   0.00000     0.00000
 
 28 30  0  0  0  0  0  0  0  0999 V2000
   -0.5699    2.7006    0.0455 C   0  0  0  0  0  0  0  0  0  0  0  0
    0.2944    1.5179    0.0251 N   0  0  0  0  0  0  0  0  0  0  0  0
    1.6290    1.6750   -0.0001 C   0  0  0  0  0  0  0  0  0  0  0  0
    2.0934    2.8030   -0.0068 O   0  0  0  0  0  0  0  0  0  0  0  0
    2.5022    0.5780   -0.0185 C   0  0  0  0  0  0  0  0  0  0  0  0
    2.0068   -0.6960   -0.0120 C   0  0  0  0  0  0  0  0  0  0  0  0
    0.5506   -0.8785    0.0144 C   0  0  0  0  0  0  0  0  0  0  0  0
   -0.2760    0.2591    0.0378 C   0  0  0  0  0  0  0  0  0  0  0  0
   -1.6590    0.1005    0.0618 C   0  0  0  0  0  0  0  0  0  0  0  0
   -2.2053   -1.1762    0.0629 C   0  0  0  0  0  0  0  0  0  0  0  0
   -1.3760   -2.2958    0.0403 C   0  0  0  0  0  0  0  0  0  0  0  0
   -0.0184   -2.1558    0.0222 C   0  0  0  0  0  0  0  0  0  0  0  0
   -3.5658   -1.0677    0.0882 O   0  0  0  0  0  0  0  0  0  0  0  0
   -3.8525    0.2856   -0.3105 C   0  0  0  0  0  0  0  0  0  0  0  0
   -2.6749    1.0132    0.0860 O   0  0  0  0  0  0  0  0  0  0  0  0
    2.8386   -1.7631   -0.0299 O   0  0  0  0  0  0  0  0  0  0  0  0
    4.2414   -1.4918   -0.0556 C   0  0  0  0  0  0  0  0  0  0  0  0
    0.0452    3.6003    0.0366 H   0  0  0  0  0  0  0  0  0  0  0  0
   -1.2162    2.6935   -0.8322 H   0  0  0  0  0  0  0  0  0  0  0  0
   -1.1819    2.6878    0.9475 H   0  0  0  0  0  0  0  0  0  0  0  0
    3.5698    0.7401   -0.0381 H   0  0  0  0  0  0  0  0  0  0  0  0
   -1.8117   -3.2840    0.0417 H   0  0  0  0  0  0  0  0  0  0  0  0
    0.6153   -3.0302    0.0043 H   0  0  0  0  0  0  0  0  0  0  0  0
   -3.9948    0.3453   -1.3895 H   0  0  0  0  0  0  0  0  0  0  0  0
   -4.7305    0.6620    0.2144 H   0  0  0  0  0  0  0  0  0  0  0  0
    4.4839   -0.9164   -0.9490 H   0  0  0  0  0  0  0  0  0  0  0  0
    4.5172   -0.9203    0.8306 H   0  0  0  0  0  0  0  0  0  0  0  0
    4.7931   -2.4318   -0.0680 H   0  0  0  0  0  0  0  0  0  0  0  0
  1  2  1  0  0  0  0
  2  3  1  0  0  0  0
  3  4  2  0  0  0  0
  3  5  1  0  0  0  0
  5  6  2  0  0  0  0
  6  7  1  0  0  0  0
  7  8  2  0  0  0  0
  2  8  1  0  0  0  0
  8  9  1  0  0  0  0
  9 10  2  0  0  0  0
 10 11  1  0  0  0  0
 11 12  2  0  0  0  0
  7 12  1  0  0  0  0
 10 13  1  0  0  0  0
 13 14  1  0  0  0  0
 14 15  1  0  0  0  0
  9 15  1  0  0  0  0
  6 16  1  0  0  0  0
 16 17  1  0  0  0  0
  1 18  1  0  0  0  0
  1 19  1  0  0  0  0
  1 20  1  0  0  0  0
  5 21  1  0  0  0  0
 11 22  1  0  0  0  0
 12 23  1  0  0  0  0
 14 24  1  0  0  0  0
 14 25  1  0  0  0  0
 17 26  1  0  0  0  0
 17 27  1  0  0  0  0
 17 28  1  0  0  0  0
M  END
$$$$
