C13H16O10
APtclcactv06211806373D 0   0.00000     0.00000
 
 39 40  0  0  0  0  0  0  0  0999 V2000
    2.9347   -1.1018    0.6827 C   0  0  0  0  0  0  0  0  0  0  0  0
    1.9040   -0.1743    0.5073 C   0  0  0  0  0  0  0  0  0  0  0  0
    2.1684    1.0521   -0.1085 C   0  0  0  0  0  0  0  0  0  0  0  0
    3.4476    1.3446   -0.5423 C   0  0  0  0  0  0  0  0  0  0  0  0
    4.4725    0.4185   -0.3667 C   0  0  0  0  0  0  0  0  0  0  0  0
    4.2121   -0.8041    0.2469 C   0  0  0  0  0  0  0  0  0  0  0  0
    5.2154   -1.7063    0.4169 O   0  0  0  0  0  0  0  0  0  0  0  0
    5.7292    0.7084   -0.7946 O   0  0  0  0  0  0  0  0  0  0  0  0
    3.7055    2.5379   -1.1417 O   0  0  0  0  0  0  0  0  0  0  0  0
    0.5399   -0.4894    0.9708 C   0  0  0  0  0  0  0  0  0  0  0  0
    0.3112   -1.5562    1.5057 O   0  0  0  0  0  0  0  0  0  0  0  0
   -0.4529    0.4057    0.8011 O   0  0  0  0  0  0  0  0  0  0  0  0
   -1.7701    0.0282    1.2816 C   0  0  0  0  0  0  0  0  0  0  0  0
   -2.7312    1.2084    1.1170 C   0  0  0  0  0  0  0  0  0  0  0  0
   -2.8592    1.5489   -0.3710 C   0  0  0  0  0  0  0  0  0  0  0  0
   -3.3313    0.3046   -1.1294 C   0  0  0  0  0  0  0  0  0  0  0  0
   -2.3470   -0.8407   -0.8780 C   0  0  0  0  0  0  0  0  0  0  0  0
   -2.2517   -1.0855    0.5267 O   0  0  0  0  0  0  0  0  0  0  0  0
   -2.8435   -2.1043   -1.5835 C   0  0  0  0  0  0  0  0  0  0  0  0
   -1.8689   -3.1403   -1.4469 O   0  0  0  0  0  0  0  0  0  0  0  0
   -4.6302   -0.0719   -0.6676 O   0  0  0  0  0  0  0  0  0  0  0  0
   -3.8106    2.6016   -0.5403 O   0  0  0  0  0  0  0  0  0  0  0  0
   -4.0141    0.8558    1.6383 O   0  0  0  0  0  0  0  0  0  0  0  0
    2.7342   -2.0485    1.1622 H   0  0  0  0  0  0  0  0  0  0  0  0
    1.3737    1.7705   -0.2456 H   0  0  0  0  0  0  0  0  0  0  0  0
    5.6919   -1.6119    1.2530 H   0  0  0  0  0  0  0  0  0  0  0  0
    6.2790    1.1475   -0.1313 H   0  0  0  0  0  0  0  0  0  0  0  0
    3.9659    3.2382   -0.5278 H   0  0  0  0  0  0  0  0  0  0  0  0
   -1.7080   -0.2459    2.3348 H   0  0  0  0  0  0  0  0  0  0  0  0
   -2.3428    2.0724    1.6563 H   0  0  0  0  0  0  0  0  0  0  0  0
   -1.8904    1.8656   -0.7572 H   0  0  0  0  0  0  0  0  0  0  0  0
   -3.3721    0.5222   -2.1966 H   0  0  0  0  0  0  0  0  0  0  0  0
   -1.3658   -0.5687   -1.2670 H   0  0  0  0  0  0  0  0  0  0  0  0
   -3.7823   -2.4268   -1.1332 H   0  0  0  0  0  0  0  0  0  0  0  0
   -3.0020   -1.8916   -2.6408 H   0  0  0  0  0  0  0  0  0  0  0  0
   -2.1177   -3.9729   -1.8712 H   0  0  0  0  0  0  0  0  0  0  0  0
   -5.3045    0.6100   -0.7912 H   0  0  0  0  0  0  0  0  0  0  0  0
   -3.5781    3.4197   -0.0801 H   0  0  0  0  0  0  0  0  0  0  0  0
   -4.0069    0.6231    2.5769 H   0  0  0  0  0  0  0  0  0  0  0  0
  1  2  2  0  0  0  0
  2  3  1  0  0  0  0
  3  4  2  0  0  0  0
  4  5  1  0  0  0  0
  5  6  2  0  0  0  0
  1  6  1  0  0  0  0
  6  7  1  0  0  0  0
  5  8  1  0  0  0  0
  4  9  1  0  0  0  0
  2 10  1  0  0  0  0
 10 11  2  0  0  0  0
 10 12  1  0  0  0  0
 12 13  1  0  0  0  0
 13 14  1  0  0  0  0
 14 15  1  0  0  0  0
 15 16  1  0  0  0  0
 16 17  1  0  0  0  0
 17 18  1  0  0  0  0
 13 18  1  0  0  0  0
 17 19  1  0  0  0  0
 19 20  1  0  0  0  0
 16 21  1  0  0  0  0
 15 22  1  0  0  0  0
 14 23  1  0  0  0  0
  1 24  1  0  0  0  0
  3 25  1  0  0  0  0
  7 26  1  0  0  0  0
  8 27  1  0  0  0  0
  9 28  1  0  0  0  0
 13 29  1  0  0  0  0
 14 30  1  0  0  0  0
 15 31  1  0  0  0  0
 16 32  1  0  0  0  0
 17 33  1  0  0  0  0
 19 34  1  0  0  0  0
 19 35  1  0  0  0  0
 20 36  1  0  0  0  0
 21 37  1  0  0  0  0
 22 38  1  0  0  0  0
 23 39  1  0  0  0  0
M  END
$$$$
