C44H34O20
APtclcactv06211806373D 0   0.00000     0.00000
 
 98105  0  0  0  0  0  0  0  0999 V2000
   -2.9724    0.9556   -3.1368 C   0  0  0  0  0  0  0  0  0  0  0  0
   -3.2410   -0.4116   -2.5030 C   0  0  0  0  0  0  0  0  0  0  0  0
   -1.8915   -1.0606   -2.1694 C   0  0  0  0  0  0  0  0  0  0  0  0
   -1.2451   -0.2683   -1.1724 O   0  0  0  0  0  0  0  0  0  0  0  0
   -1.1701    1.0728   -1.3764 C   0  0  0  0  0  0  0  0  0  0  0  0
   -1.9740    1.7155   -2.3006 C   0  0  0  0  0  0  0  0  0  0  0  0
   -1.8679    3.0911   -2.4732 C   0  0  0  0  0  0  0  0  0  0  0  0
   -0.9578    3.8206   -1.7262 C   0  0  0  0  0  0  0  0  0  0  0  0
   -0.1491    3.1762   -0.8017 C   0  0  0  0  0  0  0  0  0  0  0  0
   -0.2558    1.8064   -0.6273 C   0  0  0  0  0  0  0  0  0  0  0  0
    0.6229    1.1075    0.3778 C   0  0  0  0  0  0  0  0  0  0  0  0
    1.9995    0.8512   -0.2402 C   0  0  0  0  0  0  0  0  0  0  0  0
    2.7351    2.1929   -0.3507 C   0  0  0  0  0  0  0  0  0  0  0  0
    2.9660    2.6895    0.9683 O   0  0  0  0  0  0  0  0  0  0  0  0
    1.9166    2.7130    1.8309 C   0  0  0  0  0  0  0  0  0  0  0  0
    2.0132    3.5056    2.9694 C   0  0  0  0  0  0  0  0  0  0  0  0
    0.9681    3.5546    3.8775 C   0  0  0  0  0  0  0  0  0  0  0  0
   -0.1799    2.8107    3.6508 C   0  0  0  0  0  0  0  0  0  0  0  0
   -0.2783    2.0225    2.5156 C   0  0  0  0  0  0  0  0  0  0  0  0
    0.7696    1.9732    1.6037 C   0  0  0  0  0  0  0  0  0  0  0  0
   -1.4037    1.2940    2.2932 O   0  0  0  0  0  0  0  0  0  0  0  0
    1.0681    4.3300    4.9889 O   0  0  0  0  0  0  0  0  0  0  0  0
    4.0519    1.9933   -1.0558 C   0  0  0  0  0  0  0  0  0  0  0  0
    4.1707    2.3074   -2.3969 C   0  0  0  0  0  0  0  0  0  0  0  0
    5.3808    2.1245   -3.0467 C   0  0  0  0  0  0  0  0  0  0  0  0
    6.4744    1.6245   -2.3464 C   0  0  0  0  0  0  0  0  0  0  0  0
    6.3486    1.3118   -1.0024 C   0  0  0  0  0  0  0  0  0  0  0  0
    5.1400    1.5019   -0.3588 C   0  0  0  0  0  0  0  0  0  0  0  0
    7.6641    1.4429   -2.9799 O   0  0  0  0  0  0  0  0  0  0  0  0
    5.4992    2.4325   -4.3660 O   0  0  0  0  0  0  0  0  0  0  0  0
    2.7558   -0.0533    0.6072 O   0  0  0  0  0  0  0  0  0  0  0  0
    3.6511   -0.8563   -0.0006 C   0  0  0  0  0  0  0  0  0  0  0  0
    3.7959   -0.8021   -1.2058 O   0  0  0  0  0  0  0  0  0  0  0  0
    4.4553   -1.8008    0.7970 C   0  0  0  0  0  0  0  0  0  0  0  0
    5.3843   -2.6342    0.1679 C   0  0  0  0  0  0  0  0  0  0  0  0
    6.1370   -3.5180    0.9179 C   0  0  0  0  0  0  0  0  0  0  0  0
    5.9704   -3.5787    2.2990 C   0  0  0  0  0  0  0  0  0  0  0  0
    5.0456   -2.7495    2.9284 C   0  0  0  0  0  0  0  0  0  0  0  0
    4.2940   -1.8600    2.1840 C   0  0  0  0  0  0  0  0  0  0  0  0
    4.8854   -2.8114    4.2776 O   0  0  0  0  0  0  0  0  0  0  0  0
    6.7114   -4.4489    3.0339 O   0  0  0  0  0  0  0  0  0  0  0  0
    7.0408   -4.3296    0.3063 O   0  0  0  0  0  0  0  0  0  0  0  0
    0.7468    3.8877   -0.0685 O   0  0  0  0  0  0  0  0  0  0  0  0
   -2.6601    3.7225   -3.3790 O   0  0  0  0  0  0  0  0  0  0  0  0
   -2.1152   -2.4550   -1.6434 C   0  0  0  0  0  0  0  0  0  0  0  0
   -1.9449   -3.5429   -2.4791 C   0  0  0  0  0  0  0  0  0  0  0  0
   -2.1502   -4.8257   -1.9971 C   0  0  0  0  0  0  0  0  0  0  0  0
   -2.5275   -5.0153   -0.6712 C   0  0  0  0  0  0  0  0  0  0  0  0
   -2.6964   -3.9205    0.1612 C   0  0  0  0  0  0  0  0  0  0  0  0
   -2.4846   -2.6437   -0.3245 C   0  0  0  0  0  0  0  0  0  0  0  0
   -2.7306   -6.2723   -0.1935 O   0  0  0  0  0  0  0  0  0  0  0  0
   -1.9836   -5.8970   -2.8181 O   0  0  0  0  0  0  0  0  0  0  0  0
   -4.0173   -0.2437   -1.2875 O   0  0  0  0  0  0  0  0  0  0  0  0
   -5.3590   -0.2679   -1.4103 C   0  0  0  0  0  0  0  0  0  0  0  0
   -5.8663   -0.4250   -2.5032 O   0  0  0  0  0  0  0  0  0  0  0  0
   -6.2116   -0.1037   -0.2183 C   0  0  0  0  0  0  0  0  0  0  0  0
   -7.6033   -0.1286   -0.3441 C   0  0  0  0  0  0  0  0  0  0  0  0
   -8.4000    0.0251    0.7747 C   0  0  0  0  0  0  0  0  0  0  0  0
   -7.8172    0.2046    2.0266 C   0  0  0  0  0  0  0  0  0  0  0  0
   -6.4309    0.2299    2.1549 C   0  0  0  0  0  0  0  0  0  0  0  0
   -5.6294    0.0714    1.0402 C   0  0  0  0  0  0  0  0  0  0  0  0
   -5.8650    0.4054    3.3792 O   0  0  0  0  0  0  0  0  0  0  0  0
   -8.6028    0.3559    3.1249 O   0  0  0  0  0  0  0  0  0  0  0  0
   -9.7543    0.0014    0.6529 O   0  0  0  0  0  0  0  0  0  0  0  0
   -2.5733    0.8175   -4.1417 H   0  0  0  0  0  0  0  0  0  0  0  0
   -3.9036    1.5194   -3.1914 H   0  0  0  0  0  0  0  0  0  0  0  0
   -3.7879   -1.0410   -3.2050 H   0  0  0  0  0  0  0  0  0  0  0  0
   -1.2719   -1.1006   -3.0652 H   0  0  0  0  0  0  0  0  0  0  0  0
   -0.8782    4.8889   -1.8630 H   0  0  0  0  0  0  0  0  0  0  0  0
    0.1684    0.1572    0.6580 H   0  0  0  0  0  0  0  0  0  0  0  0
    1.8815    0.4141   -1.2318 H   0  0  0  0  0  0  0  0  0  0  0  0
    2.1233    2.9022   -0.9082 H   0  0  0  0  0  0  0  0  0  0  0  0
    2.9070    4.0853    3.1467 H   0  0  0  0  0  0  0  0  0  0  0  0
   -0.9955    2.8454    4.3578 H   0  0  0  0  0  0  0  0  0  0  0  0
   -2.0820    1.7624    1.7878 H   0  0  0  0  0  0  0  0  0  0  0  0
    0.7448    5.2334    4.8686 H   0  0  0  0  0  0  0  0  0  0  0  0
    3.3203    2.6949   -2.9381 H   0  0  0  0  0  0  0  0  0  0  0  0
    7.1958    0.9235   -0.4567 H   0  0  0  0  0  0  0  0  0  0  0  0
    5.0432    1.2577    0.6888 H   0  0  0  0  0  0  0  0  0  0  0  0
    8.2476    2.2134   -2.9495 H   0  0  0  0  0  0  0  0  0  0  0  0
    5.7726    3.3448   -4.5339 H   0  0  0  0  0  0  0  0  0  0  0  0
    5.5137   -2.5878   -0.9033 H   0  0  0  0  0  0  0  0  0  0  0  0
    3.5771   -1.2169    2.6727 H   0  0  0  0  0  0  0  0  0  0  0  0
    5.4624   -2.2117    4.7700 H   0  0  0  0  0  0  0  0  0  0  0  0
    7.5494   -4.0835    3.3489 H   0  0  0  0  0  0  0  0  0  0  0  0
    7.9257   -3.9469    0.2314 H   0  0  0  0  0  0  0  0  0  0  0  0
    0.3715    4.2941    0.7247 H   0  0  0  0  0  0  0  0  0  0  0  0
   -3.5024    4.0308   -3.0175 H   0  0  0  0  0  0  0  0  0  0  0  0
   -1.6524   -3.3930   -3.5079 H   0  0  0  0  0  0  0  0  0  0  0  0
   -2.9893   -4.0649    1.1907 H   0  0  0  0  0  0  0  0  0  0  0  0
   -2.6166   -1.7912    0.3253 H   0  0  0  0  0  0  0  0  0  0  0  0
   -1.9391   -6.6838    0.1798 H   0  0  0  0  0  0  0  0  0  0  0  0
   -1.0851   -6.2546   -2.8206 H   0  0  0  0  0  0  0  0  0  0  0  0
   -8.0558   -0.2674   -1.3149 H   0  0  0  0  0  0  0  0  0  0  0  0
   -4.5542    0.0907    1.1404 H   0  0  0  0  0  0  0  0  0  0  0  0
   -5.6969   -0.4186    3.8565 H   0  0  0  0  0  0  0  0  0  0  0  0
   -8.8260   -0.4750    3.5663 H   0  0  0  0  0  0  0  0  0  0  0  0
  -10.1418   -0.8802    0.7408 H   0  0  0  0  0  0  0  0  0  0  0  0
  1  2  1  0  0  0  0
  2  3  1  0  0  0  0
  3  4  1  0  0  0  0
  4  5  1  0  0  0  0
  5  6  2  0  0  0  0
  1  6  1  0  0  0  0
  6  7  1  0  0  0  0
  7  8  2  0  0  0  0
  8  9  1  0  0  0  0
  9 10  2  0  0  0  0
  5 10  1  0  0  0  0
 10 11  1  0  0  0  0
 11 12  1  0  0  0  0
 12 13  1  0  0  0  0
 13 14  1  0  0  0  0
 14 15  1  0  0  0  0
 15 16  2  0  0  0  0
 16 17  1  0  0  0  0
 17 18  2  0  0  0  0
 18 19  1  0  0  0  0
 19 20  2  0  0  0  0
 11 20  1  0  0  0  0
 15 20  1  0  0  0  0
 19 21  1  0  0  0  0
 17 22  1  0  0  0  0
 13 23  1  0  0  0  0
 23 24  2  0  0  0  0
 24 25  1  0  0  0  0
 25 26  2  0  0  0  0
 26 27  1  0  0  0  0
 27 28  2  0  0  0  0
 23 28  1  0  0  0  0
 26 29  1  0  0  0  0
 25 30  1  0  0  0  0
 12 31  1  0  0  0  0
 31 32  1  0  0  0  0
 32 33  2  0  0  0  0
 32 34  1  0  0  0  0
 34 35  2  0  0  0  0
 35 36  1  0  0  0  0
 36 37  2  0  0  0  0
 37 38  1  0  0  0  0
 38 39  2  0  0  0  0
 34 39  1  0  0  0  0
 38 40  1  0  0  0  0
 37 41  1  0  0  0  0
 36 42  1  0  0  0  0
  9 43  1  0  0  0  0
  7 44  1  0  0  0  0
  3 45  1  0  0  0  0
 45 46  2  0  0  0  0
 46 47  1  0  0  0  0
 47 48  2  0  0  0  0
 48 49  1  0  0  0  0
 49 50  2  0  0  0  0
 45 50  1  0  0  0  0
 48 51  1  0  0  0  0
 47 52  1  0  0  0  0
  2 53  1  0  0  0  0
 53 54  1  0  0  0  0
 54 55  2  0  0  0  0
 54 56  1  0  0  0  0
 56 57  2  0  0  0  0
 57 58  1  0  0  0  0
 58 59  2  0  0  0  0
 59 60  1  0  0  0  0
 60 61  2  0  0  0  0
 56 61  1  0  0  0  0
 60 62  1  0  0  0  0
 59 63  1  0  0  0  0
 58 64  1  0  0  0  0
  1 65  1  0  0  0  0
  1 66  1  0  0  0  0
  2 67  1  0  0  0  0
  3 68  1  0  0  0  0
  8 69  1  0  0  0  0
 11 70  1  0  0  0  0
 12 71  1  0  0  0  0
 13 72  1  0  0  0  0
 16 73  1  0  0  0  0
 18 74  1  0  0  0  0
 21 75  1  0  0  0  0
 22 76  1  0  0  0  0
 24 77  1  0  0  0  0
 27 78  1  0  0  0  0
 28 79  1  0  0  0  0
 29 80  1  0  0  0  0
 30 81  1  0  0  0  0
 35 82  1  0  0  0  0
 39 83  1  0  0  0  0
 40 84  1  0  0  0  0
 41 85  1  0  0  0  0
 42 86  1  0  0  0  0
 43 87  1  0  0  0  0
 44 88  1  0  0  0  0
 46 89  1  0  0  0  0
 49 90  1  0  0  0  0
 50 91  1  0  0  0  0
 51 92  1  0  0  0  0
 52 93  1  0  0  0  0
 57 94  1  0  0  0  0
 61 95  1  0  0  0  0
 62 96  1  0  0  0  0
 63 97  1  0  0  0  0
 64 98  1  0  0  0  0
M  END
$$$$
