C9H16O
APtclcactv06281817373D 0   0.00000     0.00000
 
 26 25  0  0  0  0  0  0  0  0999 V2000
    5.0863   -0.3756   -0.0000 C   0  0  0  0  0  0  0  0  0  0  0  0
    3.7923    0.4408    0.0000 C   0  0  0  0  0  0  0  0  0  0  0  0
    2.5913   -0.5071   -0.0000 C   0  0  0  0  0  0  0  0  0  0  0  0
    1.2973    0.3093    0.0000 C   0  0  0  0  0  0  0  0  0  0  0  0
    0.0963   -0.6385    0.0000 C   0  0  0  0  0  0  0  0  0  0  0  0
   -1.1783    0.1656    0.0000 C   0  0  0  0  0  0  0  0  0  0  0  0
   -1.1307    1.3779   -0.0000 O   0  0  0  0  0  0  0  0  0  0  0  0
   -2.4726   -0.5154    0.0000 C   0  0  0  0  0  0  0  0  0  0  0  0
   -3.6014    0.1967   -0.0000 C   0  0  0  0  0  0  0  0  0  0  0  0
   -4.9350   -0.5050    0.0000 C   0  0  0  0  0  0  0  0  0  0  0  0
    5.9419    0.2996    0.0000 H   0  0  0  0  0  0  0  0  0  0  0  0
    5.1194   -1.0041    0.8900 H   0  0  0  0  0  0  0  0  0  0  0  0
    5.1194   -1.0041   -0.8900 H   0  0  0  0  0  0  0  0  0  0  0  0
    3.7592    1.0692    0.8900 H   0  0  0  0  0  0  0  0  0  0  0  0
    3.7592    1.0692   -0.8900 H   0  0  0  0  0  0  0  0  0  0  0  0
    2.6244   -1.1355   -0.8900 H   0  0  0  0  0  0  0  0  0  0  0  0
    2.6244   -1.1355    0.8900 H   0  0  0  0  0  0  0  0  0  0  0  0
    1.2642    0.9377    0.8900 H   0  0  0  0  0  0  0  0  0  0  0  0
    1.2642    0.9377   -0.8900 H   0  0  0  0  0  0  0  0  0  0  0  0
    0.1294   -1.2670   -0.8900 H   0  0  0  0  0  0  0  0  0  0  0  0
    0.1294   -1.2670    0.8900 H   0  0  0  0  0  0  0  0  0  0  0  0
   -2.5150   -1.5946    0.0000 H   0  0  0  0  0  0  0  0  0  0  0  0
   -3.5590    1.2759   -0.0000 H   0  0  0  0  0  0  0  0  0  0  0  0
   -5.0173   -1.1289   -0.8900 H   0  0  0  0  0  0  0  0  0  0  0  0
   -5.0173   -1.1289    0.8900 H   0  0  0  0  0  0  0  0  0  0  0  0
   -5.7351    0.2352   -0.0000 H   0  0  0  0  0  0  0  0  0  0  0  0
  1  2  1  0  0  0  0
  2  3  1  0  0  0  0
  3  4  1  0  0  0  0
  4  5  1  0  0  0  0
  5  6  1  0  0  0  0
  6  7  2  0  0  0  0
  6  8  1  0  0  0  0
  8  9  2  0  0  0  0
  9 10  1  0  0  0  0
  1 11  1  0  0  0  0
  1 12  1  0  0  0  0
  1 13  1  0  0  0  0
  2 14  1  0  0  0  0
  2 15  1  0  0  0  0
  3 16  1  0  0  0  0
  3 17  1  0  0  0  0
  4 18  1  0  0  0  0
  4 19  1  0  0  0  0
  5 20  1  0  0  0  0
  5 21  1  0  0  0  0
  8 22  1  0  0  0  0
  9 23  1  0  0  0  0
 10 24  1  0  0  0  0
 10 25  1  0  0  0  0
 10 26  1  0  0  0  0
M  END
$$$$
