C21H44
APtclcactv06211806043D 0   0.00000     0.00000
 
 65 64  0  0  0  0  0  0  0  0999 V2000
   12.4924    0.4178    0.0000 C   0  0  0  0  0  0  0  0  0  0  0  0
   11.2432   -0.4656   -0.0000 C   0  0  0  0  0  0  0  0  0  0  0  0
    9.9939    0.4178    0.0000 C   0  0  0  0  0  0  0  0  0  0  0  0
    8.7447   -0.4656   -0.0000 C   0  0  0  0  0  0  0  0  0  0  0  0
    7.4954    0.4178    0.0000 C   0  0  0  0  0  0  0  0  0  0  0  0
    6.2462   -0.4656   -0.0000 C   0  0  0  0  0  0  0  0  0  0  0  0
    4.9970    0.4178    0.0000 C   0  0  0  0  0  0  0  0  0  0  0  0
    3.7477   -0.4656   -0.0000 C   0  0  0  0  0  0  0  0  0  0  0  0
    2.4985    0.4178    0.0000 C   0  0  0  0  0  0  0  0  0  0  0  0
    1.2492   -0.4656   -0.0000 C   0  0  0  0  0  0  0  0  0  0  0  0
   -0.0000    0.4178    0.0000 C   0  0  0  0  0  0  0  0  0  0  0  0
   -1.2492   -0.4656    0.0000 C   0  0  0  0  0  0  0  0  0  0  0  0
   -2.4985    0.4178   -0.0000 C   0  0  0  0  0  0  0  0  0  0  0  0
   -3.7477   -0.4656    0.0000 C   0  0  0  0  0  0  0  0  0  0  0  0
   -4.9970    0.4178   -0.0000 C   0  0  0  0  0  0  0  0  0  0  0  0
   -6.2462   -0.4656    0.0000 C   0  0  0  0  0  0  0  0  0  0  0  0
   -7.4954    0.4178   -0.0000 C   0  0  0  0  0  0  0  0  0  0  0  0
   -8.7447   -0.4656    0.0000 C   0  0  0  0  0  0  0  0  0  0  0  0
   -9.9939    0.4178   -0.0000 C   0  0  0  0  0  0  0  0  0  0  0  0
  -11.2432   -0.4656    0.0000 C   0  0  0  0  0  0  0  0  0  0  0  0
  -12.4924    0.4178   -0.0000 C   0  0  0  0  0  0  0  0  0  0  0  0
   12.4924    1.0471    0.8900 H   0  0  0  0  0  0  0  0  0  0  0  0
   13.3824   -0.2115   -0.0000 H   0  0  0  0  0  0  0  0  0  0  0  0
   12.4924    1.0471   -0.8900 H   0  0  0  0  0  0  0  0  0  0  0  0
   11.2432   -1.0949   -0.8900 H   0  0  0  0  0  0  0  0  0  0  0  0
   11.2432   -1.0949    0.8900 H   0  0  0  0  0  0  0  0  0  0  0  0
    9.9939    1.0471    0.8900 H   0  0  0  0  0  0  0  0  0  0  0  0
    9.9939    1.0471   -0.8900 H   0  0  0  0  0  0  0  0  0  0  0  0
    8.7447   -1.0949   -0.8900 H   0  0  0  0  0  0  0  0  0  0  0  0
    8.7447   -1.0949    0.8900 H   0  0  0  0  0  0  0  0  0  0  0  0
    7.4954    1.0471    0.8900 H   0  0  0  0  0  0  0  0  0  0  0  0
    7.4954    1.0471   -0.8900 H   0  0  0  0  0  0  0  0  0  0  0  0
    6.2462   -1.0949   -0.8900 H   0  0  0  0  0  0  0  0  0  0  0  0
    6.2462   -1.0949    0.8900 H   0  0  0  0  0  0  0  0  0  0  0  0
    4.9970    1.0471    0.8900 H   0  0  0  0  0  0  0  0  0  0  0  0
    4.9970    1.0471   -0.8900 H   0  0  0  0  0  0  0  0  0  0  0  0
    3.7477   -1.0949   -0.8900 H   0  0  0  0  0  0  0  0  0  0  0  0
    3.7477   -1.0949    0.8900 H   0  0  0  0  0  0  0  0  0  0  0  0
    2.4985    1.0471    0.8900 H   0  0  0  0  0  0  0  0  0  0  0  0
    2.4985    1.0471   -0.8900 H   0  0  0  0  0  0  0  0  0  0  0  0
    1.2492   -1.0949   -0.8900 H   0  0  0  0  0  0  0  0  0  0  0  0
    1.2492   -1.0949    0.8900 H   0  0  0  0  0  0  0  0  0  0  0  0
    0.0000    1.0471    0.8900 H   0  0  0  0  0  0  0  0  0  0  0  0
   -0.0000    1.0471   -0.8900 H   0  0  0  0  0  0  0  0  0  0  0  0
   -1.2492   -1.0949   -0.8900 H   0  0  0  0  0  0  0  0  0  0  0  0
   -1.2492   -1.0949    0.8900 H   0  0  0  0  0  0  0  0  0  0  0  0
   -2.4985    1.0471    0.8900 H   0  0  0  0  0  0  0  0  0  0  0  0
   -2.4985    1.0471   -0.8900 H   0  0  0  0  0  0  0  0  0  0  0  0
   -3.7477   -1.0949   -0.8900 H   0  0  0  0  0  0  0  0  0  0  0  0
   -3.7477   -1.0949    0.8900 H   0  0  0  0  0  0  0  0  0  0  0  0
   -4.9970    1.0471    0.8900 H   0  0  0  0  0  0  0  0  0  0  0  0
   -4.9970    1.0471   -0.8900 H   0  0  0  0  0  0  0  0  0  0  0  0
   -6.2462   -1.0949   -0.8900 H   0  0  0  0  0  0  0  0  0  0  0  0
   -6.2462   -1.0949    0.8900 H   0  0  0  0  0  0  0  0  0  0  0  0
   -7.4954    1.0471    0.8900 H   0  0  0  0  0  0  0  0  0  0  0  0
   -7.4954    1.0471   -0.8900 H   0  0  0  0  0  0  0  0  0  0  0  0
   -8.7447   -1.0949   -0.8900 H   0  0  0  0  0  0  0  0  0  0  0  0
   -8.7447   -1.0949    0.8900 H   0  0  0  0  0  0  0  0  0  0  0  0
   -9.9939    1.0471    0.8900 H   0  0  0  0  0  0  0  0  0  0  0  0
   -9.9939    1.0471   -0.8900 H   0  0  0  0  0  0  0  0  0  0  0  0
  -11.2432   -1.0949   -0.8900 H   0  0  0  0  0  0  0  0  0  0  0  0
  -11.2432   -1.0949    0.8900 H   0  0  0  0  0  0  0  0  0  0  0  0
  -12.4924    1.0471   -0.8900 H   0  0  0  0  0  0  0  0  0  0  0  0
  -13.3824   -0.2115    0.0000 H   0  0  0  0  0  0  0  0  0  0  0  0
  -12.4924    1.0471    0.8900 H   0  0  0  0  0  0  0  0  0  0  0  0
  1  2  1  0  0  0  0
  2  3  1  0  0  0  0
  3  4  1  0  0  0  0
  4  5  1  0  0  0  0
  5  6  1  0  0  0  0
  6  7  1  0  0  0  0
  7  8  1  0  0  0  0
  8  9  1  0  0  0  0
  9 10  1  0  0  0  0
 10 11  1  0  0  0  0
 11 12  1  0  0  0  0
 12 13  1  0  0  0  0
 13 14  1  0  0  0  0
 14 15  1  0  0  0  0
 15 16  1  0  0  0  0
 16 17  1  0  0  0  0
 17 18  1  0  0  0  0
 18 19  1  0  0  0  0
 19 20  1  0  0  0  0
 20 21  1  0  0  0  0
  1 22  1  0  0  0  0
  1 23  1  0  0  0  0
  1 24  1  0  0  0  0
  2 25  1  0  0  0  0
  2 26  1  0  0  0  0
  3 27  1  0  0  0  0
  3 28  1  0  0  0  0
  4 29  1  0  0  0  0
  4 30  1  0  0  0  0
  5 31  1  0  0  0  0
  5 32  1  0  0  0  0
  6 33  1  0  0  0  0
  6 34  1  0  0  0  0
  7 35  1  0  0  0  0
  7 36  1  0  0  0  0
  8 37  1  0  0  0  0
  8 38  1  0  0  0  0
  9 39  1  0  0  0  0
  9 40  1  0  0  0  0
 10 41  1  0  0  0  0
 10 42  1  0  0  0  0
 11 43  1  0  0  0  0
 11 44  1  0  0  0  0
 12 45  1  0  0  0  0
 12 46  1  0  0  0  0
 13 47  1  0  0  0  0
 13 48  1  0  0  0  0
 14 49  1  0  0  0  0
 14 50  1  0  0  0  0
 15 51  1  0  0  0  0
 15 52  1  0  0  0  0
 16 53  1  0  0  0  0
 16 54  1  0  0  0  0
 17 55  1  0  0  0  0
 17 56  1  0  0  0  0
 18 57  1  0  0  0  0
 18 58  1  0  0  0  0
 19 59  1  0  0  0  0
 19 60  1  0  0  0  0
 20 61  1  0  0  0  0
 20 62  1  0  0  0  0
 21 63  1  0  0  0  0
 21 64  1  0  0  0  0
 21 65  1  0  0  0  0
M  END
$$$$
