C15H10O4
APtclcactv06211806383D 0   0.00000     0.00000
 
 29 31  0  0  0  0  0  0  0  0999 V2000
    4.3038   -0.9973    0.2557 C   0  0  0  0  0  0  0  0  0  0  0  0
    2.9557   -0.3354    0.1312 C   0  0  0  0  0  0  0  0  0  0  0  0
    2.8644    1.0466    0.1283 C   0  0  0  0  0  0  0  0  0  0  0  0
    1.6239    1.6725    0.0141 C   0  0  0  0  0  0  0  0  0  0  0  0
    0.4714    0.9086   -0.0975 C   0  0  0  0  0  0  0  0  0  0  0  0
    0.5601   -0.4987   -0.0957 C   0  0  0  0  0  0  0  0  0  0  0  0
    1.8110   -1.1151    0.0142 C   0  0  0  0  0  0  0  0  0  0  0  0
    1.9055   -2.4676    0.0164 O   0  0  0  0  0  0  0  0  0  0  0  0
   -0.6651   -1.3075   -0.2136 C   0  0  0  0  0  0  0  0  0  0  0  0
   -0.5956   -2.4953   -0.4643 O   0  0  0  0  0  0  0  0  0  0  0  0
   -1.9816   -0.6589   -0.0232 C   0  0  0  0  0  0  0  0  0  0  0  0
   -3.1277   -1.4244    0.1584 C   0  0  0  0  0  0  0  0  0  0  0  0
   -4.3513   -0.8007    0.3353 C   0  0  0  0  0  0  0  0  0  0  0  0
   -4.4418    0.5789    0.3324 C   0  0  0  0  0  0  0  0  0  0  0  0
   -3.3102    1.3561    0.1529 C   0  0  0  0  0  0  0  0  0  0  0  0
   -2.0736    0.7454   -0.0255 C   0  0  0  0  0  0  0  0  0  0  0  0
   -0.8526    1.5581   -0.2171 C   0  0  0  0  0  0  0  0  0  0  0  0
   -0.9359    2.7438   -0.4691 O   0  0  0  0  0  0  0  0  0  0  0  0
    3.9901    1.7967    0.2378 O   0  0  0  0  0  0  0  0  0  0  0  0
    4.5323   -1.1611    1.3088 H   0  0  0  0  0  0  0  0  0  0  0  0
    4.2883   -1.9543   -0.2659 H   0  0  0  0  0  0  0  0  0  0  0  0
    5.0659   -0.3552   -0.1859 H   0  0  0  0  0  0  0  0  0  0  0  0
    1.5603    2.7506    0.0128 H   0  0  0  0  0  0  0  0  0  0  0  0
    2.0122   -2.8559   -0.8627 H   0  0  0  0  0  0  0  0  0  0  0  0
   -3.0640   -2.5025    0.1612 H   0  0  0  0  0  0  0  0  0  0  0  0
   -5.2412   -1.3961    0.4761 H   0  0  0  0  0  0  0  0  0  0  0  0
   -5.4020    1.0536    0.4708 H   0  0  0  0  0  0  0  0  0  0  0  0
   -3.3876    2.4334    0.1510 H   0  0  0  0  0  0  0  0  0  0  0  0
    4.3995    2.0177   -0.6099 H   0  0  0  0  0  0  0  0  0  0  0  0
  1  2  1  0  0  0  0
  2  3  2  0  0  0  0
  3  4  1  0  0  0  0
  4  5  2  0  0  0  0
  5  6  1  0  0  0  0
  6  7  2  0  0  0  0
  2  7  1  0  0  0  0
  7  8  1  0  0  0  0
  6  9  1  0  0  0  0
  9 10  2  0  0  0  0
  9 11  1  0  0  0  0
 11 12  2  0  0  0  0
 12 13  1  0  0  0  0
 13 14  2  0  0  0  0
 14 15  1  0  0  0  0
 15 16  2  0  0  0  0
 11 16  1  0  0  0  0
 16 17  1  0  0  0  0
  5 17  1  0  0  0  0
 17 18  2  0  0  0  0
  3 19  1  0  0  0  0
  1 20  1  0  0  0  0
  1 21  1  0  0  0  0
  1 22  1  0  0  0  0
  4 23  1  0  0  0  0
  8 24  1  0  0  0  0
 12 25  1  0  0  0  0
 13 26  1  0  0  0  0
 14 27  1  0  0  0  0
 15 28  1  0  0  0  0
 19 29  1  0  0  0  0
M  END
$$$$
