C33H68
APtclcactv06211806043D 0   0.00000     0.00000
 
101100  0  0  0  0  0  0  0  0999 V2000
   19.9878   -0.4264   -0.0000 C   0  0  0  0  0  0  0  0  0  0  0  0
   18.7386    0.4569    0.0000 C   0  0  0  0  0  0  0  0  0  0  0  0
   17.4894   -0.4264   -0.0000 C   0  0  0  0  0  0  0  0  0  0  0  0
   16.2401    0.4569    0.0000 C   0  0  0  0  0  0  0  0  0  0  0  0
   14.9909   -0.4264   -0.0000 C   0  0  0  0  0  0  0  0  0  0  0  0
   13.7416    0.4569    0.0000 C   0  0  0  0  0  0  0  0  0  0  0  0
   12.4924   -0.4264   -0.0000 C   0  0  0  0  0  0  0  0  0  0  0  0
   11.2432    0.4569    0.0000 C   0  0  0  0  0  0  0  0  0  0  0  0
    9.9939   -0.4264   -0.0000 C   0  0  0  0  0  0  0  0  0  0  0  0
    8.7447    0.4569    0.0000 C   0  0  0  0  0  0  0  0  0  0  0  0
    7.4954   -0.4264   -0.0000 C   0  0  0  0  0  0  0  0  0  0  0  0
    6.2462    0.4569    0.0000 C   0  0  0  0  0  0  0  0  0  0  0  0
    4.9970   -0.4264   -0.0000 C   0  0  0  0  0  0  0  0  0  0  0  0
    3.7477    0.4569    0.0000 C   0  0  0  0  0  0  0  0  0  0  0  0
    2.4985   -0.4264   -0.0000 C   0  0  0  0  0  0  0  0  0  0  0  0
    1.2492    0.4569    0.0000 C   0  0  0  0  0  0  0  0  0  0  0  0
   -0.0000   -0.4264   -0.0000 C   0  0  0  0  0  0  0  0  0  0  0  0
   -1.2492    0.4569   -0.0000 C   0  0  0  0  0  0  0  0  0  0  0  0
   -2.4985   -0.4264    0.0000 C   0  0  0  0  0  0  0  0  0  0  0  0
   -3.7477    0.4569   -0.0000 C   0  0  0  0  0  0  0  0  0  0  0  0
   -4.9970   -0.4264    0.0000 C   0  0  0  0  0  0  0  0  0  0  0  0
   -6.2462    0.4569   -0.0000 C   0  0  0  0  0  0  0  0  0  0  0  0
   -7.4954   -0.4264    0.0000 C   0  0  0  0  0  0  0  0  0  0  0  0
   -8.7447    0.4569   -0.0000 C   0  0  0  0  0  0  0  0  0  0  0  0
   -9.9939   -0.4264    0.0000 C   0  0  0  0  0  0  0  0  0  0  0  0
  -11.2432    0.4569   -0.0000 C   0  0  0  0  0  0  0  0  0  0  0  0
  -12.4924   -0.4264    0.0000 C   0  0  0  0  0  0  0  0  0  0  0  0
  -13.7416    0.4569   -0.0000 C   0  0  0  0  0  0  0  0  0  0  0  0
  -14.9909   -0.4264    0.0000 C   0  0  0  0  0  0  0  0  0  0  0  0
  -16.2401    0.4569   -0.0000 C   0  0  0  0  0  0  0  0  0  0  0  0
  -17.4894   -0.4264    0.0000 C   0  0  0  0  0  0  0  0  0  0  0  0
  -18.7386    0.4569   -0.0000 C   0  0  0  0  0  0  0  0  0  0  0  0
  -19.9878   -0.4264    0.0000 C   0  0  0  0  0  0  0  0  0  0  0  0
   20.8778    0.2029    0.0000 H   0  0  0  0  0  0  0  0  0  0  0  0
   19.9878   -1.0557    0.8900 H   0  0  0  0  0  0  0  0  0  0  0  0
   19.9878   -1.0557   -0.8900 H   0  0  0  0  0  0  0  0  0  0  0  0
   18.7386    1.0862    0.8900 H   0  0  0  0  0  0  0  0  0  0  0  0
   18.7386    1.0862   -0.8900 H   0  0  0  0  0  0  0  0  0  0  0  0
   17.4894   -1.0557   -0.8900 H   0  0  0  0  0  0  0  0  0  0  0  0
   17.4894   -1.0557    0.8900 H   0  0  0  0  0  0  0  0  0  0  0  0
   16.2401    1.0862    0.8900 H   0  0  0  0  0  0  0  0  0  0  0  0
   16.2401    1.0862   -0.8900 H   0  0  0  0  0  0  0  0  0  0  0  0
   14.9909   -1.0557   -0.8900 H   0  0  0  0  0  0  0  0  0  0  0  0
   14.9909   -1.0557    0.8900 H   0  0  0  0  0  0  0  0  0  0  0  0
   13.7416    1.0862    0.8900 H   0  0  0  0  0  0  0  0  0  0  0  0
   13.7416    1.0862   -0.8900 H   0  0  0  0  0  0  0  0  0  0  0  0
   12.4924   -1.0557   -0.8900 H   0  0  0  0  0  0  0  0  0  0  0  0
   12.4924   -1.0557    0.8900 H   0  0  0  0  0  0  0  0  0  0  0  0
   11.2432    1.0862    0.8900 H   0  0  0  0  0  0  0  0  0  0  0  0
   11.2432    1.0862   -0.8900 H   0  0  0  0  0  0  0  0  0  0  0  0
    9.9939   -1.0557   -0.8900 H   0  0  0  0  0  0  0  0  0  0  0  0
    9.9939   -1.0557    0.8900 H   0  0  0  0  0  0  0  0  0  0  0  0
    8.7447    1.0862    0.8900 H   0  0  0  0  0  0  0  0  0  0  0  0
    8.7447    1.0862   -0.8900 H   0  0  0  0  0  0  0  0  0  0  0  0
    7.4954   -1.0557   -0.8900 H   0  0  0  0  0  0  0  0  0  0  0  0
    7.4954   -1.0557    0.8900 H   0  0  0  0  0  0  0  0  0  0  0  0
    6.2462    1.0862    0.8900 H   0  0  0  0  0  0  0  0  0  0  0  0
    6.2462    1.0862   -0.8900 H   0  0  0  0  0  0  0  0  0  0  0  0
    4.9970   -1.0557   -0.8900 H   0  0  0  0  0  0  0  0  0  0  0  0
    4.9970   -1.0557    0.8900 H   0  0  0  0  0  0  0  0  0  0  0  0
    3.7477    1.0862    0.8900 H   0  0  0  0  0  0  0  0  0  0  0  0
    3.7477    1.0862   -0.8900 H   0  0  0  0  0  0  0  0  0  0  0  0
    2.4985   -1.0557   -0.8900 H   0  0  0  0  0  0  0  0  0  0  0  0
    2.4985   -1.0557    0.8900 H   0  0  0  0  0  0  0  0  0  0  0  0
    1.2492    1.0862    0.8900 H   0  0  0  0  0  0  0  0  0  0  0  0
    1.2492    1.0862   -0.8900 H   0  0  0  0  0  0  0  0  0  0  0  0
    0.0000   -1.0557   -0.8900 H   0  0  0  0  0  0  0  0  0  0  0  0
   -0.0000   -1.0557    0.8900 H   0  0  0  0  0  0  0  0  0  0  0  0
   -1.2492    1.0862    0.8900 H   0  0  0  0  0  0  0  0  0  0  0  0
   -1.2492    1.0862   -0.8900 H   0  0  0  0  0  0  0  0  0  0  0  0
   -2.4985   -1.0557   -0.8900 H   0  0  0  0  0  0  0  0  0  0  0  0
   -2.4985   -1.0557    0.8900 H   0  0  0  0  0  0  0  0  0  0  0  0
   -3.7477    1.0862    0.8900 H   0  0  0  0  0  0  0  0  0  0  0  0
   -3.7477    1.0862   -0.8900 H   0  0  0  0  0  0  0  0  0  0  0  0
   -4.9970   -1.0557   -0.8900 H   0  0  0  0  0  0  0  0  0  0  0  0
   -4.9970   -1.0557    0.8900 H   0  0  0  0  0  0  0  0  0  0  0  0
   -6.2462    1.0862    0.8900 H   0  0  0  0  0  0  0  0  0  0  0  0
   -6.2462    1.0862   -0.8900 H   0  0  0  0  0  0  0  0  0  0  0  0
   -7.4954   -1.0557   -0.8900 H   0  0  0  0  0  0  0  0  0  0  0  0
   -7.4954   -1.0557    0.8900 H   0  0  0  0  0  0  0  0  0  0  0  0
   -8.7447    1.0862    0.8900 H   0  0  0  0  0  0  0  0  0  0  0  0
   -8.7447    1.0862   -0.8900 H   0  0  0  0  0  0  0  0  0  0  0  0
   -9.9939   -1.0557   -0.8900 H   0  0  0  0  0  0  0  0  0  0  0  0
   -9.9939   -1.0557    0.8900 H   0  0  0  0  0  0  0  0  0  0  0  0
  -11.2432    1.0862    0.8900 H   0  0  0  0  0  0  0  0  0  0  0  0
  -11.2432    1.0862   -0.8900 H   0  0  0  0  0  0  0  0  0  0  0  0
  -12.4924   -1.0557   -0.8900 H   0  0  0  0  0  0  0  0  0  0  0  0
  -12.4924   -1.0557    0.8900 H   0  0  0  0  0  0  0  0  0  0  0  0
  -13.7416    1.0862    0.8900 H   0  0  0  0  0  0  0  0  0  0  0  0
  -13.7416    1.0862   -0.8900 H   0  0  0  0  0  0  0  0  0  0  0  0
  -14.9909   -1.0557   -0.8900 H   0  0  0  0  0  0  0  0  0  0  0  0
  -14.9909   -1.0557    0.8900 H   0  0  0  0  0  0  0  0  0  0  0  0
  -16.2401    1.0862    0.8900 H   0  0  0  0  0  0  0  0  0  0  0  0
  -16.2401    1.0862   -0.8900 H   0  0  0  0  0  0  0  0  0  0  0  0
  -17.4894   -1.0557   -0.8900 H   0  0  0  0  0  0  0  0  0  0  0  0
  -17.4894   -1.0557    0.8900 H   0  0  0  0  0  0  0  0  0  0  0  0
  -18.7386    1.0862    0.8900 H   0  0  0  0  0  0  0  0  0  0  0  0
  -18.7386    1.0862   -0.8900 H   0  0  0  0  0  0  0  0  0  0  0  0
  -20.8778    0.2029   -0.0000 H   0  0  0  0  0  0  0  0  0  0  0  0
  -19.9878   -1.0557   -0.8900 H   0  0  0  0  0  0  0  0  0  0  0  0
  -19.9878   -1.0557    0.8900 H   0  0  0  0  0  0  0  0  0  0  0  0
  1  2  1  0  0  0  0
  2  3  1  0  0  0  0
  3  4  1  0  0  0  0
  4  5  1  0  0  0  0
  5  6  1  0  0  0  0
  6  7  1  0  0  0  0
  7  8  1  0  0  0  0
  8  9  1  0  0  0  0
  9 10  1  0  0  0  0
 10 11  1  0  0  0  0
 11 12  1  0  0  0  0
 12 13  1  0  0  0  0
 13 14  1  0  0  0  0
 14 15  1  0  0  0  0
 15 16  1  0  0  0  0
 16 17  1  0  0  0  0
 17 18  1  0  0  0  0
 18 19  1  0  0  0  0
 19 20  1  0  0  0  0
 20 21  1  0  0  0  0
 21 22  1  0  0  0  0
 22 23  1  0  0  0  0
 23 24  1  0  0  0  0
 24 25  1  0  0  0  0
 25 26  1  0  0  0  0
 26 27  1  0  0  0  0
 27 28  1  0  0  0  0
 28 29  1  0  0  0  0
 29 30  1  0  0  0  0
 30 31  1  0  0  0  0
 31 32  1  0  0  0  0
 32 33  1  0  0  0  0
  1 34  1  0  0  0  0
  1 35  1  0  0  0  0
  1 36  1  0  0  0  0
  2 37  1  0  0  0  0
  2 38  1  0  0  0  0
  3 39  1  0  0  0  0
  3 40  1  0  0  0  0
  4 41  1  0  0  0  0
  4 42  1  0  0  0  0
  5 43  1  0  0  0  0
  5 44  1  0  0  0  0
  6 45  1  0  0  0  0
  6 46  1  0  0  0  0
  7 47  1  0  0  0  0
  7 48  1  0  0  0  0
  8 49  1  0  0  0  0
  8 50  1  0  0  0  0
  9 51  1  0  0  0  0
  9 52  1  0  0  0  0
 10 53  1  0  0  0  0
 10 54  1  0  0  0  0
 11 55  1  0  0  0  0
 11 56  1  0  0  0  0
 12 57  1  0  0  0  0
 12 58  1  0  0  0  0
 13 59  1  0  0  0  0
 13 60  1  0  0  0  0
 14 61  1  0  0  0  0
 14 62  1  0  0  0  0
 15 63  1  0  0  0  0
 15 64  1  0  0  0  0
 16 65  1  0  0  0  0
 16 66  1  0  0  0  0
 17 67  1  0  0  0  0
 17 68  1  0  0  0  0
 18 69  1  0  0  0  0
 18 70  1  0  0  0  0
 19 71  1  0  0  0  0
 19 72  1  0  0  0  0
 20 73  1  0  0  0  0
 20 74  1  0  0  0  0
 21 75  1  0  0  0  0
 21 76  1  0  0  0  0
 22 77  1  0  0  0  0
 22 78  1  0  0  0  0
 23 79  1  0  0  0  0
 23 80  1  0  0  0  0
 24 81  1  0  0  0  0
 24 82  1  0  0  0  0
 25 83  1  0  0  0  0
 25 84  1  0  0  0  0
 26 85  1  0  0  0  0
 26 86  1  0  0  0  0
 27 87  1  0  0  0  0
 27 88  1  0  0  0  0
 28 89  1  0  0  0  0
 28 90  1  0  0  0  0
 29 91  1  0  0  0  0
 29 92  1  0  0  0  0
 30 93  1  0  0  0  0
 30 94  1  0  0  0  0
 31 95  1  0  0  0  0
 31 96  1  0  0  0  0
 32 97  1  0  0  0  0
 32 98  1  0  0  0  0
 33 99  1  0  0  0  0
 33100  1  0  0  0  0
 33101  1  0  0  0  0
M  END
$$$$
