C13H16O10
APtclcactv06211806383D 0   0.00000     0.00000
 
 39 40  0  0  0  0  0  0  0  0999 V2000
   -2.8358    3.2386   -0.2701 C   0  0  0  0  0  0  0  0  0  0  0  0
   -3.5829    2.0263   -0.3889 O   0  0  0  0  0  0  0  0  0  0  0  0
   -3.3968    1.1197    0.6999 C   0  0  0  0  0  0  0  0  0  0  0  0
   -4.3328   -0.0799    0.5312 C   0  0  0  0  0  0  0  0  0  0  0  0
   -3.9710   -0.8224   -0.7588 C   0  0  0  0  0  0  0  0  0  0  0  0
   -2.4979   -1.2382   -0.6996 C   0  0  0  0  0  0  0  0  0  0  0  0
   -1.6328    0.0062   -0.4833 C   0  0  0  0  0  0  0  0  0  0  0  0
   -2.0417    0.6664    0.7163 O   0  0  0  0  0  0  0  0  0  0  0  0
   -0.2396   -0.3865   -0.3692 O   0  0  0  0  0  0  0  0  0  0  0  0
    0.6697    0.6038   -0.2786 C   0  0  0  0  0  0  0  0  0  0  0  0
    0.3083    1.7638   -0.2947 O   0  0  0  0  0  0  0  0  0  0  0  0
    2.1036    0.2798   -0.1601 C   0  0  0  0  0  0  0  0  0  0  0  0
    3.0478    1.3059   -0.0661 C   0  0  0  0  0  0  0  0  0  0  0  0
    4.3908    0.9994    0.0453 C   0  0  0  0  0  0  0  0  0  0  0  0
    4.8035   -0.3304    0.0641 C   0  0  0  0  0  0  0  0  0  0  0  0
    3.8650   -1.3548   -0.0294 C   0  0  0  0  0  0  0  0  0  0  0  0
    2.5202   -1.0541   -0.1357 C   0  0  0  0  0  0  0  0  0  0  0  0
    4.2716   -2.6525   -0.0108 O   0  0  0  0  0  0  0  0  0  0  0  0
    6.1246   -0.6289    0.1733 O   0  0  0  0  0  0  0  0  0  0  0  0
    5.3102    1.9975    0.1364 O   0  0  0  0  0  0  0  0  0  0  0  0
   -2.3022   -2.1499    0.3832 O   0  0  0  0  0  0  0  0  0  0  0  0
   -4.7912   -1.9855   -0.8870 O   0  0  0  0  0  0  0  0  0  0  0  0
   -4.1857   -0.9610    1.6466 O   0  0  0  0  0  0  0  0  0  0  0  0
   -3.0316    3.8723   -1.1351 H   0  0  0  0  0  0  0  0  0  0  0  0
   -3.1341    3.7617    0.6385 H   0  0  0  0  0  0  0  0  0  0  0  0
   -1.7718    3.0066   -0.2230 H   0  0  0  0  0  0  0  0  0  0  0  0
   -3.6218    1.6273    1.6380 H   0  0  0  0  0  0  0  0  0  0  0  0
   -5.3642    0.2680    0.4742 H   0  0  0  0  0  0  0  0  0  0  0  0
   -4.1305   -0.1661   -1.6143 H   0  0  0  0  0  0  0  0  0  0  0  0
   -2.2171   -1.7187   -1.6368 H   0  0  0  0  0  0  0  0  0  0  0  0
   -1.7517    0.6831   -1.3294 H   0  0  0  0  0  0  0  0  0  0  0  0
    2.7282    2.3375   -0.0810 H   0  0  0  0  0  0  0  0  0  0  0  0
    1.7927   -1.8490   -0.2078 H   0  0  0  0  0  0  0  0  0  0  0  0
    4.3136   -3.0388    0.8746 H   0  0  0  0  0  0  0  0  0  0  0  0
    6.4318   -0.7263    1.0850 H   0  0  0  0  0  0  0  0  0  0  0  0
    5.5006    2.2754    1.0428 H   0  0  0  0  0  0  0  0  0  0  0  0
   -1.3899   -2.4555    0.4801 H   0  0  0  0  0  0  0  0  0  0  0  0
   -4.6156   -2.5048   -1.6836 H   0  0  0  0  0  0  0  0  0  0  0  0
   -4.3942   -0.5546    2.4990 H   0  0  0  0  0  0  0  0  0  0  0  0
  1  2  1  0  0  0  0
  2  3  1  0  0  0  0
  3  4  1  0  0  0  0
  4  5  1  0  0  0  0
  5  6  1  0  0  0  0
  6  7  1  0  0  0  0
  7  8  1  0  0  0  0
  3  8  1  0  0  0  0
  7  9  1  0  0  0  0
  9 10  1  0  0  0  0
 10 11  2  0  0  0  0
 10 12  1  0  0  0  0
 12 13  2  0  0  0  0
 13 14  1  0  0  0  0
 14 15  2  0  0  0  0
 15 16  1  0  0  0  0
 16 17  2  0  0  0  0
 12 17  1  0  0  0  0
 16 18  1  0  0  0  0
 15 19  1  0  0  0  0
 14 20  1  0  0  0  0
  6 21  1  0  0  0  0
  5 22  1  0  0  0  0
  4 23  1  0  0  0  0
  1 24  1  0  0  0  0
  1 25  1  0  0  0  0
  1 26  1  0  0  0  0
  3 27  1  0  0  0  0
  4 28  1  0  0  0  0
  5 29  1  0  0  0  0
  6 30  1  0  0  0  0
  7 31  1  0  0  0  0
 13 32  1  0  0  0  0
 17 33  1  0  0  0  0
 18 34  1  0  0  0  0
 19 35  1  0  0  0  0
 20 36  1  0  0  0  0
 21 37  1  0  0  0  0
 22 38  1  0  0  0  0
 23 39  1  0  0  0  0
M  END
$$$$
