C18H16O8
APtclcactv06281817373D 0   0.00000     0.00000
 
 42 44  0  0  0  0  0  0  0  0999 V2000
   -4.3324    2.4356   -1.6248 C   0  0  0  0  0  0  0  0  0  0  0  0
   -5.1216    1.5121   -0.8723 O   0  0  0  0  0  0  0  0  0  0  0  0
   -4.4652    0.4792   -0.2791 C   0  0  0  0  0  0  0  0  0  0  0  0
   -5.1738   -0.4585    0.4701 C   0  0  0  0  0  0  0  0  0  0  0  0
   -4.5072   -1.5140    1.0769 C   0  0  0  0  0  0  0  0  0  0  0  0
   -3.1415   -1.6400    0.9412 C   0  0  0  0  0  0  0  0  0  0  0  0
   -2.4247   -0.7037    0.1911 C   0  0  0  0  0  0  0  0  0  0  0  0
   -3.0967    0.3563   -0.4238 C   0  0  0  0  0  0  0  0  0  0  0  0
   -0.9628   -0.8365    0.0451 C   0  0  0  0  0  0  0  0  0  0  0  0
   -0.4332   -2.0768   -0.1345 C   0  0  0  0  0  0  0  0  0  0  0  0
    0.9665   -2.2241   -0.2765 C   0  0  0  0  0  0  0  0  0  0  0  0
    1.4751   -3.3215   -0.4395 O   0  0  0  0  0  0  0  0  0  0  0  0
    1.7863   -1.0016   -0.2205 C   0  0  0  0  0  0  0  0  0  0  0  0
    1.1389    0.2316   -0.0310 C   0  0  0  0  0  0  0  0  0  0  0  0
   -0.2065    0.2714    0.0891 O   0  0  0  0  0  0  0  0  0  0  0  0
    1.8923    1.3978    0.0250 C   0  0  0  0  0  0  0  0  0  0  0  0
    3.2731    1.3392   -0.1062 C   0  0  0  0  0  0  0  0  0  0  0  0
    3.9158    0.1173   -0.2941 C   0  0  0  0  0  0  0  0  0  0  0  0
    3.1788   -1.0546   -0.3513 C   0  0  0  0  0  0  0  0  0  0  0  0
    3.8039   -2.2476   -0.5342 O   0  0  0  0  0  0  0  0  0  0  0  0
    5.2706    0.0748   -0.4213 O   0  0  0  0  0  0  0  0  0  0  0  0
    6.0304   -0.0793    0.7791 C   0  0  0  0  0  0  0  0  0  0  0  0
    4.0044    2.4838   -0.0514 O   0  0  0  0  0  0  0  0  0  0  0  0
    1.2762    2.5982    0.2082 O   0  0  0  0  0  0  0  0  0  0  0  0
    1.0964    3.0360    1.5565 C   0  0  0  0  0  0  0  0  0  0  0  0
   -6.5201   -0.3389    0.6070 O   0  0  0  0  0  0  0  0  0  0  0  0
   -3.5909    2.8962   -0.9720 H   0  0  0  0  0  0  0  0  0  0  0  0
   -3.8267    1.9072   -2.4330 H   0  0  0  0  0  0  0  0  0  0  0  0
   -4.9776    3.2080   -2.0435 H   0  0  0  0  0  0  0  0  0  0  0  0
   -5.0600   -2.2380    1.6571 H   0  0  0  0  0  0  0  0  0  0  0  0
   -2.6253   -2.4620    1.4147 H   0  0  0  0  0  0  0  0  0  0  0  0
   -2.5465    1.0818   -1.0046 H   0  0  0  0  0  0  0  0  0  0  0  0
   -1.0771   -2.9432   -0.1682 H   0  0  0  0  0  0  0  0  0  0  0  0
    4.0640   -2.6853    0.2879 H   0  0  0  0  0  0  0  0  0  0  0  0
    5.8252    0.7559    1.4488 H   0  0  0  0  0  0  0  0  0  0  0  0
    5.7526   -1.0133    1.2675 H   0  0  0  0  0  0  0  0  0  0  0  0
    7.0929   -0.0981    0.5367 H   0  0  0  0  0  0  0  0  0  0  0  0
    4.2952    2.7225    0.8394 H   0  0  0  0  0  0  0  0  0  0  0  0
    2.0684    3.1287    2.0411 H   0  0  0  0  0  0  0  0  0  0  0  0
    0.5947    4.0037    1.5605 H   0  0  0  0  0  0  0  0  0  0  0  0
    0.4890    2.3097    2.0965 H   0  0  0  0  0  0  0  0  0  0  0  0
   -7.0272   -0.7950   -0.0785 H   0  0  0  0  0  0  0  0  0  0  0  0
  1  2  1  0  0  0  0
  2  3  1  0  0  0  0
  3  4  2  0  0  0  0
  4  5  1  0  0  0  0
  5  6  2  0  0  0  0
  6  7  1  0  0  0  0
  7  8  2  0  0  0  0
  3  8  1  0  0  0  0
  7  9  1  0  0  0  0
  9 10  2  0  0  0  0
 10 11  1  0  0  0  0
 11 12  2  0  0  0  0
 11 13  1  0  0  0  0
 13 14  2  0  0  0  0
 14 15  1  0  0  0  0
  9 15  1  0  0  0  0
 14 16  1  0  0  0  0
 16 17  2  0  0  0  0
 17 18  1  0  0  0  0
 18 19  2  0  0  0  0
 13 19  1  0  0  0  0
 19 20  1  0  0  0  0
 18 21  1  0  0  0  0
 21 22  1  0  0  0  0
 17 23  1  0  0  0  0
 16 24  1  0  0  0  0
 24 25  1  0  0  0  0
  4 26  1  0  0  0  0
  1 27  1  0  0  0  0
  1 28  1  0  0  0  0
  1 29  1  0  0  0  0
  5 30  1  0  0  0  0
  6 31  1  0  0  0  0
  8 32  1  0  0  0  0
 10 33  1  0  0  0  0
 20 34  1  0  0  0  0
 22 35  1  0  0  0  0
 22 36  1  0  0  0  0
 22 37  1  0  0  0  0
 23 38  1  0  0  0  0
 25 39  1  0  0  0  0
 25 40  1  0  0  0  0
 25 41  1  0  0  0  0
 26 42  1  0  0  0  0
M  END
$$$$
