C30H48O2
APtclcactv06281816303D 0   0.00000     0.00000
 
 80 84  0  0  0  0  0  0  0  0999 V2000
   -5.7707    2.4557    0.9529 C   0  0  0  0  0  0  0  0  0  0  0  0
   -5.6221    1.1755    0.1195 C   0  0  0  0  0  0  0  0  0  0  0  0
   -4.2244    1.1582   -0.5043 C   0  0  0  0  0  0  0  0  0  0  0  0
   -3.3262    0.2259    0.2957 C   0  0  0  0  0  0  0  0  0  0  0  0
   -1.8706    0.3113   -0.0700 C   0  0  0  0  0  0  0  0  0  0  0  0
   -1.3422    1.5095   -0.0939 C   0  0  0  0  0  0  0  0  0  0  0  0
    0.1381    1.7190   -0.3181 C   0  0  0  0  0  0  0  0  0  0  0  0
    0.8042    0.5085    0.3307 C   0  0  0  0  0  0  0  0  0  0  0  0
    2.2970    0.6852    0.5717 C   0  0  0  0  0  0  0  0  0  0  0  0
    2.7440    2.0776    0.1071 C   0  0  0  0  0  0  0  0  0  0  0  0
    4.2402    2.2513    0.3640 C   0  0  0  0  0  0  0  0  0  0  0  0
    5.0358    1.2114   -0.4133 C   0  0  0  0  0  0  0  0  0  0  0  0
    4.6147   -0.2164   -0.0565 C   0  0  0  0  0  0  0  0  0  0  0  0
    3.1045   -0.3801   -0.1433 C   0  0  0  0  0  0  0  0  0  0  0  0
    2.6469   -1.7762    0.2413 C   0  0  0  0  0  0  0  0  0  0  0  0
    1.1361   -1.9652    0.1327 C   0  0  0  0  0  0  0  0  0  0  0  0
    0.4131   -0.7465   -0.4177 C   0  0  0  0  0  0  0  0  0  0  0  0
   -1.1112   -0.9473   -0.3507 C   0  0  0  0  0  0  0  0  0  0  0  0
   -1.4891   -2.0262    0.6397 C   0  0  0  0  0  0  0  0  0  0  0  0
   -2.9796   -2.2391    0.8335 C   0  0  0  0  0  0  0  0  0  0  0  0
   -3.8957   -1.1790    0.2870 C   0  0  0  0  0  0  0  0  0  0  0  0
   -5.1717   -1.0712    1.1103 C   0  0  0  0  0  0  0  0  0  0  0  0
   -5.8987   -0.0020    1.0013 C   0  0  0  0  0  0  0  0  0  0  0  0
   -4.3891   -1.5988   -1.0991 C   0  0  0  0  0  0  0  0  0  0  0  0
   -1.4442   -1.4237   -1.7719 C   0  0  0  0  0  0  0  0  0  0  0  0
    0.6937   -0.6274   -1.9238 C   0  0  0  0  0  0  0  0  0  0  0  0
    5.2481   -1.1342   -1.1310 C   0  0  0  0  0  0  0  0  0  0  0  0
    5.2041   -0.6257    1.2861 C   0  0  0  0  0  0  0  0  0  0  0  0
    6.6275   -0.6954    1.1800 O   0  0  0  0  0  0  0  0  0  0  0  0
    4.8511    1.4172   -1.8171 O   0  0  0  0  0  0  0  0  0  0  0  0
    2.4942    0.6056    2.0973 C   0  0  0  0  0  0  0  0  0  0  0  0
   -6.6681    1.2119   -1.0022 C   0  0  0  0  0  0  0  0  0  0  0  0
   -5.6410    3.3255    0.3089 H   0  0  0  0  0  0  0  0  0  0  0  0
   -6.7625    2.4824    1.4042 H   0  0  0  0  0  0  0  0  0  0  0  0
   -5.0140    2.4684    1.7373 H   0  0  0  0  0  0  0  0  0  0  0  0
   -4.2741    0.8810   -1.5512 H   0  0  0  0  0  0  0  0  0  0  0  0
   -3.8133    2.1792   -0.4531 H   0  0  0  0  0  0  0  0  0  0  0  0
   -3.3921    0.5843    1.3629 H   0  0  0  0  0  0  0  0  0  0  0  0
   -1.9756    2.3660    0.0562 H   0  0  0  0  0  0  0  0  0  0  0  0
    0.3602    1.8152   -1.3671 H   0  0  0  0  0  0  0  0  0  0  0  0
    0.4375    2.6329    0.2040 H   0  0  0  0  0  0  0  0  0  0  0  0
    0.3443    0.4209    1.3500 H   0  0  0  0  0  0  0  0  0  0  0  0
    2.5376    2.1887   -0.9558 H   0  0  0  0  0  0  0  0  0  0  0  0
    2.1973    2.8376    0.6685 H   0  0  0  0  0  0  0  0  0  0  0  0
    4.5349    3.2518    0.0156 H   0  0  0  0  0  0  0  0  0  0  0  0
    4.4634    2.1929    1.4252 H   0  0  0  0  0  0  0  0  0  0  0  0
    6.1017    1.3297   -0.1855 H   0  0  0  0  0  0  0  0  0  0  0  0
    2.9159   -0.2519   -1.2366 H   0  0  0  0  0  0  0  0  0  0  0  0
    3.1238   -2.5184   -0.4141 H   0  0  0  0  0  0  0  0  0  0  0  0
    2.9482   -2.0125    1.2676 H   0  0  0  0  0  0  0  0  0  0  0  0
    0.9391   -2.8262   -0.5178 H   0  0  0  0  0  0  0  0  0  0  0  0
    0.7480   -2.2084    1.1275 H   0  0  0  0  0  0  0  0  0  0  0  0
   -1.0421   -2.9788    0.3166 H   0  0  0  0  0  0  0  0  0  0  0  0
   -1.0426   -1.7875    1.6172 H   0  0  0  0  0  0  0  0  0  0  0  0
   -3.2553   -3.2086    0.3862 H   0  0  0  0  0  0  0  0  0  0  0  0
   -3.1759   -2.3419    1.9150 H   0  0  0  0  0  0  0  0  0  0  0  0
   -5.4428   -1.8787    1.7518 H   0  0  0  0  0  0  0  0  0  0  0  0
   -6.7930    0.0417    1.6143 H   0  0  0  0  0  0  0  0  0  0  0  0
   -4.4663   -2.6852   -1.1437 H   0  0  0  0  0  0  0  0  0  0  0  0
   -5.3680   -1.1571   -1.2855 H   0  0  0  0  0  0  0  0  0  0  0  0
   -3.6845   -1.2533   -1.8556 H   0  0  0  0  0  0  0  0  0  0  0  0
   -0.5972   -1.9772   -2.1774 H   0  0  0  0  0  0  0  0  0  0  0  0
   -2.3206   -2.0712   -1.7421 H   0  0  0  0  0  0  0  0  0  0  0  0
   -1.6512   -0.5611   -2.4052 H   0  0  0  0  0  0  0  0  0  0  0  0
    0.8973   -1.6162   -2.3347 H   0  0  0  0  0  0  0  0  0  0  0  0
   -0.1755   -0.1986   -2.4225 H   0  0  0  0  0  0  0  0  0  0  0  0
    1.5583    0.0171   -2.0824 H   0  0  0  0  0  0  0  0  0  0  0  0
    6.3326   -1.0274   -1.1065 H   0  0  0  0  0  0  0  0  0  0  0  0
    4.9804   -2.1709   -0.9269 H   0  0  0  0  0  0  0  0  0  0  0  0
    4.8772   -0.8503   -2.1158 H   0  0  0  0  0  0  0  0  0  0  0  0
    4.9318    0.1107    2.0422 H   0  0  0  0  0  0  0  0  0  0  0  0
    4.8129   -1.6020    1.5722 H   0  0  0  0  0  0  0  0  0  0  0  0
    7.0710   -0.9513    2.0004 H   0  0  0  0  0  0  0  0  0  0  0  0
    5.1389    2.2863   -2.1284 H   0  0  0  0  0  0  0  0  0  0  0  0
    2.3172   -0.4160    2.4338 H   0  0  0  0  0  0  0  0  0  0  0  0
    3.5136    0.8991    2.3478 H   0  0  0  0  0  0  0  0  0  0  0  0
    1.7912    1.2773    2.5901 H   0  0  0  0  0  0  0  0  0  0  0  0
   -6.4996    2.0884   -1.6278 H   0  0  0  0  0  0  0  0  0  0  0  0
   -6.5816    0.3105   -1.6090 H   0  0  0  0  0  0  0  0  0  0  0  0
   -7.6661    1.2625   -0.5669 H   0  0  0  0  0  0  0  0  0  0  0  0
  1  2  1  0  0  0  0
  2  3  1  0  0  0  0
  3  4  1  0  0  0  0
  4  5  1  0  0  0  0
  5  6  2  0  0  0  0
  6  7  1  0  0  0  0
  7  8  1  0  0  0  0
  8  9  1  0  0  0  0
  9 10  1  0  0  0  0
 10 11  1  0  0  0  0
 11 12  1  0  0  0  0
 12 13  1  0  0  0  0
 13 14  1  0  0  0  0
  9 14  1  0  0  0  0
 14 15  1  0  0  0  0
 15 16  1  0  0  0  0
 16 17  1  0  0  0  0
  8 17  1  0  0  0  0
 17 18  1  0  0  0  0
  5 18  1  0  0  0  0
 18 19  1  0  0  0  0
 19 20  1  0  0  0  0
 20 21  1  0  0  0  0
  4 21  1  0  0  0  0
 21 22  1  0  0  0  0
 22 23  2  0  0  0  0
  2 23  1  0  0  0  0
 21 24  1  0  0  0  0
 18 25  1  0  0  0  0
 17 26  1  0  0  0  0
 13 27  1  0  0  0  0
 13 28  1  0  0  0  0
 28 29  1  0  0  0  0
 12 30  1  0  0  0  0
  9 31  1  0  0  0  0
  2 32  1  0  0  0  0
  1 33  1  0  0  0  0
  1 34  1  0  0  0  0
  1 35  1  0  0  0  0
  3 36  1  0  0  0  0
  3 37  1  0  0  0  0
  4 38  1  0  0  0  0
  6 39  1  0  0  0  0
  7 40  1  0  0  0  0
  7 41  1  0  0  0  0
  8 42  1  0  0  0  0
 10 43  1  0  0  0  0
 10 44  1  0  0  0  0
 11 45  1  0  0  0  0
 11 46  1  0  0  0  0
 12 47  1  0  0  0  0
 14 48  1  0  0  0  0
 15 49  1  0  0  0  0
 15 50  1  0  0  0  0
 16 51  1  0  0  0  0
 16 52  1  0  0  0  0
 19 53  1  0  0  0  0
 19 54  1  0  0  0  0
 20 55  1  0  0  0  0
 20 56  1  0  0  0  0
 22 57  1  0  0  0  0
 23 58  1  0  0  0  0
 24 59  1  0  0  0  0
 24 60  1  0  0  0  0
 24 61  1  0  0  0  0
 25 62  1  0  0  0  0
 25 63  1  0  0  0  0
 25 64  1  0  0  0  0
 26 65  1  0  0  0  0
 26 66  1  0  0  0  0
 26 67  1  0  0  0  0
 27 68  1  0  0  0  0
 27 69  1  0  0  0  0
 27 70  1  0  0  0  0
 28 71  1  0  0  0  0
 28 72  1  0  0  0  0
 29 73  1  0  0  0  0
 30 74  1  0  0  0  0
 31 75  1  0  0  0  0
 31 76  1  0  0  0  0
 31 77  1  0  0  0  0
 32 78  1  0  0  0  0
 32 79  1  0  0  0  0
 32 80  1  0  0  0  0
M  END
$$$$
