C20H24O8
APtclcactv06281817373D 0   0.00000     0.00000
 
 52 54  0  0  0  0  0  0  0  0999 V2000
   -3.5924   -3.0843   -1.4648 C   0  0  0  0  0  0  0  0  0  0  0  0
   -2.8896   -3.2590   -0.1432 C   0  0  0  0  0  0  0  0  0  0  0  0
   -1.8487   -2.5188    0.1480 C   0  0  0  0  0  0  0  0  0  0  0  0
   -1.4256   -1.4133   -0.7848 C   0  0  0  0  0  0  0  0  0  0  0  0
   -1.3381   -0.1173   -0.0207 C   0  0  0  0  0  0  0  0  0  0  0  0
   -0.1486    0.2536    0.5844 C   0  0  0  0  0  0  0  0  0  0  0  0
   -0.0576    1.4501    1.2933 C   0  0  0  0  0  0  0  0  0  0  0  0
   -1.1404    2.2737    1.4012 C   0  0  0  0  0  0  0  0  0  0  0  0
   -2.3503    1.9146    0.7960 C   0  0  0  0  0  0  0  0  0  0  0  0
   -2.4467    0.7105    0.0741 C   0  0  0  0  0  0  0  0  0  0  0  0
   -3.6154    0.3680   -0.5090 O   0  0  0  0  0  0  0  0  0  0  0  0
   -4.7003    1.1532   -0.4182 C   0  0  0  0  0  0  0  0  0  0  0  0
   -5.7332    0.8031   -0.9602 O   0  0  0  0  0  0  0  0  0  0  0  0
   -4.6747    2.3727    0.2891 C   0  0  0  0  0  0  0  0  0  0  0  0
   -3.5284    2.7788    0.8947 C   0  0  0  0  0  0  0  0  0  0  0  0
    0.9373   -0.5551    0.4865 O   0  0  0  0  0  0  0  0  0  0  0  0
    2.1337   -0.1157    1.1326 C   0  0  0  0  0  0  0  0  0  0  0  0
    3.2037   -1.2049    1.0210 C   0  0  0  0  0  0  0  0  0  0  0  0
    3.5322   -1.4375   -0.4570 C   0  0  0  0  0  0  0  0  0  0  0  0
    3.9823   -0.1140   -1.0831 C   0  0  0  0  0  0  0  0  0  0  0  0
    2.8822    0.9330   -0.8902 C   0  0  0  0  0  0  0  0  0  0  0  0
    2.6040    1.0783    0.5040 O   0  0  0  0  0  0  0  0  0  0  0  0
    3.3488    2.2742   -1.4598 C   0  0  0  0  0  0  0  0  0  0  0  0
    2.2808    3.2207   -1.3855 O   0  0  0  0  0  0  0  0  0  0  0  0
    5.1822    0.3313   -0.4474 O   0  0  0  0  0  0  0  0  0  0  0  0
    4.5824   -2.4003   -0.5675 O   0  0  0  0  0  0  0  0  0  0  0  0
    4.3830   -0.7885    1.7124 O   0  0  0  0  0  0  0  0  0  0  0  0
   -3.3841   -4.2852    0.8433 C   0  0  0  0  0  0  0  0  0  0  0  0
   -2.8729   -3.1938   -2.2762 H   0  0  0  0  0  0  0  0  0  0  0  0
   -4.3710   -3.8405   -1.5650 H   0  0  0  0  0  0  0  0  0  0  0  0
   -4.0417   -2.0922   -1.5090 H   0  0  0  0  0  0  0  0  0  0  0  0
   -1.2938   -2.7008    1.0565 H   0  0  0  0  0  0  0  0  0  0  0  0
   -0.4507   -1.6505   -1.2106 H   0  0  0  0  0  0  0  0  0  0  0  0
   -2.1577   -1.3139   -1.5862 H   0  0  0  0  0  0  0  0  0  0  0  0
    0.8758    1.7272    1.7605 H   0  0  0  0  0  0  0  0  0  0  0  0
   -1.0640    3.1995    1.9521 H   0  0  0  0  0  0  0  0  0  0  0  0
   -5.5629    2.9845    0.3457 H   0  0  0  0  0  0  0  0  0  0  0  0
   -3.4895    3.7094    1.4412 H   0  0  0  0  0  0  0  0  0  0  0  0
    1.9267    0.0841    2.1840 H   0  0  0  0  0  0  0  0  0  0  0  0
    2.8297   -2.1294    1.4609 H   0  0  0  0  0  0  0  0  0  0  0  0
    2.6451   -1.8027   -0.9745 H   0  0  0  0  0  0  0  0  0  0  0  0
    4.1651   -0.2584   -2.1479 H   0  0  0  0  0  0  0  0  0  0  0  0
    1.9794    0.6116   -1.4095 H   0  0  0  0  0  0  0  0  0  0  0  0
    4.1982    2.6386   -0.8820 H   0  0  0  0  0  0  0  0  0  0  0  0
    3.6464    2.1432   -2.5002 H   0  0  0  0  0  0  0  0  0  0  0  0
    2.5060    4.0957   -1.7301 H   0  0  0  0  0  0  0  0  0  0  0  0
    5.9216   -0.2870   -0.5257 H   0  0  0  0  0  0  0  0  0  0  0  0
    4.3680   -3.2619   -0.1845 H   0  0  0  0  0  0  0  0  0  0  0  0
    4.2470   -0.6182    2.6545 H   0  0  0  0  0  0  0  0  0  0  0  0
   -2.8848   -5.2364    0.6592 H   0  0  0  0  0  0  0  0  0  0  0  0
   -3.1647   -3.9500    1.8570 H   0  0  0  0  0  0  0  0  0  0  0  0
   -4.4606   -4.4115    0.7274 H   0  0  0  0  0  0  0  0  0  0  0  0
  1  2  1  0  0  0  0
  2  3  2  0  0  0  0
  3  4  1  0  0  0  0
  4  5  1  0  0  0  0
  5  6  2  0  0  0  0
  6  7  1  0  0  0  0
  7  8  2  0  0  0  0
  8  9  1  0  0  0  0
  9 10  2  0  0  0  0
  5 10  1  0  0  0  0
 10 11  1  0  0  0  0
 11 12  1  0  0  0  0
 12 13  2  0  0  0  0
 12 14  1  0  0  0  0
 14 15  2  0  0  0  0
  9 15  1  0  0  0  0
  6 16  1  0  0  0  0
 16 17  1  0  0  0  0
 17 18  1  0  0  0  0
 18 19  1  0  0  0  0
 19 20  1  0  0  0  0
 20 21  1  0  0  0  0
 21 22  1  0  0  0  0
 17 22  1  0  0  0  0
 21 23  1  0  0  0  0
 23 24  1  0  0  0  0
 20 25  1  0  0  0  0
 19 26  1  0  0  0  0
 18 27  1  0  0  0  0
  2 28  1  0  0  0  0
  1 29  1  0  0  0  0
  1 30  1  0  0  0  0
  1 31  1  0  0  0  0
  3 32  1  0  0  0  0
  4 33  1  0  0  0  0
  4 34  1  0  0  0  0
  7 35  1  0  0  0  0
  8 36  1  0  0  0  0
 14 37  1  0  0  0  0
 15 38  1  0  0  0  0
 17 39  1  0  0  0  0
 18 40  1  0  0  0  0
 19 41  1  0  0  0  0
 20 42  1  0  0  0  0
 21 43  1  0  0  0  0
 23 44  1  0  0  0  0
 23 45  1  0  0  0  0
 24 46  1  0  0  0  0
 25 47  1  0  0  0  0
 26 48  1  0  0  0  0
 27 49  1  0  0  0  0
 28 50  1  0  0  0  0
 28 51  1  0  0  0  0
 28 52  1  0  0  0  0
M  END
$$$$
