C15H20O2
APtclcactv06281817373D 0   0.00000     0.00000
 
 37 37  0  0  0  0  0  0  0  0999 V2000
   -0.0180    0.3699    2.0615 C   0  0  0  0  0  0  0  0  0  0  0  0
   -0.3081    1.0638    0.7556 C   0  0  0  0  0  0  0  0  0  0  0  0
    0.6774    1.4131   -0.0336 C   0  0  0  0  0  0  0  0  0  0  0  0
    2.0906    1.0127    0.3032 C   0  0  0  0  0  0  0  0  0  0  0  0
    2.6607    0.1540   -0.8276 C   0  0  0  0  0  0  0  0  0  0  0  0
    4.0739   -0.2464   -0.4907 C   0  0  0  0  0  0  0  0  0  0  0  0
    4.4570   -1.3492    0.1776 C   0  0  0  0  0  0  0  0  0  0  0  0
    5.7966   -1.3435    0.2733 O   0  0  0  0  0  0  0  0  0  0  0  0
    6.2838   -0.2458   -0.3278 C   0  0  0  0  0  0  0  0  0  0  0  0
    5.2520    0.4617   -0.8218 C   0  0  0  0  0  0  0  0  0  0  0  0
   -1.7320    1.3560    0.3576 C   0  0  0  0  0  0  0  0  0  0  0  0
   -2.3314    0.1280   -0.3305 C   0  0  0  0  0  0  0  0  0  0  0  0
   -3.7552    0.4201   -0.7285 C   0  0  0  0  0  0  0  0  0  0  0  0
   -4.7412   -0.3782   -0.3140 C   0  0  0  0  0  0  0  0  0  0  0  0
   -4.4198   -1.6470    0.4329 C   0  0  0  0  0  0  0  0  0  0  0  0
   -6.1336   -0.0217   -0.5848 C   0  0  0  0  0  0  0  0  0  0  0  0
   -7.0299   -0.7474   -0.2080 O   0  0  0  0  0  0  0  0  0  0  0  0
    0.6726    0.9749    2.6489 H   0  0  0  0  0  0  0  0  0  0  0  0
   -0.9468    0.2367    2.6163 H   0  0  0  0  0  0  0  0  0  0  0  0
    0.4299   -0.6040    1.8637 H   0  0  0  0  0  0  0  0  0  0  0  0
    0.4771    1.9881   -0.9256 H   0  0  0  0  0  0  0  0  0  0  0  0
    2.7025    1.9066    0.4245 H   0  0  0  0  0  0  0  0  0  0  0  0
    2.0949    0.4408    1.2312 H   0  0  0  0  0  0  0  0  0  0  0  0
    2.0488   -0.7399   -0.9488 H   0  0  0  0  0  0  0  0  0  0  0  0
    2.6565    0.7258   -1.7555 H   0  0  0  0  0  0  0  0  0  0  0  0
    3.7988   -2.1098    0.5710 H   0  0  0  0  0  0  0  0  0  0  0  0
    7.3274    0.0214   -0.4051 H   0  0  0  0  0  0  0  0  0  0  0  0
    5.3115    1.3955   -1.3613 H   0  0  0  0  0  0  0  0  0  0  0  0
   -2.3157    1.5957    1.2463 H   0  0  0  0  0  0  0  0  0  0  0  0
   -1.7509    2.2025   -0.3288 H   0  0  0  0  0  0  0  0  0  0  0  0
   -1.7476   -0.1117   -1.2192 H   0  0  0  0  0  0  0  0  0  0  0  0
   -2.3124   -0.7186    0.3559 H   0  0  0  0  0  0  0  0  0  0  0  0
   -3.9778    1.2755   -1.3491 H   0  0  0  0  0  0  0  0  0  0  0  0
   -4.2898   -1.4223    1.4916 H   0  0  0  0  0  0  0  0  0  0  0  0
   -5.2369   -2.3578    0.3100 H   0  0  0  0  0  0  0  0  0  0  0  0
   -3.5003   -2.0784    0.0375 H   0  0  0  0  0  0  0  0  0  0  0  0
   -6.3639    0.8876   -1.1201 H   0  0  0  0  0  0  0  0  0  0  0  0
  1  2  1  0  0  0  0
  2  3  2  0  0  0  0
  3  4  1  0  0  0  0
  4  5  1  0  0  0  0
  5  6  1  0  0  0  0
  6  7  2  0  0  0  0
  7  8  1  0  0  0  0
  8  9  1  0  0  0  0
  9 10  2  0  0  0  0
  6 10  1  0  0  0  0
  2 11  1  0  0  0  0
 11 12  1  0  0  0  0
 12 13  1  0  0  0  0
 13 14  2  0  0  0  0
 14 15  1  0  0  0  0
 14 16  1  0  0  0  0
 16 17  2  0  0  0  0
  1 18  1  0  0  0  0
  1 19  1  0  0  0  0
  1 20  1  0  0  0  0
  3 21  1  0  0  0  0
  4 22  1  0  0  0  0
  4 23  1  0  0  0  0
  5 24  1  0  0  0  0
  5 25  1  0  0  0  0
  7 26  1  0  0  0  0
  9 27  1  0  0  0  0
 10 28  1  0  0  0  0
 11 29  1  0  0  0  0
 11 30  1  0  0  0  0
 12 31  1  0  0  0  0
 12 32  1  0  0  0  0
 13 33  1  0  0  0  0
 15 34  1  0  0  0  0
 15 35  1  0  0  0  0
 15 36  1  0  0  0  0
 16 37  1  0  0  0  0
M  END
$$$$
