C7H8O2
APtclcactv06211802133D 0   0.00000     0.00000
 
 17 17  0  0  0  0  0  0  0  0999 V2000
    0.2435   -1.1980   -0.2174 C   0  0  0  0  0  0  0  0  0  0  0  0
   -1.1265   -1.2008   -0.0394 C   0  0  0  0  0  0  0  0  0  0  0  0
   -1.8155   -0.0000    0.0503 C   0  0  0  0  0  0  0  0  0  0  0  0
   -1.1265    1.2008   -0.0390 C   0  0  0  0  0  0  0  0  0  0  0  0
    0.2434    1.1981   -0.2170 C   0  0  0  0  0  0  0  0  0  0  0  0
    0.9279    0.0001   -0.3061 C   0  0  0  0  0  0  0  0  0  0  0  0
    2.4223    0.0001   -0.5002 C   0  0  0  0  0  0  0  0  0  0  0  0
    3.0682   -0.0001    0.7745 O   0  0  0  0  0  0  0  0  0  0  0  0
   -3.1633   -0.0001    0.2249 O   0  0  0  0  0  0  0  0  0  0  0  0
    0.7809   -2.1325   -0.2827 H   0  0  0  0  0  0  0  0  0  0  0  0
   -1.6607   -2.1369    0.0294 H   0  0  0  0  0  0  0  0  0  0  0  0
   -1.6607    2.1369    0.0301 H   0  0  0  0  0  0  0  0  0  0  0  0
    0.7802    2.1327   -0.2869 H   0  0  0  0  0  0  0  0  0  0  0  0
    2.7164   -0.8898   -1.0567 H   0  0  0  0  0  0  0  0  0  0  0  0
    2.7164    0.8902   -1.0564 H   0  0  0  0  0  0  0  0  0  0  0  0
    4.0340   -0.0001    0.7261 H   0  0  0  0  0  0  0  0  0  0  0  0
   -3.4398   -0.0004    1.1515 H   0  0  0  0  0  0  0  0  0  0  0  0
  1  2  2  0  0  0  0
  2  3  1  0  0  0  0
  3  4  2  0  0  0  0
  4  5  1  0  0  0  0
  5  6  2  0  0  0  0
  1  6  1  0  0  0  0
  6  7  1  0  0  0  0
  7  8  1  0  0  0  0
  3  9  1  0  0  0  0
  1 10  1  0  0  0  0
  2 11  1  0  0  0  0
  4 12  1  0  0  0  0
  5 13  1  0  0  0  0
  7 14  1  0  0  0  0
  7 15  1  0  0  0  0
  8 16  1  0  0  0  0
  9 17  1  0  0  0  0
M  END
$$$$
