C9H10O
APtclcactv06211806043D 0   0.00000     0.00000
 
 20 20  0  0  0  0  0  0  0  0999 V2000
    3.3516    0.9451   -0.0013 C   0  0  0  0  0  0  0  0  0  0  0  0
    2.6809   -0.3167   -0.0004 O   0  0  0  0  0  0  0  0  0  0  0  0
    1.3224   -0.2930   -0.0006 C   0  0  0  0  0  0  0  0  0  0  0  0
    0.6091   -1.4844    0.0002 C   0  0  0  0  0  0  0  0  0  0  0  0
   -0.7693   -1.4646    0.0005 C   0  0  0  0  0  0  0  0  0  0  0  0
   -1.4479   -0.2449   -0.0001 C   0  0  0  0  0  0  0  0  0  0  0  0
   -0.7273    0.9505   -0.0009 C   0  0  0  0  0  0  0  0  0  0  0  0
    0.6510    0.9224    0.0042 C   0  0  0  0  0  0  0  0  0  0  0  0
   -2.9254   -0.2192   -0.0003 C   0  0  0  0  0  0  0  0  0  0  0  0
   -3.5683    0.9405   -0.0008 C   0  0  0  0  0  0  0  0  0  0  0  0
    3.0686    1.5065   -0.8917 H   0  0  0  0  0  0  0  0  0  0  0  0
    3.0684    1.5078    0.8882 H   0  0  0  0  0  0  0  0  0  0  0  0
    4.4296    0.7835   -0.0010 H   0  0  0  0  0  0  0  0  0  0  0  0
    1.1349   -2.4278    0.0002 H   0  0  0  0  0  0  0  0  0  0  0  0
   -1.3234   -2.3916    0.0007 H   0  0  0  0  0  0  0  0  0  0  0  0
   -1.2489    1.8963   -0.0014 H   0  0  0  0  0  0  0  0  0  0  0  0
    1.2092    1.8469    0.0036 H   0  0  0  0  0  0  0  0  0  0  0  0
   -3.4816   -1.1450   -0.0000 H   0  0  0  0  0  0  0  0  0  0  0  0
   -3.0121    1.8662   -0.0011 H   0  0  0  0  0  0  0  0  0  0  0  0
   -4.6482    0.9592   -0.0009 H   0  0  0  0  0  0  0  0  0  0  0  0
  1  2  1  0  0  0  0
  2  3  1  0  0  0  0
  3  4  2  0  0  0  0
  4  5  1  0  0  0  0
  5  6  2  0  0  0  0
  6  7  1  0  0  0  0
  7  8  2  0  0  0  0
  3  8  1  0  0  0  0
  6  9  1  0  0  0  0
  9 10  2  0  0  0  0
  1 11  1  0  0  0  0
  1 12  1  0  0  0  0
  1 13  1  0  0  0  0
  4 14  1  0  0  0  0
  5 15  1  0  0  0  0
  7 16  1  0  0  0  0
  8 17  1  0  0  0  0
  9 18  1  0  0  0  0
 10 19  1  0  0  0  0
 10 20  1  0  0  0  0
M  END
$$$$
