C6H12O2
APtclcactv06211806043D 0   0.00000     0.00000
 
 20 19  0  0  0  0  0  0  0  0999 V2000
    4.3506   -0.2657   -0.0000 C   0  0  0  0  0  0  0  0  0  0  0  0
    3.0639    0.5620    0.0000 C   0  0  0  0  0  0  0  0  0  0  0  0
    1.8545   -0.3752   -0.0000 C   0  0  0  0  0  0  0  0  0  0  0  0
    0.5678    0.4525    0.0000 C   0  0  0  0  0  0  0  0  0  0  0  0
   -0.6415   -0.4848    0.0000 C   0  0  0  0  0  0  0  0  0  0  0  0
   -1.8627    0.3008   -0.0000 O   0  0  0  0  0  0  0  0  0  0  0  0
   -3.0222   -0.3754    0.0000 C   0  0  0  0  0  0  0  0  0  0  0  0
   -4.0712    0.2242   -0.0000 O   0  0  0  0  0  0  0  0  0  0  0  0
    4.3782   -0.8944    0.8900 H   0  0  0  0  0  0  0  0  0  0  0  0
    4.3782   -0.8944   -0.8900 H   0  0  0  0  0  0  0  0  0  0  0  0
    5.2122    0.4020   -0.0000 H   0  0  0  0  0  0  0  0  0  0  0  0
    3.0363    1.1907    0.8900 H   0  0  0  0  0  0  0  0  0  0  0  0
    3.0363    1.1907   -0.8900 H   0  0  0  0  0  0  0  0  0  0  0  0
    1.8821   -1.0040   -0.8900 H   0  0  0  0  0  0  0  0  0  0  0  0
    1.8821   -1.0040    0.8900 H   0  0  0  0  0  0  0  0  0  0  0  0
    0.5402    1.0812    0.8900 H   0  0  0  0  0  0  0  0  0  0  0  0
    0.5402    1.0812   -0.8900 H   0  0  0  0  0  0  0  0  0  0  0  0
   -0.6140   -1.1135   -0.8900 H   0  0  0  0  0  0  0  0  0  0  0  0
   -0.6140   -1.1135    0.8900 H   0  0  0  0  0  0  0  0  0  0  0  0
   -3.0176   -1.4554    0.0000 H   0  0  0  0  0  0  0  0  0  0  0  0
  1  2  1  0  0  0  0
  2  3  1  0  0  0  0
  3  4  1  0  0  0  0
  4  5  1  0  0  0  0
  5  6  1  0  0  0  0
  6  7  1  0  0  0  0
  7  8  2  0  0  0  0
  1  9  1  0  0  0  0
  1 10  1  0  0  0  0
  1 11  1  0  0  0  0
  2 12  1  0  0  0  0
  2 13  1  0  0  0  0
  3 14  1  0  0  0  0
  3 15  1  0  0  0  0
  4 16  1  0  0  0  0
  4 17  1  0  0  0  0
  5 18  1  0  0  0  0
  5 19  1  0  0  0  0
  7 20  1  0  0  0  0
M  END
$$$$
