C13H26O2
APtclcactv06211806053D 0   0.00000     0.00000
 
 41 40  0  0  0  0  0  0  0  0999 V2000
    8.6189   -0.4984   -0.0000 C   0  0  0  0  0  0  0  0  0  0  0  0
    7.3898    0.4128    0.0000 C   0  0  0  0  0  0  0  0  0  0  0  0
    6.1210   -0.4422   -0.0000 C   0  0  0  0  0  0  0  0  0  0  0  0
    4.8919    0.4690    0.0000 C   0  0  0  0  0  0  0  0  0  0  0  0
    3.6232   -0.3861   -0.0000 C   0  0  0  0  0  0  0  0  0  0  0  0
    2.3941    0.5251    0.0000 C   0  0  0  0  0  0  0  0  0  0  0  0
    1.1253   -0.3299   -0.0000 C   0  0  0  0  0  0  0  0  0  0  0  0
   -0.1037    0.5813    0.0000 C   0  0  0  0  0  0  0  0  0  0  0  0
   -1.3725   -0.2737   -0.0000 C   0  0  0  0  0  0  0  0  0  0  0  0
   -2.6016    0.6375   -0.0000 C   0  0  0  0  0  0  0  0  0  0  0  0
   -3.8704   -0.2176   -0.0000 C   0  0  0  0  0  0  0  0  0  0  0  0
   -5.0994    0.6936   -0.0000 C   0  0  0  0  0  0  0  0  0  0  0  0
   -6.3492   -0.1485    0.0000 C   0  0  0  0  0  0  0  0  0  0  0  0
   -6.2654   -1.3539    0.0000 O   0  0  0  0  0  0  0  0  0  0  0  0
   -7.5553    0.4404   -0.0000 O   0  0  0  0  0  0  0  0  0  0  0  0
    9.5228    0.1108    0.0000 H   0  0  0  0  0  0  0  0  0  0  0  0
    8.6047   -1.1275    0.8900 H   0  0  0  0  0  0  0  0  0  0  0  0
    8.6047   -1.1275   -0.8900 H   0  0  0  0  0  0  0  0  0  0  0  0
    7.4039    1.0420    0.8900 H   0  0  0  0  0  0  0  0  0  0  0  0
    7.4039    1.0420   -0.8900 H   0  0  0  0  0  0  0  0  0  0  0  0
    6.1069   -1.0714   -0.8900 H   0  0  0  0  0  0  0  0  0  0  0  0
    6.1069   -1.0714    0.8900 H   0  0  0  0  0  0  0  0  0  0  0  0
    4.9061    1.0981    0.8900 H   0  0  0  0  0  0  0  0  0  0  0  0
    4.9061    1.0981   -0.8900 H   0  0  0  0  0  0  0  0  0  0  0  0
    3.6090   -1.0152   -0.8900 H   0  0  0  0  0  0  0  0  0  0  0  0
    3.6090   -1.0152    0.8900 H   0  0  0  0  0  0  0  0  0  0  0  0
    2.4082    1.1543    0.8900 H   0  0  0  0  0  0  0  0  0  0  0  0
    2.4082    1.1543   -0.8900 H   0  0  0  0  0  0  0  0  0  0  0  0
    1.1112   -0.9590   -0.8900 H   0  0  0  0  0  0  0  0  0  0  0  0
    1.1112   -0.9590    0.8900 H   0  0  0  0  0  0  0  0  0  0  0  0
   -0.0896    1.2105    0.8900 H   0  0  0  0  0  0  0  0  0  0  0  0
   -0.0896    1.2105   -0.8900 H   0  0  0  0  0  0  0  0  0  0  0  0
   -1.3867   -0.9029   -0.8900 H   0  0  0  0  0  0  0  0  0  0  0  0
   -1.3867   -0.9029    0.8900 H   0  0  0  0  0  0  0  0  0  0  0  0
   -2.5874    1.2666    0.8900 H   0  0  0  0  0  0  0  0  0  0  0  0
   -2.5874    1.2666   -0.8900 H   0  0  0  0  0  0  0  0  0  0  0  0
   -3.8845   -0.8467   -0.8900 H   0  0  0  0  0  0  0  0  0  0  0  0
   -3.8845   -0.8467    0.8900 H   0  0  0  0  0  0  0  0  0  0  0  0
   -5.0853    1.3228    0.8900 H   0  0  0  0  0  0  0  0  0  0  0  0
   -5.0853    1.3228   -0.8900 H   0  0  0  0  0  0  0  0  0  0  0  0
   -8.3279   -0.1413    0.0000 H   0  0  0  0  0  0  0  0  0  0  0  0
  1  2  1  0  0  0  0
  2  3  1  0  0  0  0
  3  4  1  0  0  0  0
  4  5  1  0  0  0  0
  5  6  1  0  0  0  0
  6  7  1  0  0  0  0
  7  8  1  0  0  0  0
  8  9  1  0  0  0  0
  9 10  1  0  0  0  0
 10 11  1  0  0  0  0
 11 12  1  0  0  0  0
 12 13  1  0  0  0  0
 13 14  2  0  0  0  0
 13 15  1  0  0  0  0
  1 16  1  0  0  0  0
  1 17  1  0  0  0  0
  1 18  1  0  0  0  0
  2 19  1  0  0  0  0
  2 20  1  0  0  0  0
  3 21  1  0  0  0  0
  3 22  1  0  0  0  0
  4 23  1  0  0  0  0
  4 24  1  0  0  0  0
  5 25  1  0  0  0  0
  5 26  1  0  0  0  0
  6 27  1  0  0  0  0
  6 28  1  0  0  0  0
  7 29  1  0  0  0  0
  7 30  1  0  0  0  0
  8 31  1  0  0  0  0
  8 32  1  0  0  0  0
  9 33  1  0  0  0  0
  9 34  1  0  0  0  0
 10 35  1  0  0  0  0
 10 36  1  0  0  0  0
 11 37  1  0  0  0  0
 11 38  1  0  0  0  0
 12 39  1  0  0  0  0
 12 40  1  0  0  0  0
 15 41  1  0  0  0  0
M  END
$$$$
