C10H14O2
APtclcactv06211804333D 0   0.00000     0.00000
 
 26 26  0  0  0  0  0  0  0  0999 V2000
    3.4416   -0.2419   -1.2423 C   0  0  0  0  0  0  0  0  0  0  0  0
    2.9288    0.0275    0.1489 C   0  0  0  0  0  0  0  0  0  0  0  0
    3.7727    0.2316    1.1300 C   0  0  0  0  0  0  0  0  0  0  0  0
    1.4453    0.0622    0.4116 C   0  0  0  0  0  0  0  0  0  0  0  0
    0.7971    1.1616   -0.4388 C   0  0  0  0  0  0  0  0  0  0  0  0
   -0.6654    1.3064   -0.0129 C   0  0  0  0  0  0  0  0  0  0  0  0
   -1.3306   -0.0388    0.0161 C   0  0  0  0  0  0  0  0  0  0  0  0
   -0.6742   -1.1797    0.0372 C   0  0  0  0  0  0  0  0  0  0  0  0
    0.8233   -1.2812    0.0250 C   0  0  0  0  0  0  0  0  0  0  0  0
   -2.7994   -0.0848    0.0216 C   0  0  0  0  0  0  0  0  0  0  0  0
   -3.3737   -1.1557    0.0448 O   0  0  0  0  0  0  0  0  0  0  0  0
   -3.5097    1.0606    0.0009 O   0  0  0  0  0  0  0  0  0  0  0  0
    4.5315   -0.2281   -1.2368 H   0  0  0  0  0  0  0  0  0  0  0  0
    3.0923   -1.2192   -1.5753 H   0  0  0  0  0  0  0  0  0  0  0  0
    3.0720    0.5267   -1.9210 H   0  0  0  0  0  0  0  0  0  0  0  0
    3.4052    0.4247    2.1270 H   0  0  0  0  0  0  0  0  0  0  0  0
    4.8358    0.2067    0.9417 H   0  0  0  0  0  0  0  0  0  0  0  0
    1.2651    0.2621    1.4678 H   0  0  0  0  0  0  0  0  0  0  0  0
    1.3201    2.1045   -0.2789 H   0  0  0  0  0  0  0  0  0  0  0  0
    0.8462    0.8865   -1.4923 H   0  0  0  0  0  0  0  0  0  0  0  0
   -0.7100    1.7530    0.9804 H   0  0  0  0  0  0  0  0  0  0  0  0
   -1.1857    1.9517   -0.7207 H   0  0  0  0  0  0  0  0  0  0  0  0
   -1.2461   -2.0954    0.0646 H   0  0  0  0  0  0  0  0  0  0  0  0
    1.1584   -1.5608   -0.9738 H   0  0  0  0  0  0  0  0  0  0  0  0
    1.1396   -2.0438    0.7367 H   0  0  0  0  0  0  0  0  0  0  0  0
   -4.4733    0.9798    0.0056 H   0  0  0  0  0  0  0  0  0  0  0  0
  1  2  1  0  0  0  0
  2  3  2  0  0  0  0
  2  4  1  0  0  0  0
  4  5  1  0  0  0  0
  5  6  1  0  0  0  0
  6  7  1  0  0  0  0
  7  8  2  0  0  0  0
  8  9  1  0  0  0  0
  4  9  1  0  0  0  0
  7 10  1  0  0  0  0
 10 11  2  0  0  0  0
 10 12  1  0  0  0  0
  1 13  1  0  0  0  0
  1 14  1  0  0  0  0
  1 15  1  0  0  0  0
  3 16  1  0  0  0  0
  3 17  1  0  0  0  0
  4 18  1  0  0  0  0
  5 19  1  0  0  0  0
  5 20  1  0  0  0  0
  6 21  1  0  0  0  0
  6 22  1  0  0  0  0
  8 23  1  0  0  0  0
  9 24  1  0  0  0  0
  9 25  1  0  0  0  0
 12 26  1  0  0  0  0
M  END
$$$$
