C6H12O
APtclcactv06281817373D 0   0.00000     0.00000
 
 19 18  0  0  0  0  0  0  0  0999 V2000
    3.2988    0.2624   -0.1268 C   0  0  0  0  0  0  0  0  0  0  0  0
    1.9634   -0.1462    0.4396 C   0  0  0  0  0  0  0  0  0  0  0  0
    0.9771   -0.4547   -0.3655 C   0  0  0  0  0  0  0  0  0  0  0  0
   -0.3583   -0.8633    0.2009 C   0  0  0  0  0  0  0  0  0  0  0  0
   -1.4543    0.0321   -0.3804 C   0  0  0  0  0  0  0  0  0  0  0  0
   -2.8219   -0.4608    0.0967 C   0  0  0  0  0  0  0  0  0  0  0  0
   -1.2531    1.3771    0.0583 O   0  0  0  0  0  0  0  0  0  0  0  0
    3.1747    1.1520   -0.7443 H   0  0  0  0  0  0  0  0  0  0  0  0
    3.9884    0.4795    0.6889 H   0  0  0  0  0  0  0  0  0  0  0  0
    3.6991   -0.5489   -0.7348 H   0  0  0  0  0  0  0  0  0  0  0  0
    1.8195   -0.1846    1.5093 H   0  0  0  0  0  0  0  0  0  0  0  0
    1.1210   -0.4163   -1.4352 H   0  0  0  0  0  0  0  0  0  0  0  0
   -0.5612   -1.9020   -0.0600 H   0  0  0  0  0  0  0  0  0  0  0  0
   -0.3404   -0.7580    1.2857 H   0  0  0  0  0  0  0  0  0  0  0  0
   -1.4143   -0.0048   -1.4690 H   0  0  0  0  0  0  0  0  0  0  0  0
   -2.8619   -0.4238    1.1854 H   0  0  0  0  0  0  0  0  0  0  0  0
   -3.6028    0.1771   -0.3174 H   0  0  0  0  0  0  0  0  0  0  0  0
   -2.9754   -1.4867   -0.2379 H   0  0  0  0  0  0  0  0  0  0  0  0
   -1.2761    1.4851    1.0190 H   0  0  0  0  0  0  0  0  0  0  0  0
  1  2  1  0  0  0  0
  2  3  2  0  0  0  0
  3  4  1  0  0  0  0
  4  5  1  0  0  0  0
  5  6  1  0  0  0  0
  5  7  1  0  0  0  0
  1  8  1  0  0  0  0
  1  9  1  0  0  0  0
  1 10  1  0  0  0  0
  2 11  1  0  0  0  0
  3 12  1  0  0  0  0
  4 13  1  0  0  0  0
  4 14  1  0  0  0  0
  5 15  1  0  0  0  0
  6 16  1  0  0  0  0
  6 17  1  0  0  0  0
  6 18  1  0  0  0  0
  7 19  1  0  0  0  0
M  END
$$$$
