C22H46O
APtclcactv06201807263D 0   0.00000     0.00000
 
 69 68  0  0  0  0  0  0  0  0999 V2000
   13.8206   -0.4129   -0.0000 C   0  0  0  0  0  0  0  0  0  0  0  0
   12.5706    0.4695    0.0000 C   0  0  0  0  0  0  0  0  0  0  0  0
   11.3221   -0.4148   -0.0000 C   0  0  0  0  0  0  0  0  0  0  0  0
   10.0721    0.4675    0.0000 C   0  0  0  0  0  0  0  0  0  0  0  0
    8.8236   -0.4168   -0.0000 C   0  0  0  0  0  0  0  0  0  0  0  0
    7.5737    0.4655    0.0000 C   0  0  0  0  0  0  0  0  0  0  0  0
    6.3251   -0.4188   -0.0000 C   0  0  0  0  0  0  0  0  0  0  0  0
    5.0752    0.4636    0.0000 C   0  0  0  0  0  0  0  0  0  0  0  0
    3.8266   -0.4208   -0.0000 C   0  0  0  0  0  0  0  0  0  0  0  0
    2.5767    0.4616    0.0000 C   0  0  0  0  0  0  0  0  0  0  0  0
    1.3282   -0.4228   -0.0000 C   0  0  0  0  0  0  0  0  0  0  0  0
    0.0782    0.4596   -0.0000 C   0  0  0  0  0  0  0  0  0  0  0  0
   -1.1703   -0.4247    0.0000 C   0  0  0  0  0  0  0  0  0  0  0  0
   -2.4203    0.4576   -0.0000 C   0  0  0  0  0  0  0  0  0  0  0  0
   -3.6688   -0.4267    0.0000 C   0  0  0  0  0  0  0  0  0  0  0  0
   -4.9187    0.4556   -0.0000 C   0  0  0  0  0  0  0  0  0  0  0  0
   -6.1673   -0.4287    0.0000 C   0  0  0  0  0  0  0  0  0  0  0  0
   -7.4172    0.4537   -0.0000 C   0  0  0  0  0  0  0  0  0  0  0  0
   -8.6658   -0.4307    0.0000 C   0  0  0  0  0  0  0  0  0  0  0  0
   -9.9157    0.4517   -0.0000 C   0  0  0  0  0  0  0  0  0  0  0  0
  -11.1642   -0.4327    0.0000 C   0  0  0  0  0  0  0  0  0  0  0  0
  -12.4142    0.4497   -0.0000 C   0  0  0  0  0  0  0  0  0  0  0  0
  -13.5803   -0.3763    0.0000 O   0  0  0  0  0  0  0  0  0  0  0  0
   14.7100    0.2172    0.0000 H   0  0  0  0  0  0  0  0  0  0  0  0
   13.8211   -1.0422    0.8900 H   0  0  0  0  0  0  0  0  0  0  0  0
   13.8211   -1.0422   -0.8900 H   0  0  0  0  0  0  0  0  0  0  0  0
   12.5701    1.0988    0.8900 H   0  0  0  0  0  0  0  0  0  0  0  0
   12.5701    1.0988   -0.8900 H   0  0  0  0  0  0  0  0  0  0  0  0
   11.3226   -1.0441   -0.8900 H   0  0  0  0  0  0  0  0  0  0  0  0
   11.3226   -1.0441    0.8900 H   0  0  0  0  0  0  0  0  0  0  0  0
   10.0716    1.0968    0.8900 H   0  0  0  0  0  0  0  0  0  0  0  0
   10.0716    1.0968   -0.8900 H   0  0  0  0  0  0  0  0  0  0  0  0
    8.8241   -1.0461   -0.8900 H   0  0  0  0  0  0  0  0  0  0  0  0
    8.8241   -1.0461    0.8900 H   0  0  0  0  0  0  0  0  0  0  0  0
    7.5732    1.0949    0.8900 H   0  0  0  0  0  0  0  0  0  0  0  0
    7.5732    1.0949   -0.8900 H   0  0  0  0  0  0  0  0  0  0  0  0
    6.3256   -1.0481   -0.8900 H   0  0  0  0  0  0  0  0  0  0  0  0
    6.3256   -1.0481    0.8900 H   0  0  0  0  0  0  0  0  0  0  0  0
    5.0747    1.0929    0.8900 H   0  0  0  0  0  0  0  0  0  0  0  0
    5.0747    1.0929   -0.8900 H   0  0  0  0  0  0  0  0  0  0  0  0
    3.8271   -1.0501   -0.8900 H   0  0  0  0  0  0  0  0  0  0  0  0
    3.8271   -1.0501    0.8900 H   0  0  0  0  0  0  0  0  0  0  0  0
    2.5762    1.0909    0.8900 H   0  0  0  0  0  0  0  0  0  0  0  0
    2.5762    1.0909   -0.8900 H   0  0  0  0  0  0  0  0  0  0  0  0
    1.3287   -1.0521   -0.8900 H   0  0  0  0  0  0  0  0  0  0  0  0
    1.3287   -1.0521    0.8900 H   0  0  0  0  0  0  0  0  0  0  0  0
    0.0777    1.0889    0.8900 H   0  0  0  0  0  0  0  0  0  0  0  0
    0.0777    1.0889   -0.8900 H   0  0  0  0  0  0  0  0  0  0  0  0
   -1.1698   -1.0541   -0.8900 H   0  0  0  0  0  0  0  0  0  0  0  0
   -1.1698   -1.0541    0.8900 H   0  0  0  0  0  0  0  0  0  0  0  0
   -2.4208    1.0869    0.8900 H   0  0  0  0  0  0  0  0  0  0  0  0
   -2.4208    1.0869   -0.8900 H   0  0  0  0  0  0  0  0  0  0  0  0
   -3.6683   -1.0560   -0.8900 H   0  0  0  0  0  0  0  0  0  0  0  0
   -3.6683   -1.0560    0.8900 H   0  0  0  0  0  0  0  0  0  0  0  0
   -4.9192    1.0849    0.8900 H   0  0  0  0  0  0  0  0  0  0  0  0
   -4.9192    1.0849   -0.8900 H   0  0  0  0  0  0  0  0  0  0  0  0
   -6.1668   -1.0580   -0.8900 H   0  0  0  0  0  0  0  0  0  0  0  0
   -6.1668   -1.0580    0.8900 H   0  0  0  0  0  0  0  0  0  0  0  0
   -7.4177    1.0830    0.8900 H   0  0  0  0  0  0  0  0  0  0  0  0
   -7.4177    1.0830   -0.8900 H   0  0  0  0  0  0  0  0  0  0  0  0
   -8.6653   -1.0600   -0.8900 H   0  0  0  0  0  0  0  0  0  0  0  0
   -8.6653   -1.0600    0.8900 H   0  0  0  0  0  0  0  0  0  0  0  0
   -9.9162    1.0810    0.8900 H   0  0  0  0  0  0  0  0  0  0  0  0
   -9.9162    1.0810   -0.8900 H   0  0  0  0  0  0  0  0  0  0  0  0
  -11.1637   -1.0620   -0.8900 H   0  0  0  0  0  0  0  0  0  0  0  0
  -11.1637   -1.0620    0.8900 H   0  0  0  0  0  0  0  0  0  0  0  0
  -12.4147    1.0790    0.8900 H   0  0  0  0  0  0  0  0  0  0  0  0
  -12.4147    1.0790   -0.8900 H   0  0  0  0  0  0  0  0  0  0  0  0
  -14.4119    0.1173   -0.0000 H   0  0  0  0  0  0  0  0  0  0  0  0
  1  2  1  0  0  0  0
  2  3  1  0  0  0  0
  3  4  1  0  0  0  0
  4  5  1  0  0  0  0
  5  6  1  0  0  0  0
  6  7  1  0  0  0  0
  7  8  1  0  0  0  0
  8  9  1  0  0  0  0
  9 10  1  0  0  0  0
 10 11  1  0  0  0  0
 11 12  1  0  0  0  0
 12 13  1  0  0  0  0
 13 14  1  0  0  0  0
 14 15  1  0  0  0  0
 15 16  1  0  0  0  0
 16 17  1  0  0  0  0
 17 18  1  0  0  0  0
 18 19  1  0  0  0  0
 19 20  1  0  0  0  0
 20 21  1  0  0  0  0
 21 22  1  0  0  0  0
 22 23  1  0  0  0  0
  1 24  1  0  0  0  0
  1 25  1  0  0  0  0
  1 26  1  0  0  0  0
  2 27  1  0  0  0  0
  2 28  1  0  0  0  0
  3 29  1  0  0  0  0
  3 30  1  0  0  0  0
  4 31  1  0  0  0  0
  4 32  1  0  0  0  0
  5 33  1  0  0  0  0
  5 34  1  0  0  0  0
  6 35  1  0  0  0  0
  6 36  1  0  0  0  0
  7 37  1  0  0  0  0
  7 38  1  0  0  0  0
  8 39  1  0  0  0  0
  8 40  1  0  0  0  0
  9 41  1  0  0  0  0
  9 42  1  0  0  0  0
 10 43  1  0  0  0  0
 10 44  1  0  0  0  0
 11 45  1  0  0  0  0
 11 46  1  0  0  0  0
 12 47  1  0  0  0  0
 12 48  1  0  0  0  0
 13 49  1  0  0  0  0
 13 50  1  0  0  0  0
 14 51  1  0  0  0  0
 14 52  1  0  0  0  0
 15 53  1  0  0  0  0
 15 54  1  0  0  0  0
 16 55  1  0  0  0  0
 16 56  1  0  0  0  0
 17 57  1  0  0  0  0
 17 58  1  0  0  0  0
 18 59  1  0  0  0  0
 18 60  1  0  0  0  0
 19 61  1  0  0  0  0
 19 62  1  0  0  0  0
 20 63  1  0  0  0  0
 20 64  1  0  0  0  0
 21 65  1  0  0  0  0
 21 66  1  0  0  0  0
 22 67  1  0  0  0  0
 22 68  1  0  0  0  0
 23 69  1  0  0  0  0
M  END
$$$$
