C10H12O2
APtclcactv06211806053D 0   0.00000     0.00000
 
 24 24  0  0  0  0  0  0  0  0999 V2000
    3.2613    0.2081   -1.2503 C   0  0  0  0  0  0  0  0  0  0  0  0
    2.6682   -0.4452   -0.0003 C   0  0  0  0  0  0  0  0  0  0  0  0
    3.2618    0.2103    1.2482 C   0  0  0  0  0  0  0  0  0  0  0  0
    1.1722   -0.2633   -0.0002 C   0  0  0  0  0  0  0  0  0  0  0  0
    0.4326   -1.4276    0.0010 C   0  0  0  0  0  0  0  0  0  0  0  0
   -0.9506   -1.5852    0.0010 C   0  0  0  0  0  0  0  0  0  0  0  0
   -1.9289   -0.6090    0.0002 C   0  0  0  0  0  0  0  0  0  0  0  0
   -1.7631    0.7994   -0.0008 C   0  0  0  0  0  0  0  0  0  0  0  0
   -2.7935    1.4593   -0.0009 O   0  0  0  0  0  0  0  0  0  0  0  0
   -0.5634    1.5326   -0.0012 C   0  0  0  0  0  0  0  0  0  0  0  0
    0.7290    1.0571    0.0042 C   0  0  0  0  0  0  0  0  0  0  0  0
   -3.2086   -1.0540   -0.0001 O   0  0  0  0  0  0  0  0  0  0  0  0
    4.3433    0.0764   -1.2504 H   0  0  0  0  0  0  0  0  0  0  0  0
    2.8384   -0.2589   -2.1398 H   0  0  0  0  0  0  0  0  0  0  0  0
    3.0247    1.2721   -1.2512 H   0  0  0  0  0  0  0  0  0  0  0  0
    2.9048   -1.5093    0.0006 H   0  0  0  0  0  0  0  0  0  0  0  0
    3.0252    1.2743    1.2473 H   0  0  0  0  0  0  0  0  0  0  0  0
    2.8392   -0.2552    2.1387 H   0  0  0  0  0  0  0  0  0  0  0  0
    4.3438    0.0787    1.2481 H   0  0  0  0  0  0  0  0  0  0  0  0
    1.0055   -2.3431    0.0017 H   0  0  0  0  0  0  0  0  0  0  0  0
   -1.3061   -2.6050    0.0012 H   0  0  0  0  0  0  0  0  0  0  0  0
   -0.6690    2.6074   -0.0020 H   0  0  0  0  0  0  0  0  0  0  0  0
    1.5035    1.8097    0.0030 H   0  0  0  0  0  0  0  0  0  0  0  0
   -3.8703   -0.3489   -0.0007 H   0  0  0  0  0  0  0  0  0  0  0  0
  1  2  1  0  0  0  0
  2  3  1  0  0  0  0
  2  4  1  0  0  0  0
  4  5  2  0  0  0  0
  5  6  1  0  0  0  0
  6  7  2  0  0  0  0
  7  8  1  0  0  0  0
  8  9  2  0  0  0  0
  8 10  1  0  0  0  0
 10 11  2  0  0  0  0
  4 11  1  0  0  0  0
  7 12  1  0  0  0  0
  1 13  1  0  0  0  0
  1 14  1  0  0  0  0
  1 15  1  0  0  0  0
  2 16  1  0  0  0  0
  3 17  1  0  0  0  0
  3 18  1  0  0  0  0
  3 19  1  0  0  0  0
  5 20  1  0  0  0  0
  6 21  1  0  0  0  0
 10 22  1  0  0  0  0
 11 23  1  0  0  0  0
 12 24  1  0  0  0  0
M  END
$$$$
