C9H18
APtclcactv06211806053D 0   0.00000     0.00000
 
 27 27  0  0  0  0  0  0  0  0999 V2000
   -2.4670    1.2492   -0.1452 C   0  0  0  0  0  0  0  0  0  0  0  0
   -1.7301   -0.0000    0.3419 C   0  0  0  0  0  0  0  0  0  0  0  0
   -2.4670   -1.2492   -0.1452 C   0  0  0  0  0  0  0  0  0  0  0  0
   -0.3044    0.0000   -0.2131 C   0  0  0  0  0  0  0  0  0  0  0  0
    0.4325    1.2492    0.2740 C   0  0  0  0  0  0  0  0  0  0  0  0
    1.8583    1.2492   -0.2811 C   0  0  0  0  0  0  0  0  0  0  0  0
    2.5952   -0.0000    0.2061 C   0  0  0  0  0  0  0  0  0  0  0  0
    1.8583   -1.2492   -0.2811 C   0  0  0  0  0  0  0  0  0  0  0  0
    0.4325   -1.2492    0.2740 C   0  0  0  0  0  0  0  0  0  0  0  0
   -2.5012    1.2492   -1.2347 H   0  0  0  0  0  0  0  0  0  0  0  0
   -3.4828    1.2492    0.2502 H   0  0  0  0  0  0  0  0  0  0  0  0
   -1.9421    2.1392    0.2018 H   0  0  0  0  0  0  0  0  0  0  0  0
   -1.6959   -0.0000    1.4313 H   0  0  0  0  0  0  0  0  0  0  0  0
   -2.5012   -1.2492   -1.2347 H   0  0  0  0  0  0  0  0  0  0  0  0
   -1.9421   -2.1392    0.2018 H   0  0  0  0  0  0  0  0  0  0  0  0
   -3.4828   -1.2492    0.2502 H   0  0  0  0  0  0  0  0  0  0  0  0
   -0.3386    0.0000   -1.3026 H   0  0  0  0  0  0  0  0  0  0  0  0
   -0.0924    2.1392   -0.0731 H   0  0  0  0  0  0  0  0  0  0  0  0
    0.4668    1.2492    1.3634 H   0  0  0  0  0  0  0  0  0  0  0  0
    1.8241    1.2492   -1.3705 H   0  0  0  0  0  0  0  0  0  0  0  0
    2.3833    2.1392    0.0660 H   0  0  0  0  0  0  0  0  0  0  0  0
    3.6110   -0.0000   -0.1894 H   0  0  0  0  0  0  0  0  0  0  0  0
    2.6294    0.0000    1.2955 H   0  0  0  0  0  0  0  0  0  0  0  0
    1.8241   -1.2492   -1.3705 H   0  0  0  0  0  0  0  0  0  0  0  0
    2.3833   -2.1392    0.0660 H   0  0  0  0  0  0  0  0  0  0  0  0
    0.4668   -1.2492    1.3634 H   0  0  0  0  0  0  0  0  0  0  0  0
   -0.0924   -2.1392   -0.0731 H   0  0  0  0  0  0  0  0  0  0  0  0
  1  2  1  0  0  0  0
  2  3  1  0  0  0  0
  2  4  1  0  0  0  0
  4  5  1  0  0  0  0
  5  6  1  0  0  0  0
  6  7  1  0  0  0  0
  7  8  1  0  0  0  0
  8  9  1  0  0  0  0
  4  9  1  0  0  0  0
  1 10  1  0  0  0  0
  1 11  1  0  0  0  0
  1 12  1  0  0  0  0
  2 13  1  0  0  0  0
  3 14  1  0  0  0  0
  3 15  1  0  0  0  0
  3 16  1  0  0  0  0
  4 17  1  0  0  0  0
  5 18  1  0  0  0  0
  5 19  1  0  0  0  0
  6 20  1  0  0  0  0
  6 21  1  0  0  0  0
  7 22  1  0  0  0  0
  7 23  1  0  0  0  0
  8 24  1  0  0  0  0
  8 25  1  0  0  0  0
  9 26  1  0  0  0  0
  9 27  1  0  0  0  0
M  END
$$$$
