C30H52O
APtclcactv06281817373D 0   0.00000     0.00000
 
 83 87  0  0  0  0  0  0  0  0999 V2000
    8.0096    2.2952    1.0383 C   0  0  0  0  0  0  0  0  0  0  0  0
    6.7129    2.1300    0.2432 C   0  0  0  0  0  0  0  0  0  0  0  0
    7.0287    2.1330   -1.2538 C   0  0  0  0  0  0  0  0  0  0  0  0
    6.0480    0.8049    0.6215 C   0  0  0  0  0  0  0  0  0  0  0  0
    4.6918    0.6967   -0.0785 C   0  0  0  0  0  0  0  0  0  0  0  0
    4.0269   -0.6284    0.2998 C   0  0  0  0  0  0  0  0  0  0  0  0
    2.6708   -0.7366   -0.4002 C   0  0  0  0  0  0  0  0  0  0  0  0
    2.8823   -0.8075   -1.9139 C   0  0  0  0  0  0  0  0  0  0  0  0
    1.9556   -1.9939    0.0713 C   0  0  0  0  0  0  0  0  0  0  0  0
    1.8718   -2.0603    1.6161 C   0  0  0  0  0  0  0  0  0  0  0  0
    0.3695   -2.2733    1.9570 C   0  0  0  0  0  0  0  0  0  0  0  0
   -0.3233   -1.5673    0.7781 C   0  0  0  0  0  0  0  0  0  0  0  0
    0.5108   -2.0824   -0.4183 C   0  0  0  0  0  0  0  0  0  0  0  0
    0.1325   -1.3016   -1.6546 C   0  0  0  0  0  0  0  0  0  0  0  0
   -1.3477   -1.5524   -1.9684 C   0  0  0  0  0  0  0  0  0  0  0  0
   -2.2531   -1.3319   -0.7472 C   0  0  0  0  0  0  0  0  0  0  0  0
   -1.7813   -1.9308    0.5725 C   0  0  0  0  0  0  0  0  0  0  0  0
   -2.6273   -1.5445    1.7586 C   0  0  0  0  0  0  0  0  0  0  0  0
   -3.1110   -0.1208    1.8351 C   0  0  0  0  0  0  0  0  0  0  0  0
   -3.5976    0.4964    0.5747 C   0  0  0  0  0  0  0  0  0  0  0  0
   -3.1483   -0.0865   -0.7338 C   0  0  0  0  0  0  0  0  0  0  0  0
   -3.7550   -1.4665   -1.0713 C   0  0  0  0  0  0  0  0  0  0  0  0
   -2.9238    0.8557   -1.9177 C   0  0  0  0  0  0  0  0  0  0  0  0
   -3.7296    2.1273   -1.8515 C   0  0  0  0  0  0  0  0  0  0  0  0
   -3.6737    2.7919   -0.4957 C   0  0  0  0  0  0  0  0  0  0  0  0
   -4.1369    1.8812    0.6207 C   0  0  0  0  0  0  0  0  0  0  0  0
   -5.6664    1.7949    0.5641 C   0  0  0  0  0  0  0  0  0  0  0  0
   -3.7577    2.5435    1.9469 C   0  0  0  0  0  0  0  0  0  0  0  0
   -2.3275    3.1968   -0.2330 O   0  0  0  0  0  0  0  0  0  0  0  0
    0.2312   -3.5770   -0.6746 C   0  0  0  0  0  0  0  0  0  0  0  0
   -0.1711   -0.0500    0.9482 C   0  0  0  0  0  0  0  0  0  0  0  0
    8.4832    3.2392    0.7689 H   0  0  0  0  0  0  0  0  0  0  0  0
    7.7846    2.2930    2.1049 H   0  0  0  0  0  0  0  0  0  0  0  0
    8.6847    1.4711    0.8078 H   0  0  0  0  0  0  0  0  0  0  0  0
    6.0378    2.9541    0.4738 H   0  0  0  0  0  0  0  0  0  0  0  0
    7.7038    1.3089   -1.4844 H   0  0  0  0  0  0  0  0  0  0  0  0
    6.1049    2.0153   -1.8203 H   0  0  0  0  0  0  0  0  0  0  0  0
    7.5024    3.0770   -1.5233 H   0  0  0  0  0  0  0  0  0  0  0  0
    6.6848   -0.0231    0.3100 H   0  0  0  0  0  0  0  0  0  0  0  0
    5.9037    0.7660    1.7012 H   0  0  0  0  0  0  0  0  0  0  0  0
    4.0551    1.5247    0.2330 H   0  0  0  0  0  0  0  0  0  0  0  0
    4.8361    0.7356   -1.1582 H   0  0  0  0  0  0  0  0  0  0  0  0
    4.6637   -1.4563   -0.0118 H   0  0  0  0  0  0  0  0  0  0  0  0
    3.8827   -0.6672    1.3795 H   0  0  0  0  0  0  0  0  0  0  0  0
    2.0663    0.1376   -0.1584 H   0  0  0  0  0  0  0  0  0  0  0  0
    3.6309   -0.0730   -2.2109 H   0  0  0  0  0  0  0  0  0  0  0  0
    3.2247   -1.8058   -2.1865 H   0  0  0  0  0  0  0  0  0  0  0  0
    1.9422   -0.5942   -2.4225 H   0  0  0  0  0  0  0  0  0  0  0  0
    2.5038   -2.8770   -0.2905 H   0  0  0  0  0  0  0  0  0  0  0  0
    2.4569   -2.9022    1.9858 H   0  0  0  0  0  0  0  0  0  0  0  0
    2.2318   -1.1336    2.0574 H   0  0  0  0  0  0  0  0  0  0  0  0
    0.1166   -3.3257    2.0010 H   0  0  0  0  0  0  0  0  0  0  0  0
    0.1190   -1.7744    2.8948 H   0  0  0  0  0  0  0  0  0  0  0  0
    0.3097   -0.2348   -1.5495 H   0  0  0  0  0  0  0  0  0  0  0  0
    0.7337   -1.6604   -2.5044 H   0  0  0  0  0  0  0  0  0  0  0  0
   -1.6531   -0.8610   -2.7620 H   0  0  0  0  0  0  0  0  0  0  0  0
   -1.4885   -2.5624   -2.3490 H   0  0  0  0  0  0  0  0  0  0  0  0
   -1.8712   -3.0265    0.4870 H   0  0  0  0  0  0  0  0  0  0  0  0
   -3.5078   -2.2075    1.7764 H   0  0  0  0  0  0  0  0  0  0  0  0
   -2.0639   -1.7719    2.6749 H   0  0  0  0  0  0  0  0  0  0  0  0
   -3.9463   -0.1038    2.5601 H   0  0  0  0  0  0  0  0  0  0  0  0
   -2.3193    0.4900    2.2763 H   0  0  0  0  0  0  0  0  0  0  0  0
   -4.5850   -0.0020    0.5814 H   0  0  0  0  0  0  0  0  0  0  0  0
   -4.0256   -1.6551   -2.1087 H   0  0  0  0  0  0  0  0  0  0  0  0
   -4.3873   -1.9353   -0.3196 H   0  0  0  0  0  0  0  0  0  0  0  0
   -1.8649    1.1131   -1.9633 H   0  0  0  0  0  0  0  0  0  0  0  0
   -3.1886    0.3272   -2.8362 H   0  0  0  0  0  0  0  0  0  0  0  0
   -3.3385    2.8240   -2.5973 H   0  0  0  0  0  0  0  0  0  0  0  0
   -4.7650    1.9045   -2.1039 H   0  0  0  0  0  0  0  0  0  0  0  0
   -4.3073    3.6796   -0.5111 H   0  0  0  0  0  0  0  0  0  0  0  0
   -5.9720    1.3904   -0.4008 H   0  0  0  0  0  0  0  0  0  0  0  0
   -6.0232    1.1426    1.3611 H   0  0  0  0  0  0  0  0  0  0  0  0
   -6.0914    2.7905    0.6917 H   0  0  0  0  0  0  0  0  0  0  0  0
   -4.2474    3.5144    2.0212 H   0  0  0  0  0  0  0  0  0  0  0  0
   -4.0788    1.9104    2.7740 H   0  0  0  0  0  0  0  0  0  0  0  0
   -2.6768    2.6774    1.9901 H   0  0  0  0  0  0  0  0  0  0  0  0
   -1.9722    3.8233   -0.8783 H   0  0  0  0  0  0  0  0  0  0  0  0
   -0.8268   -3.7157   -0.8972 H   0  0  0  0  0  0  0  0  0  0  0  0
    0.8282   -3.9185   -1.5202 H   0  0  0  0  0  0  0  0  0  0  0  0
    0.4944   -4.1532    0.2124 H   0  0  0  0  0  0  0  0  0  0  0  0
    0.8863    0.2026    1.0266 H   0  0  0  0  0  0  0  0  0  0  0  0
   -0.6029    0.4574    0.0856 H   0  0  0  0  0  0  0  0  0  0  0  0
   -0.6886    0.2678    1.8533 H   0  0  0  0  0  0  0  0  0  0  0  0
  1  2  1  0  0  0  0
  2  3  1  0  0  0  0
  2  4  1  0  0  0  0
  4  5  1  0  0  0  0
  5  6  1  0  0  0  0
  6  7  1  0  0  0  0
  7  8  1  0  0  0  0
  7  9  1  0  0  0  0
  9 10  1  0  0  0  0
 10 11  1  0  0  0  0
 11 12  1  0  0  0  0
 12 13  1  0  0  0  0
  9 13  1  0  0  0  0
 13 14  1  0  0  0  0
 14 15  1  0  0  0  0
 15 16  1  0  0  0  0
 16 17  1  0  0  0  0
 12 17  1  0  0  0  0
 17 18  1  0  0  0  0
 18 19  1  0  0  0  0
 19 20  1  0  0  0  0
 20 21  1  0  0  0  0
 16 21  1  0  0  0  0
 21 22  1  0  0  0  0
 16 22  1  0  0  0  0
 21 23  1  0  0  0  0
 23 24  1  0  0  0  0
 24 25  1  0  0  0  0
 25 26  1  0  0  0  0
 20 26  1  0  0  0  0
 26 27  1  0  0  0  0
 26 28  1  0  0  0  0
 25 29  1  0  0  0  0
 13 30  1  0  0  0  0
 12 31  1  0  0  0  0
  1 32  1  0  0  0  0
  1 33  1  0  0  0  0
  1 34  1  0  0  0  0
  2 35  1  0  0  0  0
  3 36  1  0  0  0  0
  3 37  1  0  0  0  0
  3 38  1  0  0  0  0
  4 39  1  0  0  0  0
  4 40  1  0  0  0  0
  5 41  1  0  0  0  0
  5 42  1  0  0  0  0
  6 43  1  0  0  0  0
  6 44  1  0  0  0  0
  7 45  1  0  0  0  0
  8 46  1  0  0  0  0
  8 47  1  0  0  0  0
  8 48  1  0  0  0  0
  9 49  1  0  0  0  0
 10 50  1  0  0  0  0
 10 51  1  0  0  0  0
 11 52  1  0  0  0  0
 11 53  1  0  0  0  0
 14 54  1  0  0  0  0
 14 55  1  0  0  0  0
 15 56  1  0  0  0  0
 15 57  1  0  0  0  0
 17 58  1  0  0  0  0
 18 59  1  0  0  0  0
 18 60  1  0  0  0  0
 19 61  1  0  0  0  0
 19 62  1  0  0  0  0
 20 63  1  0  0  0  0
 22 64  1  0  0  0  0
 22 65  1  0  0  0  0
 23 66  1  0  0  0  0
 23 67  1  0  0  0  0
 24 68  1  0  0  0  0
 24 69  1  0  0  0  0
 25 70  1  0  0  0  0
 27 71  1  0  0  0  0
 27 72  1  0  0  0  0
 27 73  1  0  0  0  0
 28 74  1  0  0  0  0
 28 75  1  0  0  0  0
 28 76  1  0  0  0  0
 29 77  1  0  0  0  0
 30 78  1  0  0  0  0
 30 79  1  0  0  0  0
 30 80  1  0  0  0  0
 31 81  1  0  0  0  0
 31 82  1  0  0  0  0
 31 83  1  0  0  0  0
M  END
$$$$
