C10H18O2
APtclcactv06211805073D 0   0.00000     0.00000
 
 30 30  0  0  0  0  0  0  0  0999 V2000
    5.8304   -0.7679    0.0469 C   0  0  0  0  0  0  0  0  0  0  0  0
    4.6873    0.1344   -0.4225 C   0  0  0  0  0  0  0  0  0  0  0  0
    3.3774   -0.3261    0.2200 C   0  0  0  0  0  0  0  0  0  0  0  0
    2.2343    0.5762   -0.2493 C   0  0  0  0  0  0  0  0  0  0  0  0
    0.9243    0.1157    0.3932 C   0  0  0  0  0  0  0  0  0  0  0  0
   -0.2187    1.0180   -0.0762 C   0  0  0  0  0  0  0  0  0  0  0  0
   -1.5287    0.5575    0.5663 C   0  0  0  0  0  0  0  0  0  0  0  0
   -2.6680    1.5318    0.2025 C   0  0  0  0  0  0  0  0  0  0  0  0
   -3.6827    0.6258   -0.5309 C   0  0  0  0  0  0  0  0  0  0  0  0
   -3.2474   -0.7771   -0.1484 C   0  0  0  0  0  0  0  0  0  0  0  0
   -3.9628   -1.7438   -0.0324 O   0  0  0  0  0  0  0  0  0  0  0  0
   -1.9153   -0.7423    0.0365 O   0  0  0  0  0  0  0  0  0  0  0  0
    6.7636   -0.4398   -0.4108 H   0  0  0  0  0  0  0  0  0  0  0  0
    5.9175   -0.7092    1.1318 H   0  0  0  0  0  0  0  0  0  0  0  0
    5.6243   -1.7974   -0.2459 H   0  0  0  0  0  0  0  0  0  0  0  0
    4.8934    1.1639   -0.1296 H   0  0  0  0  0  0  0  0  0  0  0  0
    4.6002    0.0757   -1.5074 H   0  0  0  0  0  0  0  0  0  0  0  0
    3.1713   -1.3556   -0.0728 H   0  0  0  0  0  0  0  0  0  0  0  0
    3.4645   -0.2674    1.3050 H   0  0  0  0  0  0  0  0  0  0  0  0
    2.4404    1.6057    0.0435 H   0  0  0  0  0  0  0  0  0  0  0  0
    2.1472    0.5175   -1.3343 H   0  0  0  0  0  0  0  0  0  0  0  0
    0.7183   -0.9138    0.1003 H   0  0  0  0  0  0  0  0  0  0  0  0
    1.0115    0.1744    1.4781 H   0  0  0  0  0  0  0  0  0  0  0  0
   -0.0126    2.0475    0.2166 H   0  0  0  0  0  0  0  0  0  0  0  0
   -0.3058    0.9593   -1.1611 H   0  0  0  0  0  0  0  0  0  0  0  0
   -1.4149    0.5024    1.6489 H   0  0  0  0  0  0  0  0  0  0  0  0
   -3.1122    1.9581    1.1019 H   0  0  0  0  0  0  0  0  0  0  0  0
   -2.3055    2.3184   -0.4593 H   0  0  0  0  0  0  0  0  0  0  0  0
   -4.6959    0.8222   -0.1802 H   0  0  0  0  0  0  0  0  0  0  0  0
   -3.6146    0.7680   -1.6094 H   0  0  0  0  0  0  0  0  0  0  0  0
  1  2  1  0  0  0  0
  2  3  1  0  0  0  0
  3  4  1  0  0  0  0
  4  5  1  0  0  0  0
  5  6  1  0  0  0  0
  6  7  1  0  0  0  0
  7  8  1  0  0  0  0
  8  9  1  0  0  0  0
  9 10  1  0  0  0  0
 10 11  2  0  0  0  0
 10 12  1  0  0  0  0
  7 12  1  0  0  0  0
  1 13  1  0  0  0  0
  1 14  1  0  0  0  0
  1 15  1  0  0  0  0
  2 16  1  0  0  0  0
  2 17  1  0  0  0  0
  3 18  1  0  0  0  0
  3 19  1  0  0  0  0
  4 20  1  0  0  0  0
  4 21  1  0  0  0  0
  5 22  1  0  0  0  0
  5 23  1  0  0  0  0
  6 24  1  0  0  0  0
  6 25  1  0  0  0  0
  7 26  1  0  0  0  0
  8 27  1  0  0  0  0
  8 28  1  0  0  0  0
  9 29  1  0  0  0  0
  9 30  1  0  0  0  0
M  END
$$$$
