C16H14O3
APtclcactv06211806383D 0   0.00000     0.00000
 
 33 35  0  0  0  0  0  0  0  0999 V2000
   -3.7982    0.2956   -1.3945 C   0  0  0  0  0  0  0  0  0  0  0  0
   -3.1021    0.7587   -0.1131 C   0  0  0  0  0  0  0  0  0  0  0  0
   -3.0779    2.2879   -0.0699 C   0  0  0  0  0  0  0  0  0  0  0  0
   -3.8525    0.2342    1.0839 C   0  0  0  0  0  0  0  0  0  0  0  0
   -4.9259   -0.4975    0.9150 C   0  0  0  0  0  0  0  0  0  0  0  0
   -1.6899    0.2331   -0.0905 C   0  0  0  0  0  0  0  0  0  0  0  0
   -0.6435    1.0959   -0.0389 C   0  0  0  0  0  0  0  0  0  0  0  0
    0.7129    0.5397   -0.0180 C   0  0  0  0  0  0  0  0  0  0  0  0
    0.8789   -0.8604   -0.0521 C   0  0  0  0  0  0  0  0  0  0  0  0
    2.1503   -1.4072   -0.0329 C   0  0  0  0  0  0  0  0  0  0  0  0
    3.2628   -0.5807    0.0204 C   0  0  0  0  0  0  0  0  0  0  0  0
    3.0970    0.8190    0.0545 C   0  0  0  0  0  0  0  0  0  0  0  0
    1.8268    1.3777    0.0351 C   0  0  0  0  0  0  0  0  0  0  0  0
    4.4570    1.3735    0.1076 C   0  0  0  0  0  0  0  0  0  0  0  0
    5.2880    0.3240    0.1016 C   0  0  0  0  0  0  0  0  0  0  0  0
    4.5892   -0.8240    0.0504 O   0  0  0  0  0  0  0  0  0  0  0  0
   -0.2089   -1.6619   -0.1031 O   0  0  0  0  0  0  0  0  0  0  0  0
   -1.4521   -1.1575   -0.1169 C   0  0  0  0  0  0  0  0  0  0  0  0
   -2.4005   -1.9200   -0.1629 O   0  0  0  0  0  0  0  0  0  0  0  0
   -3.2554    0.6750   -2.2602 H   0  0  0  0  0  0  0  0  0  0  0  0
   -3.8154   -0.7938   -1.4252 H   0  0  0  0  0  0  0  0  0  0  0  0
   -4.8196    0.6758   -1.4108 H   0  0  0  0  0  0  0  0  0  0  0  0
   -4.0993    2.6681   -0.0863 H   0  0  0  0  0  0  0  0  0  0  0  0
   -2.5820    2.6179    0.8429 H   0  0  0  0  0  0  0  0  0  0  0  0
   -2.5351    2.6673   -0.9357 H   0  0  0  0  0  0  0  0  0  0  0  0
   -3.5055    0.4617    2.0810 H   0  0  0  0  0  0  0  0  0  0  0  0
   -5.4637   -0.8734    1.7728 H   0  0  0  0  0  0  0  0  0  0  0  0
   -5.2730   -0.7250   -0.0821 H   0  0  0  0  0  0  0  0  0  0  0  0
   -0.8056    2.1634   -0.0142 H   0  0  0  0  0  0  0  0  0  0  0  0
    2.2763   -2.4795   -0.0591 H   0  0  0  0  0  0  0  0  0  0  0  0
    1.7020    2.4501    0.0610 H   0  0  0  0  0  0  0  0  0  0  0  0
    4.7309    2.4176    0.1438 H   0  0  0  0  0  0  0  0  0  0  0  0
    6.3656    0.3898    0.1327 H   0  0  0  0  0  0  0  0  0  0  0  0
  1  2  1  0  0  0  0
  2  3  1  0  0  0  0
  2  4  1  0  0  0  0
  4  5  2  0  0  0  0
  2  6  1  0  0  0  0
  6  7  2  0  0  0  0
  7  8  1  0  0  0  0
  8  9  2  0  0  0  0
  9 10  1  0  0  0  0
 10 11  2  0  0  0  0
 11 12  1  0  0  0  0
 12 13  2  0  0  0  0
  8 13  1  0  0  0  0
 12 14  1  0  0  0  0
 14 15  2  0  0  0  0
 15 16  1  0  0  0  0
 11 16  1  0  0  0  0
  9 17  1  0  0  0  0
 17 18  1  0  0  0  0
  6 18  1  0  0  0  0
 18 19  2  0  0  0  0
  1 20  1  0  0  0  0
  1 21  1  0  0  0  0
  1 22  1  0  0  0  0
  3 23  1  0  0  0  0
  3 24  1  0  0  0  0
  3 25  1  0  0  0  0
  4 26  1  0  0  0  0
  5 27  1  0  0  0  0
  5 28  1  0  0  0  0
  7 29  1  0  0  0  0
 10 30  1  0  0  0  0
 13 31  1  0  0  0  0
 14 32  1  0  0  0  0
 15 33  1  0  0  0  0
M  END
$$$$
