C18H16O7
APtclcactv06281817373D 0   0.00000     0.00000
 
 41 43  0  0  0  0  0  0  0  0999 V2000
   -6.6322   -1.9763    0.6425 C   0  0  0  0  0  0  0  0  0  0  0  0
   -6.1651   -0.9833   -0.2727 O   0  0  0  0  0  0  0  0  0  0  0  0
   -4.8416   -0.6823   -0.2332 C   0  0  0  0  0  0  0  0  0  0  0  0
   -4.3228    0.2747   -1.0967 C   0  0  0  0  0  0  0  0  0  0  0  0
   -2.9809    0.5836   -1.0598 C   0  0  0  0  0  0  0  0  0  0  0  0
   -2.1408   -0.0673   -0.1518 C   0  0  0  0  0  0  0  0  0  0  0  0
   -2.6671   -1.0294    0.7151 C   0  0  0  0  0  0  0  0  0  0  0  0
   -4.0112   -1.3280    0.6747 C   0  0  0  0  0  0  0  0  0  0  0  0
   -0.7036    0.2596   -0.1089 C   0  0  0  0  0  0  0  0  0  0  0  0
   -0.3290    1.5696   -0.0859 C   0  0  0  0  0  0  0  0  0  0  0  0
    1.0500    1.9008   -0.0440 C   0  0  0  0  0  0  0  0  0  0  0  0
    1.4226    3.0630   -0.0221 O   0  0  0  0  0  0  0  0  0  0  0  0
    2.0137    0.7886   -0.0277 C   0  0  0  0  0  0  0  0  0  0  0  0
    1.5205   -0.5275   -0.0541 C   0  0  0  0  0  0  0  0  0  0  0  0
    0.1883   -0.7455   -0.0883 O   0  0  0  0  0  0  0  0  0  0  0  0
    2.4146   -1.5914   -0.0393 C   0  0  0  0  0  0  0  0  0  0  0  0
    3.7811   -1.3485    0.0012 C   0  0  0  0  0  0  0  0  0  0  0  0
    4.2684   -0.0464    0.0278 C   0  0  0  0  0  0  0  0  0  0  0  0
    3.3941    1.0238    0.0127 C   0  0  0  0  0  0  0  0  0  0  0  0
    3.8700    2.2955    0.0387 O   0  0  0  0  0  0  0  0  0  0  0  0
    4.6502   -2.3927    0.0155 O   0  0  0  0  0  0  0  0  0  0  0  0
    6.0432   -2.0769    0.0574 C   0  0  0  0  0  0  0  0  0  0  0  0
    1.9507   -2.8714   -0.0641 O   0  0  0  0  0  0  0  0  0  0  0  0
   -1.2702    2.5525   -0.1033 O   0  0  0  0  0  0  0  0  0  0  0  0
   -1.3718    3.3741    1.0614 C   0  0  0  0  0  0  0  0  0  0  0  0
   -6.4365   -1.6499    1.6639 H   0  0  0  0  0  0  0  0  0  0  0  0
   -7.7040   -2.1206    0.5063 H   0  0  0  0  0  0  0  0  0  0  0  0
   -6.1124   -2.9160    0.4555 H   0  0  0  0  0  0  0  0  0  0  0  0
   -4.9726    0.7769   -1.7982 H   0  0  0  0  0  0  0  0  0  0  0  0
   -2.5785    1.3273   -1.7317 H   0  0  0  0  0  0  0  0  0  0  0  0
   -2.0217   -1.5347    1.4182 H   0  0  0  0  0  0  0  0  0  0  0  0
   -4.4188   -2.0709    1.3443 H   0  0  0  0  0  0  0  0  0  0  0  0
    5.3336    0.1292    0.0600 H   0  0  0  0  0  0  0  0  0  0  0  0
    4.0334    2.6722   -0.8368 H   0  0  0  0  0  0  0  0  0  0  0  0
    6.3086   -1.4870   -0.8199 H   0  0  0  0  0  0  0  0  0  0  0  0
    6.2589   -1.5041    0.9593 H   0  0  0  0  0  0  0  0  0  0  0  0
    6.6247   -2.9988    0.0648 H   0  0  0  0  0  0  0  0  0  0  0  0
    1.8411   -3.2329   -0.9542 H   0  0  0  0  0  0  0  0  0  0  0  0
   -2.2220    4.0483    0.9574 H   0  0  0  0  0  0  0  0  0  0  0  0
   -1.5131    2.7439    1.9394 H   0  0  0  0  0  0  0  0  0  0  0  0
   -0.4579    3.9570    1.1757 H   0  0  0  0  0  0  0  0  0  0  0  0
  1  2  1  0  0  0  0
  2  3  1  0  0  0  0
  3  4  2  0  0  0  0
  4  5  1  0  0  0  0
  5  6  2  0  0  0  0
  6  7  1  0  0  0  0
  7  8  2  0  0  0  0
  3  8  1  0  0  0  0
  6  9  1  0  0  0  0
  9 10  2  0  0  0  0
 10 11  1  0  0  0  0
 11 12  2  0  0  0  0
 11 13  1  0  0  0  0
 13 14  2  0  0  0  0
 14 15  1  0  0  0  0
  9 15  1  0  0  0  0
 14 16  1  0  0  0  0
 16 17  2  0  0  0  0
 17 18  1  0  0  0  0
 18 19  2  0  0  0  0
 13 19  1  0  0  0  0
 19 20  1  0  0  0  0
 17 21  1  0  0  0  0
 21 22  1  0  0  0  0
 16 23  1  0  0  0  0
 10 24  1  0  0  0  0
 24 25  1  0  0  0  0
  1 26  1  0  0  0  0
  1 27  1  0  0  0  0
  1 28  1  0  0  0  0
  4 29  1  0  0  0  0
  5 30  1  0  0  0  0
  7 31  1  0  0  0  0
  8 32  1  0  0  0  0
 18 33  1  0  0  0  0
 20 34  1  0  0  0  0
 22 35  1  0  0  0  0
 22 36  1  0  0  0  0
 22 37  1  0  0  0  0
 23 38  1  0  0  0  0
 25 39  1  0  0  0  0
 25 40  1  0  0  0  0
 25 41  1  0  0  0  0
M  END
$$$$
