C19H34O2
APtclcactv06211806053D 0   0.00000     0.00000
 
 55 55  0  0  0  0  0  0  0  0999 V2000
   10.6276    2.2689    0.6462 C   0  0  0  0  0  0  0  0  0  0  0  0
    9.4258    2.0892   -0.2835 C   0  0  0  0  0  0  0  0  0  0  0  0
    8.3922    1.1831    0.3884 C   0  0  0  0  0  0  0  0  0  0  0  0
    7.1904    1.0034   -0.5413 C   0  0  0  0  0  0  0  0  0  0  0  0
    6.1568    0.0973    0.1307 C   0  0  0  0  0  0  0  0  0  0  0  0
    4.9550   -0.0824   -0.7990 C   0  0  0  0  0  0  0  0  0  0  0  0
    3.9214   -0.9885   -0.1270 C   0  0  0  0  0  0  0  0  0  0  0  0
    2.7196   -1.1682   -1.0567 C   0  0  0  0  0  0  0  0  0  0  0  0
    1.7015   -2.0607   -0.3949 C   0  0  0  0  0  0  0  0  0  0  0  0
    0.6131   -2.1566    0.3278 C   0  0  0  0  0  0  0  0  0  0  0  0
    1.2255   -3.4619   -0.1105 C   0  0  0  0  0  0  0  0  0  0  0  0
   -0.4891   -1.4511    1.0750 C   0  0  0  0  0  0  0  0  0  0  0  0
   -1.7083   -1.3005    0.1630 C   0  0  0  0  0  0  0  0  0  0  0  0
   -2.8274   -0.5842    0.9216 C   0  0  0  0  0  0  0  0  0  0  0  0
   -4.0466   -0.4336    0.0096 C   0  0  0  0  0  0  0  0  0  0  0  0
   -5.1656    0.2826    0.7682 C   0  0  0  0  0  0  0  0  0  0  0  0
   -6.3848    0.4332   -0.1439 C   0  0  0  0  0  0  0  0  0  0  0  0
   -7.5039    1.1495    0.6148 C   0  0  0  0  0  0  0  0  0  0  0  0
   -8.7047    1.2978   -0.2836 C   0  0  0  0  0  0  0  0  0  0  0  0
   -8.6692    0.8741   -1.4145 O   0  0  0  0  0  0  0  0  0  0  0  0
   -9.8139    1.9006    0.1727 O   0  0  0  0  0  0  0  0  0  0  0  0
   10.2991    2.7233    1.5809 H   0  0  0  0  0  0  0  0  0  0  0  0
   11.0759    1.2970    0.8525 H   0  0  0  0  0  0  0  0  0  0  0  0
   11.3640    2.9144    0.1675 H   0  0  0  0  0  0  0  0  0  0  0  0
    8.9775    3.0611   -0.4898 H   0  0  0  0  0  0  0  0  0  0  0  0
    9.7543    1.6348   -1.2182 H   0  0  0  0  0  0  0  0  0  0  0  0
    8.8405    0.2112    0.5947 H   0  0  0  0  0  0  0  0  0  0  0  0
    8.0637    1.6375    1.3232 H   0  0  0  0  0  0  0  0  0  0  0  0
    6.7421    1.9753   -0.7476 H   0  0  0  0  0  0  0  0  0  0  0  0
    7.5189    0.5490   -1.4760 H   0  0  0  0  0  0  0  0  0  0  0  0
    6.6051   -0.8746    0.3370 H   0  0  0  0  0  0  0  0  0  0  0  0
    5.8283    0.5517    1.0654 H   0  0  0  0  0  0  0  0  0  0  0  0
    4.5067    0.8895   -1.0053 H   0  0  0  0  0  0  0  0  0  0  0  0
    5.2835   -0.5368   -1.7337 H   0  0  0  0  0  0  0  0  0  0  0  0
    4.3697   -1.9604    0.0793 H   0  0  0  0  0  0  0  0  0  0  0  0
    3.5929   -0.5341    0.8077 H   0  0  0  0  0  0  0  0  0  0  0  0
    2.2713   -0.1963   -1.2630 H   0  0  0  0  0  0  0  0  0  0  0  0
    3.0481   -1.6226   -1.9915 H   0  0  0  0  0  0  0  0  0  0  0  0
    0.7416   -4.0183   -0.9132 H   0  0  0  0  0  0  0  0  0  0  0  0
    1.7674   -4.0541    0.6270 H   0  0  0  0  0  0  0  0  0  0  0  0
   -0.7630   -2.0341    1.9543 H   0  0  0  0  0  0  0  0  0  0  0  0
   -0.1440   -0.4650    1.3859 H   0  0  0  0  0  0  0  0  0  0  0  0
   -1.4345   -0.7175   -0.7163 H   0  0  0  0  0  0  0  0  0  0  0  0
   -2.0535   -2.2866   -0.1479 H   0  0  0  0  0  0  0  0  0  0  0  0
   -3.1012   -1.1673    1.8009 H   0  0  0  0  0  0  0  0  0  0  0  0
   -2.4822    0.4018    1.2325 H   0  0  0  0  0  0  0  0  0  0  0  0
   -3.7727    0.1494   -0.8697 H   0  0  0  0  0  0  0  0  0  0  0  0
   -4.3917   -1.4197   -0.3014 H   0  0  0  0  0  0  0  0  0  0  0  0
   -5.4395   -0.3004    1.6475 H   0  0  0  0  0  0  0  0  0  0  0  0
   -4.8205    1.2687    1.0791 H   0  0  0  0  0  0  0  0  0  0  0  0
   -6.1110    1.0163   -1.0232 H   0  0  0  0  0  0  0  0  0  0  0  0
   -6.7300   -0.5528   -0.4548 H   0  0  0  0  0  0  0  0  0  0  0  0
   -7.7777    0.5665    1.4941 H   0  0  0  0  0  0  0  0  0  0  0  0
   -7.1587    2.1355    0.9257 H   0  0  0  0  0  0  0  0  0  0  0  0
  -10.5583    1.9723   -0.4402 H   0  0  0  0  0  0  0  0  0  0  0  0
  1  2  1  0  0  0  0
  2  3  1  0  0  0  0
  3  4  1  0  0  0  0
  4  5  1  0  0  0  0
  5  6  1  0  0  0  0
  6  7  1  0  0  0  0
  7  8  1  0  0  0  0
  8  9  1  0  0  0  0
  9 10  2  0  0  0  0
 10 11  1  0  0  0  0
  9 11  1  0  0  0  0
 10 12  1  0  0  0  0
 12 13  1  0  0  0  0
 13 14  1  0  0  0  0
 14 15  1  0  0  0  0
 15 16  1  0  0  0  0
 16 17  1  0  0  0  0
 17 18  1  0  0  0  0
 18 19  1  0  0  0  0
 19 20  2  0  0  0  0
 19 21  1  0  0  0  0
  1 22  1  0  0  0  0
  1 23  1  0  0  0  0
  1 24  1  0  0  0  0
  2 25  1  0  0  0  0
  2 26  1  0  0  0  0
  3 27  1  0  0  0  0
  3 28  1  0  0  0  0
  4 29  1  0  0  0  0
  4 30  1  0  0  0  0
  5 31  1  0  0  0  0
  5 32  1  0  0  0  0
  6 33  1  0  0  0  0
  6 34  1  0  0  0  0
  7 35  1  0  0  0  0
  7 36  1  0  0  0  0
  8 37  1  0  0  0  0
  8 38  1  0  0  0  0
 11 39  1  0  0  0  0
 11 40  1  0  0  0  0
 12 41  1  0  0  0  0
 12 42  1  0  0  0  0
 13 43  1  0  0  0  0
 13 44  1  0  0  0  0
 14 45  1  0  0  0  0
 14 46  1  0  0  0  0
 15 47  1  0  0  0  0
 15 48  1  0  0  0  0
 16 49  1  0  0  0  0
 16 50  1  0  0  0  0
 17 51  1  0  0  0  0
 17 52  1  0  0  0  0
 18 53  1  0  0  0  0
 18 54  1  0  0  0  0
 21 55  1  0  0  0  0
M  END
$$$$
