C33H40O22
APtclcactv06281817373D 0   0.00000     0.00000
 
 95100  0  0  0  0  0  0  0  0999 V2000
   -2.0091   -3.6584    1.2511 C   0  0  0  0  0  0  0  0  0  0  0  0
   -2.9180   -4.6335    0.9007 C   0  0  0  0  0  0  0  0  0  0  0  0
   -2.9113   -5.1645   -0.3816 C   0  0  0  0  0  0  0  0  0  0  0  0
   -1.9854   -4.7146   -1.3211 C   0  0  0  0  0  0  0  0  0  0  0  0
   -1.0711   -3.7374   -0.9772 C   0  0  0  0  0  0  0  0  0  0  0  0
   -1.0778   -3.2021    0.3141 C   0  0  0  0  0  0  0  0  0  0  0  0
   -0.1049   -2.1587    0.6867 C   0  0  0  0  0  0  0  0  0  0  0  0
   -0.5530   -1.0422    1.3265 C   0  0  0  0  0  0  0  0  0  0  0  0
    0.3707   -0.0289    1.6918 C   0  0  0  0  0  0  0  0  0  0  0  0
    0.0060    0.9846    2.2662 O   0  0  0  0  0  0  0  0  0  0  0  0
    1.7857   -0.2477    1.3515 C   0  0  0  0  0  0  0  0  0  0  0  0
    2.7658    0.6995    1.6747 C   0  0  0  0  0  0  0  0  0  0  0  0
    4.0846    0.4567    1.3383 C   0  0  0  0  0  0  0  0  0  0  0  0
    4.4336   -0.7197    0.6840 C   0  0  0  0  0  0  0  0  0  0  0  0
    3.4691   -1.6614    0.3606 C   0  0  0  0  0  0  0  0  0  0  0  0
    2.1414   -1.4364    0.6899 C   0  0  0  0  0  0  0  0  0  0  0  0
    1.1919   -2.3465    0.3874 O   0  0  0  0  0  0  0  0  0  0  0  0
    5.7316   -0.9480    0.3583 O   0  0  0  0  0  0  0  0  0  0  0  0
    6.6778    0.0606    0.7181 C   0  0  0  0  0  0  0  0  0  0  0  0
    8.0916   -0.4239    0.3861 C   0  0  0  0  0  0  0  0  0  0  0  0
    8.2041   -0.6489   -1.1249 C   0  0  0  0  0  0  0  0  0  0  0  0
    7.8498    0.6522   -1.8515 C   0  0  0  0  0  0  0  0  0  0  0  0
    6.4454    1.0951   -1.4331 C   0  0  0  0  0  0  0  0  0  0  0  0
    6.4013    1.2564   -0.0138 O   0  0  0  0  0  0  0  0  0  0  0  0
    6.1076    2.4257   -2.1085 C   0  0  0  0  0  0  0  0  0  0  0  0
    4.7557    2.7810   -1.8115 O   0  0  0  0  0  0  0  0  0  0  0  0
    8.7942    1.6664   -1.5027 O   0  0  0  0  0  0  0  0  0  0  0  0
    9.5415   -1.0308   -1.4530 O   0  0  0  0  0  0  0  0  0  0  0  0
    9.0423    0.5618    0.7942 O   0  0  0  0  0  0  0  0  0  0  0  0
    2.4233    1.8473    2.3129 O   0  0  0  0  0  0  0  0  0  0  0  0
   -1.8759   -0.9000    1.6125 O   0  0  0  0  0  0  0  0  0  0  0  0
   -2.5875    0.1156    0.9025 C   0  0  0  0  0  0  0  0  0  0  0  0
   -4.0913   -0.1575    0.9916 C   0  0  0  0  0  0  0  0  0  0  0  0
   -4.5281   -0.0922    2.4583 C   0  0  0  0  0  0  0  0  0  0  0  0
   -4.1510    1.2773    3.0315 C   0  0  0  0  0  0  0  0  0  0  0  0
   -2.6449    1.4950    2.8636 C   0  0  0  0  0  0  0  0  0  0  0  0
   -2.3012    1.3908    1.4804 O   0  0  0  0  0  0  0  0  0  0  0  0
   -2.2698    2.8858    3.3792 C   0  0  0  0  0  0  0  0  0  0  0  0
   -0.8505    3.0449    3.3306 O   0  0  0  0  0  0  0  0  0  0  0  0
   -4.8623    2.3002    2.3316 O   0  0  0  0  0  0  0  0  0  0  0  0
   -5.9430   -0.2732    2.5442 O   0  0  0  0  0  0  0  0  0  0  0  0
   -4.8010    0.8274    0.2377 O   0  0  0  0  0  0  0  0  0  0  0  0
   -5.1669    0.4012   -1.0763 C   0  0  0  0  0  0  0  0  0  0  0  0
   -6.2286    1.3476   -1.6428 C   0  0  0  0  0  0  0  0  0  0  0  0
   -5.6366    2.7556   -1.7588 C   0  0  0  0  0  0  0  0  0  0  0  0
   -4.3813    2.6992   -2.6347 C   0  0  0  0  0  0  0  0  0  0  0  0
   -3.3910    1.7006   -2.0299 C   0  0  0  0  0  0  0  0  0  0  0  0
   -4.0147    0.4195   -1.9214 O   0  0  0  0  0  0  0  0  0  0  0  0
   -2.1594    1.5937   -2.9313 C   0  0  0  0  0  0  0  0  0  0  0  0
   -1.1810    0.7619   -2.3045 O   0  0  0  0  0  0  0  0  0  0  0  0
   -4.7375    2.2793   -3.9534 O   0  0  0  0  0  0  0  0  0  0  0  0
   -6.5967    3.6301   -2.3551 O   0  0  0  0  0  0  0  0  0  0  0  0
   -6.6338    0.8919   -2.9352 O   0  0  0  0  0  0  0  0  0  0  0  0
   -1.9813   -5.2379   -2.5764 O   0  0  0  0  0  0  0  0  0  0  0  0
   -3.8096   -6.1256   -0.7218 O   0  0  0  0  0  0  0  0  0  0  0  0
   -2.0194   -3.2438    2.2483 H   0  0  0  0  0  0  0  0  0  0  0  0
   -3.6368   -4.9856    1.6258 H   0  0  0  0  0  0  0  0  0  0  0  0
   -0.3528   -3.3882   -1.7041 H   0  0  0  0  0  0  0  0  0  0  0  0
    4.8457    1.1826    1.5839 H   0  0  0  0  0  0  0  0  0  0  0  0
    3.7522   -2.5710   -0.1483 H   0  0  0  0  0  0  0  0  0  0  0  0
    6.6046    0.2632    1.7866 H   0  0  0  0  0  0  0  0  0  0  0  0
    8.2883   -1.3596    0.9094 H   0  0  0  0  0  0  0  0  0  0  0  0
    7.5138   -1.4359   -1.4287 H   0  0  0  0  0  0  0  0  0  0  0  0
    7.8736    0.4860   -2.9285 H   0  0  0  0  0  0  0  0  0  0  0  0
    5.7206    0.3393   -1.7357 H   0  0  0  0  0  0  0  0  0  0  0  0
    6.7771    3.2018   -1.7376 H   0  0  0  0  0  0  0  0  0  0  0  0
    6.2286    2.3266   -3.1873 H   0  0  0  0  0  0  0  0  0  0  0  0
    4.4722    3.6160   -2.2084 H   0  0  0  0  0  0  0  0  0  0  0  0
    9.7076    1.4500   -1.7350 H   0  0  0  0  0  0  0  0  0  0  0  0
    9.8352   -1.8447   -1.0213 H   0  0  0  0  0  0  0  0  0  0  0  0
    9.0235    0.7583    1.7409 H   0  0  0  0  0  0  0  0  0  0  0  0
    2.4497    1.7839    3.2774 H   0  0  0  0  0  0  0  0  0  0  0  0
   -2.2789    0.1125   -0.1429 H   0  0  0  0  0  0  0  0  0  0  0  0
   -4.3059   -1.1483    0.5914 H   0  0  0  0  0  0  0  0  0  0  0  0
   -4.0239   -0.8756    3.0241 H   0  0  0  0  0  0  0  0  0  0  0  0
   -4.4083    1.3126    4.0901 H   0  0  0  0  0  0  0  0  0  0  0  0
   -2.1028    0.7384    3.4308 H   0  0  0  0  0  0  0  0  0  0  0  0
   -2.7420    3.6443    2.7549 H   0  0  0  0  0  0  0  0  0  0  0  0
   -2.6128    2.9966    4.4078 H   0  0  0  0  0  0  0  0  0  0  0  0
   -0.5403    3.9057    3.6436 H   0  0  0  0  0  0  0  0  0  0  0  0
   -4.6714    3.1956    2.6431 H   0  0  0  0  0  0  0  0  0  0  0  0
   -6.2892   -0.2434    3.4466 H   0  0  0  0  0  0  0  0  0  0  0  0
   -5.5690   -0.6109   -1.0313 H   0  0  0  0  0  0  0  0  0  0  0  0
   -7.0907    1.3687   -0.9762 H   0  0  0  0  0  0  0  0  0  0  0  0
   -5.3731    3.1232   -0.7671 H   0  0  0  0  0  0  0  0  0  0  0  0
   -3.9223    3.6869   -2.6775 H   0  0  0  0  0  0  0  0  0  0  0  0
   -3.0886    2.0427   -1.0401 H   0  0  0  0  0  0  0  0  0  0  0  0
   -2.4465    1.1588   -3.8887 H   0  0  0  0  0  0  0  0  0  0  0  0
   -1.7411    2.5870   -3.0943 H   0  0  0  0  0  0  0  0  0  0  0  0
   -0.3713    0.6493   -2.8211 H   0  0  0  0  0  0  0  0  0  0  0  0
   -5.3675    2.8645   -4.3958 H   0  0  0  0  0  0  0  0  0  0  0  0
   -7.4211    3.7082   -1.8559 H   0  0  0  0  0  0  0  0  0  0  0  0
   -7.0143    0.0029   -2.9373 H   0  0  0  0  0  0  0  0  0  0  0  0
   -2.5486   -4.7658   -3.2011 H   0  0  0  0  0  0  0  0  0  0  0  0
   -4.6655   -5.7798   -1.0097 H   0  0  0  0  0  0  0  0  0  0  0  0
  1  2  2  0  0  0  0
  2  3  1  0  0  0  0
  3  4  2  0  0  0  0
  4  5  1  0  0  0  0
  5  6  2  0  0  0  0
  1  6  1  0  0  0  0
  6  7  1  0  0  0  0
  7  8  2  0  0  0  0
  8  9  1  0  0  0  0
  9 10  2  0  0  0  0
  9 11  1  0  0  0  0
 11 12  2  0  0  0  0
 12 13  1  0  0  0  0
 13 14  2  0  0  0  0
 14 15  1  0  0  0  0
 15 16  2  0  0  0  0
 11 16  1  0  0  0  0
 16 17  1  0  0  0  0
  7 17  1  0  0  0  0
 14 18  1  0  0  0  0
 18 19  1  0  0  0  0
 19 20  1  0  0  0  0
 20 21  1  0  0  0  0
 21 22  1  0  0  0  0
 22 23  1  0  0  0  0
 23 24  1  0  0  0  0
 19 24  1  0  0  0  0
 23 25  1  0  0  0  0
 25 26  1  0  0  0  0
 22 27  1  0  0  0  0
 21 28  1  0  0  0  0
 20 29  1  0  0  0  0
 12 30  1  0  0  0  0
  8 31  1  0  0  0  0
 31 32  1  0  0  0  0
 32 33  1  0  0  0  0
 33 34  1  0  0  0  0
 34 35  1  0  0  0  0
 35 36  1  0  0  0  0
 36 37  1  0  0  0  0
 32 37  1  0  0  0  0
 36 38  1  0  0  0  0
 38 39  1  0  0  0  0
 35 40  1  0  0  0  0
 34 41  1  0  0  0  0
 33 42  1  0  0  0  0
 42 43  1  0  0  0  0
 43 44  1  0  0  0  0
 44 45  1  0  0  0  0
 45 46  1  0  0  0  0
 46 47  1  0  0  0  0
 47 48  1  0  0  0  0
 43 48  1  0  0  0  0
 47 49  1  0  0  0  0
 49 50  1  0  0  0  0
 46 51  1  0  0  0  0
 45 52  1  0  0  0  0
 44 53  1  0  0  0  0
  4 54  1  0  0  0  0
  3 55  1  0  0  0  0
  1 56  1  0  0  0  0
  2 57  1  0  0  0  0
  5 58  1  0  0  0  0
 13 59  1  0  0  0  0
 15 60  1  0  0  0  0
 19 61  1  0  0  0  0
 20 62  1  0  0  0  0
 21 63  1  0  0  0  0
 22 64  1  0  0  0  0
 23 65  1  0  0  0  0
 25 66  1  0  0  0  0
 25 67  1  0  0  0  0
 26 68  1  0  0  0  0
 27 69  1  0  0  0  0
 28 70  1  0  0  0  0
 29 71  1  0  0  0  0
 30 72  1  0  0  0  0
 32 73  1  0  0  0  0
 33 74  1  0  0  0  0
 34 75  1  0  0  0  0
 35 76  1  0  0  0  0
 36 77  1  0  0  0  0
 38 78  1  0  0  0  0
 38 79  1  0  0  0  0
 39 80  1  0  0  0  0
 40 81  1  0  0  0  0
 41 82  1  0  0  0  0
 43 83  1  0  0  0  0
 44 84  1  0  0  0  0
 45 85  1  0  0  0  0
 46 86  1  0  0  0  0
 47 87  1  0  0  0  0
 49 88  1  0  0  0  0
 49 89  1  0  0  0  0
 50 90  1  0  0  0  0
 51 91  1  0  0  0  0
 52 92  1  0  0  0  0
 53 93  1  0  0  0  0
 54 94  1  0  0  0  0
 55 95  1  0  0  0  0
M  END
$$$$
