C19H30O5
APtclcactv06291803073D 0   0.00000     0.00000
 
 54 54  0  0  0  0  0  0  0  0999 V2000
    9.2201    1.7803   -0.5490 C   0  0  0  0  0  0  0  0  0  0  0  0
    8.1225    0.8514   -0.0263 C   0  0  0  0  0  0  0  0  0  0  0  0
    6.7558    1.3766   -0.4702 C   0  0  0  0  0  0  0  0  0  0  0  0
    5.6581    0.4478    0.0525 C   0  0  0  0  0  0  0  0  0  0  0  0
    4.2914    0.9730   -0.3914 C   0  0  0  0  0  0  0  0  0  0  0  0
    3.1937    0.0441    0.1313 C   0  0  0  0  0  0  0  0  0  0  0  0
    1.8229    0.6346   -0.2051 C   0  0  0  0  0  0  0  0  0  0  0  0
    0.7275   -0.2281    0.4246 C   0  0  0  0  0  0  0  0  0  0  0  0
   -0.6348    0.4292    0.1945 C   0  0  0  0  0  0  0  0  0  0  0  0
   -1.7156   -0.3662    0.9295 C   0  0  0  0  0  0  0  0  0  0  0  0
   -3.0574    0.2813    0.7029 C   0  0  0  0  0  0  0  0  0  0  0  0
   -3.8344   -0.1010   -0.3747 C   0  0  0  0  0  0  0  0  0  0  0  0
   -5.0684    0.4933   -0.5846 C   0  0  0  0  0  0  0  0  0  0  0  0
   -5.5225    1.4746    0.2913 C   0  0  0  0  0  0  0  0  0  0  0  0
   -4.7387    1.8532    1.3694 C   0  0  0  0  0  0  0  0  0  0  0  0
   -3.5111    1.2522    1.5762 C   0  0  0  0  0  0  0  0  0  0  0  0
   -6.7327    2.0612    0.0893 O   0  0  0  0  0  0  0  0  0  0  0  0
   -5.8338    0.1187   -1.6444 O   0  0  0  0  0  0  0  0  0  0  0  0
   -5.3036   -0.8942   -2.5018 C   0  0  0  0  0  0  0  0  0  0  0  0
    0.7384   -1.5457   -0.1855 O   0  0  0  0  0  0  0  0  0  0  0  0
    0.3408   -2.5747    0.5793 C   0  0  0  0  0  0  0  0  0  0  0  0
   -0.0048   -2.3809    1.7207 O   0  0  0  0  0  0  0  0  0  0  0  0
    0.3256   -3.9717    0.0142 C   0  0  0  0  0  0  0  0  0  0  0  0
    3.3233   -1.2395   -0.4833 O   0  0  0  0  0  0  0  0  0  0  0  0
    9.0687    2.7828   -0.1489 H   0  0  0  0  0  0  0  0  0  0  0  0
   10.1938    1.4061   -0.2328 H   0  0  0  0  0  0  0  0  0  0  0  0
    9.1799    1.8136   -1.6378 H   0  0  0  0  0  0  0  0  0  0  0  0
    8.2739   -0.1512   -0.4264 H   0  0  0  0  0  0  0  0  0  0  0  0
    8.1628    0.8180    1.0624 H   0  0  0  0  0  0  0  0  0  0  0  0
    6.6043    2.3792   -0.0702 H   0  0  0  0  0  0  0  0  0  0  0  0
    6.7155    1.4100   -1.5590 H   0  0  0  0  0  0  0  0  0  0  0  0
    5.8095   -0.5548   -0.3476 H   0  0  0  0  0  0  0  0  0  0  0  0
    5.6984    0.4144    1.1412 H   0  0  0  0  0  0  0  0  0  0  0  0
    4.1399    1.9755    0.0086 H   0  0  0  0  0  0  0  0  0  0  0  0
    4.2511    1.0063   -1.4802 H   0  0  0  0  0  0  0  0  0  0  0  0
    3.2894   -0.0593    1.2121 H   0  0  0  0  0  0  0  0  0  0  0  0
    1.7578    1.6490    0.1884 H   0  0  0  0  0  0  0  0  0  0  0  0
    1.6919    0.6555   -1.2870 H   0  0  0  0  0  0  0  0  0  0  0  0
    0.9094   -0.3220    1.4952 H   0  0  0  0  0  0  0  0  0  0  0  0
   -0.6141    1.4507    0.5741 H   0  0  0  0  0  0  0  0  0  0  0  0
   -0.8562    0.4426   -0.8727 H   0  0  0  0  0  0  0  0  0  0  0  0
   -1.7363   -1.3877    0.5499 H   0  0  0  0  0  0  0  0  0  0  0  0
   -1.4942   -0.3796    1.9967 H   0  0  0  0  0  0  0  0  0  0  0  0
   -3.4795   -0.8627   -1.0532 H   0  0  0  0  0  0  0  0  0  0  0  0
   -5.0889    2.6146    2.0507 H   0  0  0  0  0  0  0  0  0  0  0  0
   -2.9011    1.5482    2.4169 H   0  0  0  0  0  0  0  0  0  0  0  0
   -7.4668    1.6095    0.5278 H   0  0  0  0  0  0  0  0  0  0  0  0
   -4.3604   -0.5523   -2.9280 H   0  0  0  0  0  0  0  0  0  0  0  0
   -5.1337   -1.8045   -1.9269 H   0  0  0  0  0  0  0  0  0  0  0  0
   -6.0122   -1.0983   -3.3044 H   0  0  0  0  0  0  0  0  0  0  0  0
    1.2897   -4.4471    0.1946 H   0  0  0  0  0  0  0  0  0  0  0  0
   -0.4611   -4.5507    0.4979 H   0  0  0  0  0  0  0  0  0  0  0  0
    0.1372   -3.9277   -1.0585 H   0  0  0  0  0  0  0  0  0  0  0  0
    3.2483   -1.2234   -1.4473 H   0  0  0  0  0  0  0  0  0  0  0  0
  1  2  1  0  0  0  0
  2  3  1  0  0  0  0
  3  4  1  0  0  0  0
  4  5  1  0  0  0  0
  5  6  1  0  0  0  0
  6  7  1  0  0  0  0
  7  8  1  0  0  0  0
  8  9  1  0  0  0  0
  9 10  1  0  0  0  0
 10 11  1  0  0  0  0
 11 12  2  0  0  0  0
 12 13  1  0  0  0  0
 13 14  2  0  0  0  0
 14 15  1  0  0  0  0
 15 16  2  0  0  0  0
 11 16  1  0  0  0  0
 14 17  1  0  0  0  0
 13 18  1  0  0  0  0
 18 19  1  0  0  0  0
  8 20  1  0  0  0  0
 20 21  1  0  0  0  0
 21 22  2  0  0  0  0
 21 23  1  0  0  0  0
  6 24  1  0  0  0  0
  1 25  1  0  0  0  0
  1 26  1  0  0  0  0
  1 27  1  0  0  0  0
  2 28  1  0  0  0  0
  2 29  1  0  0  0  0
  3 30  1  0  0  0  0
  3 31  1  0  0  0  0
  4 32  1  0  0  0  0
  4 33  1  0  0  0  0
  5 34  1  0  0  0  0
  5 35  1  0  0  0  0
  6 36  1  0  0  0  0
  7 37  1  0  0  0  0
  7 38  1  0  0  0  0
  8 39  1  0  0  0  0
  9 40  1  0  0  0  0
  9 41  1  0  0  0  0
 10 42  1  0  0  0  0
 10 43  1  0  0  0  0
 12 44  1  0  0  0  0
 15 45  1  0  0  0  0
 16 46  1  0  0  0  0
 17 47  1  0  0  0  0
 19 48  1  0  0  0  0
 19 49  1  0  0  0  0
 19 50  1  0  0  0  0
 23 51  1  0  0  0  0
 23 52  1  0  0  0  0
 23 53  1  0  0  0  0
 24 54  1  0  0  0  0
M  END
$$$$
