C20H16O6
APtclcactv06291803073D 0   0.00000     0.00000
 
 42 45  0  0  0  0  0  0  0  0999 V2000
   -2.3902    3.4421   -0.7089 C   0  0  0  0  0  0  0  0  0  0  0  0
   -1.5903    2.3057   -0.3762 O   0  0  0  0  0  0  0  0  0  0  0  0
   -2.2323    1.1141   -0.2521 C   0  0  0  0  0  0  0  0  0  0  0  0
   -3.6010    1.0407   -0.4461 C   0  0  0  0  0  0  0  0  0  0  0  0
   -4.2565   -0.1744   -0.3202 C   0  0  0  0  0  0  0  0  0  0  0  0
   -3.5416   -1.3253    0.0022 C   0  0  0  0  0  0  0  0  0  0  0  0
   -2.1744   -1.2603    0.1976 C   0  0  0  0  0  0  0  0  0  0  0  0
   -1.5101   -0.0410    0.0663 C   0  0  0  0  0  0  0  0  0  0  0  0
   -0.0456    0.0328    0.2743 C   0  0  0  0  0  0  0  0  0  0  0  0
    0.8370   -0.4393   -0.6686 C   0  0  0  0  0  0  0  0  0  0  0  0
    2.2667   -0.3184   -0.3693 C   0  0  0  0  0  0  0  0  0  0  0  0
    2.6730   -0.0008    0.9445 C   0  0  0  0  0  0  0  0  0  0  0  0
    4.0176    0.1225    1.2440 C   0  0  0  0  0  0  0  0  0  0  0  0
    4.9713   -0.0683    0.2545 C   0  0  0  0  0  0  0  0  0  0  0  0
    4.5676   -0.3882   -1.0578 C   0  0  0  0  0  0  0  0  0  0  0  0
    3.2210   -0.5133   -1.3696 C   0  0  0  0  0  0  0  0  0  0  0  0
    5.8117   -0.5184   -1.8294 C   0  0  0  0  0  0  0  0  0  0  0  0
    6.8102   -0.2798   -0.9702 C   0  0  0  0  0  0  0  0  0  0  0  0
    6.3192   -0.0150    0.2536 O   0  0  0  0  0  0  0  0  0  0  0  0
    1.7385    0.1788    1.9109 O   0  0  0  0  0  0  0  0  0  0  0  0
    0.5276    0.6205    1.4972 C   0  0  0  0  0  0  0  0  0  0  0  0
   -0.0729    1.4740    2.1237 O   0  0  0  0  0  0  0  0  0  0  0  0
   -4.1897   -2.5154    0.1256 O   0  0  0  0  0  0  0  0  0  0  0  0
   -3.3950   -3.6555    0.4581 C   0  0  0  0  0  0  0  0  0  0  0  0
   -5.6009   -0.2427   -0.5115 O   0  0  0  0  0  0  0  0  0  0  0  0
   -6.2722    0.9755   -0.8393 C   0  0  0  0  0  0  0  0  0  0  0  0
   -2.8812    3.2728   -1.6671 H   0  0  0  0  0  0  0  0  0  0  0  0
   -3.1439    3.5946    0.0637 H   0  0  0  0  0  0  0  0  0  0  0  0
   -1.7557    4.3258   -0.7768 H   0  0  0  0  0  0  0  0  0  0  0  0
   -4.1590    1.9311   -0.6956 H   0  0  0  0  0  0  0  0  0  0  0  0
   -1.6209   -2.1534    0.4477 H   0  0  0  0  0  0  0  0  0  0  0  0
    0.4910   -0.8811   -1.5914 H   0  0  0  0  0  0  0  0  0  0  0  0
    4.3257    0.3680    2.2496 H   0  0  0  0  0  0  0  0  0  0  0  0
    2.9145   -0.7586   -2.3757 H   0  0  0  0  0  0  0  0  0  0  0  0
    5.9022   -0.7588   -2.8784 H   0  0  0  0  0  0  0  0  0  0  0  0
    7.8599   -0.2978   -1.2234 H   0  0  0  0  0  0  0  0  0  0  0  0
   -4.0334   -4.5363    0.5254 H   0  0  0  0  0  0  0  0  0  0  0  0
   -2.6416   -3.8109   -0.3141 H   0  0  0  0  0  0  0  0  0  0  0  0
   -2.9036   -3.4888    1.4167 H   0  0  0  0  0  0  0  0  0  0  0  0
   -6.1269    1.6979   -0.0361 H   0  0  0  0  0  0  0  0  0  0  0  0
   -5.8643    1.3768   -1.7671 H   0  0  0  0  0  0  0  0  0  0  0  0
   -7.3373    0.7810   -0.9649 H   0  0  0  0  0  0  0  0  0  0  0  0
  1  2  1  0  0  0  0
  2  3  1  0  0  0  0
  3  4  2  0  0  0  0
  4  5  1  0  0  0  0
  5  6  2  0  0  0  0
  6  7  1  0  0  0  0
  7  8  2  0  0  0  0
  3  8  1  0  0  0  0
  8  9  1  0  0  0  0
  9 10  2  0  0  0  0
 10 11  1  0  0  0  0
 11 12  2  0  0  0  0
 12 13  1  0  0  0  0
 13 14  2  0  0  0  0
 14 15  1  0  0  0  0
 15 16  2  0  0  0  0
 11 16  1  0  0  0  0
 15 17  1  0  0  0  0
 17 18  2  0  0  0  0
 18 19  1  0  0  0  0
 14 19  1  0  0  0  0
 12 20  1  0  0  0  0
 20 21  1  0  0  0  0
  9 21  1  0  0  0  0
 21 22  2  0  0  0  0
  6 23  1  0  0  0  0
 23 24  1  0  0  0  0
  5 25  1  0  0  0  0
 25 26  1  0  0  0  0
  1 27  1  0  0  0  0
  1 28  1  0  0  0  0
  1 29  1  0  0  0  0
  4 30  1  0  0  0  0
  7 31  1  0  0  0  0
 10 32  1  0  0  0  0
 13 33  1  0  0  0  0
 16 34  1  0  0  0  0
 17 35  1  0  0  0  0
 18 36  1  0  0  0  0
 24 37  1  0  0  0  0
 24 38  1  0  0  0  0
 24 39  1  0  0  0  0
 26 40  1  0  0  0  0
 26 41  1  0  0  0  0
 26 42  1  0  0  0  0
M  END
$$$$
