C37H66O7
APtclcactv06211806383D 0   0.00000     0.00000
 
110112  0  0  0  0  0  0  0  0999 V2000
   15.1872    7.2319    1.6479 C   0  0  0  0  0  0  0  0  0  0  0  0
   13.8158    6.6076    1.9130 C   0  0  0  0  0  0  0  0  0  0  0  0
   13.5066    5.5755    0.8267 C   0  0  0  0  0  0  0  0  0  0  0  0
   12.1352    4.9511    1.0918 C   0  0  0  0  0  0  0  0  0  0  0  0
   11.8261    3.9191    0.0055 C   0  0  0  0  0  0  0  0  0  0  0  0
   10.4547    3.2947    0.2706 C   0  0  0  0  0  0  0  0  0  0  0  0
   10.1455    2.2626   -0.8157 C   0  0  0  0  0  0  0  0  0  0  0  0
    8.7741    1.6383   -0.5506 C   0  0  0  0  0  0  0  0  0  0  0  0
    8.4650    0.6062   -1.6369 C   0  0  0  0  0  0  0  0  0  0  0  0
    7.0935   -0.0181   -1.3718 C   0  0  0  0  0  0  0  0  0  0  0  0
    6.7844   -1.0502   -2.4581 C   0  0  0  0  0  0  0  0  0  0  0  0
    5.4720   -1.7630   -2.1258 C   0  0  0  0  0  0  0  0  0  0  0  0
    5.1520   -2.8069   -3.2172 C   0  0  0  0  0  0  0  0  0  0  0  0
    4.5831   -3.9890   -2.3860 C   0  0  0  0  0  0  0  0  0  0  0  0
    5.4285   -3.8729   -1.0928 C   0  0  0  0  0  0  0  0  0  0  0  0
    5.6003   -2.4624   -0.8823 O   0  0  0  0  0  0  0  0  0  0  0  0
    4.6826   -4.4989    0.0873 C   0  0  0  0  0  0  0  0  0  0  0  0
    5.4761   -4.2668    1.3911 C   0  0  0  0  0  0  0  0  0  0  0  0
    4.3473   -3.9703    2.4156 C   0  0  0  0  0  0  0  0  0  0  0  0
    3.3266   -3.2233    1.5207 C   0  0  0  0  0  0  0  0  0  0  0  0
    3.4039   -3.8722    0.2415 O   0  0  0  0  0  0  0  0  0  0  0  0
    1.9163   -3.3558    2.0990 C   0  0  0  0  0  0  0  0  0  0  0  0
    0.9093   -2.7199    1.1385 C   0  0  0  0  0  0  0  0  0  0  0  0
   -0.4831   -2.7408    1.7722 C   0  0  0  0  0  0  0  0  0  0  0  0
   -1.4901   -2.1049    0.8116 C   0  0  0  0  0  0  0  0  0  0  0  0
   -2.8826   -2.1258    1.4453 C   0  0  0  0  0  0  0  0  0  0  0  0
   -3.8895   -1.4899    0.4848 C   0  0  0  0  0  0  0  0  0  0  0  0
   -5.2820   -1.5108    1.1184 C   0  0  0  0  0  0  0  0  0  0  0  0
   -6.2890   -0.8749    0.1579 C   0  0  0  0  0  0  0  0  0  0  0  0
   -7.6814   -0.8958    0.7915 C   0  0  0  0  0  0  0  0  0  0  0  0
   -8.6884   -0.2599   -0.1690 C   0  0  0  0  0  0  0  0  0  0  0  0
  -10.0809   -0.2808    0.4646 C   0  0  0  0  0  0  0  0  0  0  0  0
  -11.0879    0.3551   -0.4959 C   0  0  0  0  0  0  0  0  0  0  0  0
  -12.5157    0.2292    0.0742 C   0  0  0  0  0  0  0  0  0  0  0  0
  -12.9735    1.6998    0.2001 C   0  0  0  0  0  0  0  0  0  0  0  0
  -11.9856    2.4549   -0.6703 C   0  0  0  0  0  0  0  0  0  0  0  0
  -12.2030    3.4714   -1.2864 O   0  0  0  0  0  0  0  0  0  0  0  0
  -10.8224    1.7806   -0.6265 O   0  0  0  0  0  0  0  0  0  0  0  0
  -14.3982    1.8678   -0.3319 C   0  0  0  0  0  0  0  0  0  0  0  0
  -14.8632    3.2799   -0.0854 C   0  0  0  0  0  0  0  0  0  0  0  0
  -14.1308    4.0703    0.4596 O   0  0  0  0  0  0  0  0  0  0  0  0
  -16.2423    3.7055   -0.5189 C   0  0  0  0  0  0  0  0  0  0  0  0
    1.6008   -4.7387    2.2730 O   0  0  0  0  0  0  0  0  0  0  0  0
    6.6621   -0.3912   -3.7202 O   0  0  0  0  0  0  0  0  0  0  0  0
   15.4074    7.9672    2.4218 H   0  0  0  0  0  0  0  0  0  0  0  0
   15.9495    6.4529    1.6594 H   0  0  0  0  0  0  0  0  0  0  0  0
   15.1817    7.7205    0.6735 H   0  0  0  0  0  0  0  0  0  0  0  0
   13.8213    6.1190    2.8874 H   0  0  0  0  0  0  0  0  0  0  0  0
   13.0535    7.3866    1.9015 H   0  0  0  0  0  0  0  0  0  0  0  0
   13.5012    6.0641   -0.1477 H   0  0  0  0  0  0  0  0  0  0  0  0
   14.2689    4.7964    0.8382 H   0  0  0  0  0  0  0  0  0  0  0  0
   12.1407    4.4625    2.0662 H   0  0  0  0  0  0  0  0  0  0  0  0
   11.3730    5.7302    1.0803 H   0  0  0  0  0  0  0  0  0  0  0  0
   11.8206    4.4077   -0.9689 H   0  0  0  0  0  0  0  0  0  0  0  0
   12.5883    3.1400    0.0170 H   0  0  0  0  0  0  0  0  0  0  0  0
   10.4601    2.8061    1.2450 H   0  0  0  0  0  0  0  0  0  0  0  0
    9.6924    4.0738    0.2591 H   0  0  0  0  0  0  0  0  0  0  0  0
   10.1400    2.7512   -1.7901 H   0  0  0  0  0  0  0  0  0  0  0  0
   10.9078    1.4836   -0.8042 H   0  0  0  0  0  0  0  0  0  0  0  0
    8.7796    1.1497    0.4238 H   0  0  0  0  0  0  0  0  0  0  0  0
    8.0118    2.4174   -0.5621 H   0  0  0  0  0  0  0  0  0  0  0  0
    8.4595    1.0948   -2.6113 H   0  0  0  0  0  0  0  0  0  0  0  0
    9.2272   -0.1728   -1.6254 H   0  0  0  0  0  0  0  0  0  0  0  0
    7.0990   -0.5067   -0.3974 H   0  0  0  0  0  0  0  0  0  0  0  0
    6.3313    0.7609   -1.3833 H   0  0  0  0  0  0  0  0  0  0  0  0
    7.5923   -1.7803   -2.5062 H   0  0  0  0  0  0  0  0  0  0  0  0
    4.6626   -1.0359   -2.0608 H   0  0  0  0  0  0  0  0  0  0  0  0
    4.4034   -2.4251   -3.9115 H   0  0  0  0  0  0  0  0  0  0  0  0
    6.0572   -3.1048   -3.7464 H   0  0  0  0  0  0  0  0  0  0  0  0
    3.5229   -3.8475   -2.1763 H   0  0  0  0  0  0  0  0  0  0  0  0
    4.7590   -4.9414   -2.8862 H   0  0  0  0  0  0  0  0  0  0  0  0
    6.3962   -4.3558   -1.2287 H   0  0  0  0  0  0  0  0  0  0  0  0
    4.5539   -5.5680   -0.0819 H   0  0  0  0  0  0  0  0  0  0  0  0
    6.0302   -5.1623    1.6726 H   0  0  0  0  0  0  0  0  0  0  0  0
    6.1442   -3.4113    1.2915 H   0  0  0  0  0  0  0  0  0  0  0  0
    3.9223   -4.8934    2.8100 H   0  0  0  0  0  0  0  0  0  0  0  0
    4.7062   -3.3297    3.2212 H   0  0  0  0  0  0  0  0  0  0  0  0
    3.6016   -2.1725    1.4291 H   0  0  0  0  0  0  0  0  0  0  0  0
    1.8696   -2.8485    3.0626 H   0  0  0  0  0  0  0  0  0  0  0  0
    1.2011   -1.6894    0.9362 H   0  0  0  0  0  0  0  0  0  0  0  0
    0.8923   -3.2826    0.2052 H   0  0  0  0  0  0  0  0  0  0  0  0
   -0.7748   -3.7714    1.9745 H   0  0  0  0  0  0  0  0  0  0  0  0
   -0.4661   -2.1781    2.7055 H   0  0  0  0  0  0  0  0  0  0  0  0
   -1.1984   -1.0744    0.6093 H   0  0  0  0  0  0  0  0  0  0  0  0
   -1.5072   -2.6676   -0.1217 H   0  0  0  0  0  0  0  0  0  0  0  0
   -3.1743   -3.1564    1.6476 H   0  0  0  0  0  0  0  0  0  0  0  0
   -2.8655   -1.5631    2.3787 H   0  0  0  0  0  0  0  0  0  0  0  0
   -3.5978   -0.4593    0.2825 H   0  0  0  0  0  0  0  0  0  0  0  0
   -3.9066   -2.0526   -0.4486 H   0  0  0  0  0  0  0  0  0  0  0  0
   -5.5737   -2.5414    1.3207 H   0  0  0  0  0  0  0  0  0  0  0  0
   -5.2649   -0.9481    2.0518 H   0  0  0  0  0  0  0  0  0  0  0  0
   -5.9973    0.1557   -0.0444 H   0  0  0  0  0  0  0  0  0  0  0  0
   -6.3060   -1.4376   -0.7755 H   0  0  0  0  0  0  0  0  0  0  0  0
   -7.9732   -1.9264    0.9938 H   0  0  0  0  0  0  0  0  0  0  0  0
   -7.6644   -0.3331    1.7249 H   0  0  0  0  0  0  0  0  0  0  0  0
   -8.3967    0.7707   -0.3713 H   0  0  0  0  0  0  0  0  0  0  0  0
   -8.7055   -0.8226   -1.1024 H   0  0  0  0  0  0  0  0  0  0  0  0
  -10.3726   -1.3113    0.6669 H   0  0  0  0  0  0  0  0  0  0  0  0
  -10.0638    0.2819    1.3980 H   0  0  0  0  0  0  0  0  0  0  0  0
  -11.0305   -0.1279   -1.4713 H   0  0  0  0  0  0  0  0  0  0  0  0
  -13.1591   -0.3168   -0.6158 H   0  0  0  0  0  0  0  0  0  0  0  0
  -12.4991   -0.2540    1.0511 H   0  0  0  0  0  0  0  0  0  0  0  0
  -12.9074    2.0350    1.2351 H   0  0  0  0  0  0  0  0  0  0  0  0
  -14.4130    1.6620   -1.4022 H   0  0  0  0  0  0  0  0  0  0  0  0
  -15.0620    1.1718    0.1810 H   0  0  0  0  0  0  0  0  0  0  0  0
  -16.9495    3.5252    0.2906 H   0  0  0  0  0  0  0  0  0  0  0  0
  -16.2344    4.7675   -0.7646 H   0  0  0  0  0  0  0  0  0  0  0  0
  -16.5406    3.1319   -1.3965 H   0  0  0  0  0  0  0  0  0  0  0  0
    1.6231   -5.2532    1.4546 H   0  0  0  0  0  0  0  0  0  0  0  0
    5.9607    0.2737   -3.7505 H   0  0  0  0  0  0  0  0  0  0  0  0
  1  2  1  0  0  0  0
  2  3  1  0  0  0  0
  3  4  1  0  0  0  0
  4  5  1  0  0  0  0
  5  6  1  0  0  0  0
  6  7  1  0  0  0  0
  7  8  1  0  0  0  0
  8  9  1  0  0  0  0
  9 10  1  0  0  0  0
 10 11  1  0  0  0  0
 11 12  1  0  0  0  0
 12 13  1  0  0  0  0
 13 14  1  0  0  0  0
 14 15  1  0  0  0  0
 15 16  1  0  0  0  0
 12 16  1  0  0  0  0
 15 17  1  0  0  0  0
 17 18  1  0  0  0  0
 18 19  1  0  0  0  0
 19 20  1  0  0  0  0
 20 21  1  0  0  0  0
 17 21  1  0  0  0  0
 20 22  1  0  0  0  0
 22 23  1  0  0  0  0
 23 24  1  0  0  0  0
 24 25  1  0  0  0  0
 25 26  1  0  0  0  0
 26 27  1  0  0  0  0
 27 28  1  0  0  0  0
 28 29  1  0  0  0  0
 29 30  1  0  0  0  0
 30 31  1  0  0  0  0
 31 32  1  0  0  0  0
 32 33  1  0  0  0  0
 33 34  1  0  0  0  0
 34 35  1  0  0  0  0
 35 36  1  0  0  0  0
 36 37  2  0  0  0  0
 36 38  1  0  0  0  0
 33 38  1  0  0  0  0
 35 39  1  0  0  0  0
 39 40  1  0  0  0  0
 40 41  2  0  0  0  0
 40 42  1  0  0  0  0
 22 43  1  0  0  0  0
 11 44  1  0  0  0  0
  1 45  1  0  0  0  0
  1 46  1  0  0  0  0
  1 47  1  0  0  0  0
  2 48  1  0  0  0  0
  2 49  1  0  0  0  0
  3 50  1  0  0  0  0
  3 51  1  0  0  0  0
  4 52  1  0  0  0  0
  4 53  1  0  0  0  0
  5 54  1  0  0  0  0
  5 55  1  0  0  0  0
  6 56  1  0  0  0  0
  6 57  1  0  0  0  0
  7 58  1  0  0  0  0
  7 59  1  0  0  0  0
  8 60  1  0  0  0  0
  8 61  1  0  0  0  0
  9 62  1  0  0  0  0
  9 63  1  0  0  0  0
 10 64  1  0  0  0  0
 10 65  1  0  0  0  0
 11 66  1  0  0  0  0
 12 67  1  0  0  0  0
 13 68  1  0  0  0  0
 13 69  1  0  0  0  0
 14 70  1  0  0  0  0
 14 71  1  0  0  0  0
 15 72  1  0  0  0  0
 17 73  1  0  0  0  0
 18 74  1  0  0  0  0
 18 75  1  0  0  0  0
 19 76  1  0  0  0  0
 19 77  1  0  0  0  0
 20 78  1  0  0  0  0
 22 79  1  0  0  0  0
 23 80  1  0  0  0  0
 23 81  1  0  0  0  0
 24 82  1  0  0  0  0
 24 83  1  0  0  0  0
 25 84  1  0  0  0  0
 25 85  1  0  0  0  0
 26 86  1  0  0  0  0
 26 87  1  0  0  0  0
 27 88  1  0  0  0  0
 27 89  1  0  0  0  0
 28 90  1  0  0  0  0
 28 91  1  0  0  0  0
 29 92  1  0  0  0  0
 29 93  1  0  0  0  0
 30 94  1  0  0  0  0
 30 95  1  0  0  0  0
 31 96  1  0  0  0  0
 31 97  1  0  0  0  0
 32 98  1  0  0  0  0
 32 99  1  0  0  0  0
 33100  1  0  0  0  0
 34101  1  0  0  0  0
 34102  1  0  0  0  0
 35103  1  0  0  0  0
 39104  1  0  0  0  0
 39105  1  0  0  0  0
 42106  1  0  0  0  0
 42107  1  0  0  0  0
 42108  1  0  0  0  0
 43109  1  0  0  0  0
 44110  1  0  0  0  0
M  END
$$$$
