C19H22O6
APtclcactv06281817383D 0   0.00000     0.00000
 
 47 51  0  0  0  0  0  0  0  0999 V2000
    3.1261    1.6608   -0.7816 C   0  0  0  0  0  0  0  0  0  0  0  0
    2.5185    0.3925   -0.1791 C   0  0  0  0  0  0  0  0  0  0  0  0
    3.5162   -0.7399    0.0355 C   0  0  0  0  0  0  0  0  0  0  0  0
    3.1213   -1.9709    0.1895 C   0  0  0  0  0  0  0  0  0  0  0  0
    1.6717   -2.3957    0.1701 C   0  0  0  0  0  0  0  0  0  0  0  0
    0.7974   -1.1616    0.1370 C   0  0  0  0  0  0  0  0  0  0  0  0
    1.3801   -0.2346   -1.0206 C   0  0  0  0  0  0  0  0  0  0  0  0
    0.2380    0.7684   -1.2766 C   0  0  0  0  0  0  0  0  0  0  0  0
   -1.0252    0.1047   -0.7448 C   0  0  0  0  0  0  0  0  0  0  0  0
   -0.6332   -1.3297   -0.3113 C   0  0  0  0  0  0  0  0  0  0  0  0
   -1.6076   -2.0360    0.5528 C   0  0  0  0  0  0  0  0  0  0  0  0
   -2.6157   -1.2064    1.3150 C   0  0  0  0  0  0  0  0  0  0  0  0
   -2.9206    0.1369    0.6583 C   0  0  0  0  0  0  0  0  0  0  0  0
   -1.5531    0.8585    0.4970 C   0  0  0  0  0  0  0  0  0  0  0  0
   -3.4254   -0.0517   -0.7600 C   0  0  0  0  0  0  0  0  0  0  0  0
   -4.6695   -0.2439   -1.1225 C   0  0  0  0  0  0  0  0  0  0  0  0
   -2.2212    0.0337   -1.6845 C   0  0  0  0  0  0  0  0  0  0  0  0
   -3.8248    0.9091    1.4509 O   0  0  0  0  0  0  0  0  0  0  0  0
    0.5003    2.0548   -0.5366 C   0  0  0  0  0  0  0  0  0  0  0  0
    0.3265    2.1109    0.6577 O   0  0  0  0  0  0  0  0  0  0  0  0
    0.9270    3.1382   -1.2044 O   0  0  0  0  0  0  0  0  0  0  0  0
    0.9171   -0.3560    1.3336 O   0  0  0  0  0  0  0  0  0  0  0  0
    1.8574    0.5937    1.1838 C   0  0  0  0  0  0  0  0  0  0  0  0
    2.1315    1.4546    1.9861 O   0  0  0  0  0  0  0  0  0  0  0  0
    1.4217   -3.1901   -0.9911 O   0  0  0  0  0  0  0  0  0  0  0  0
    3.1243    1.5835   -1.8689 H   0  0  0  0  0  0  0  0  0  0  0  0
    2.5366    2.5258   -0.4779 H   0  0  0  0  0  0  0  0  0  0  0  0
    4.1504    1.7767   -0.4273 H   0  0  0  0  0  0  0  0  0  0  0  0
    4.5725   -0.5164    0.0601 H   0  0  0  0  0  0  0  0  0  0  0  0
    3.8729   -2.7318    0.3392 H   0  0  0  0  0  0  0  0  0  0  0  0
    1.4497   -2.9761    1.0656 H   0  0  0  0  0  0  0  0  0  0  0  0
    1.7162   -0.7736   -1.9063 H   0  0  0  0  0  0  0  0  0  0  0  0
    0.1400    0.9618   -2.3449 H   0  0  0  0  0  0  0  0  0  0  0  0
   -0.5873   -1.9090   -1.2335 H   0  0  0  0  0  0  0  0  0  0  0  0
   -2.1601   -2.7361   -0.0739 H   0  0  0  0  0  0  0  0  0  0  0  0
   -1.0436   -2.6218    1.2786 H   0  0  0  0  0  0  0  0  0  0  0  0
   -3.5432   -1.7731    1.3971 H   0  0  0  0  0  0  0  0  0  0  0  0
   -2.2309   -1.0249    2.3185 H   0  0  0  0  0  0  0  0  0  0  0  0
   -0.9145    0.7024    1.3665 H   0  0  0  0  0  0  0  0  0  0  0  0
   -1.6843    1.9200    0.2872 H   0  0  0  0  0  0  0  0  0  0  0  0
   -5.4499   -0.2797   -0.3768 H   0  0  0  0  0  0  0  0  0  0  0  0
   -4.9148   -0.3665   -2.1671 H   0  0  0  0  0  0  0  0  0  0  0  0
   -2.2771    0.9309   -2.3008 H   0  0  0  0  0  0  0  0  0  0  0  0
   -2.1577   -0.8563   -2.3105 H   0  0  0  0  0  0  0  0  0  0  0  0
   -4.6759    0.4782    1.6088 H   0  0  0  0  0  0  0  0  0  0  0  0
    1.1465    3.9196   -0.6787 H   0  0  0  0  0  0  0  0  0  0  0  0
    1.9549   -3.9954   -1.0390 H   0  0  0  0  0  0  0  0  0  0  0  0
  1  2  1  0  0  0  0
  2  3  1  0  0  0  0
  3  4  2  0  0  0  0
  4  5  1  0  0  0  0
  5  6  1  0  0  0  0
  6  7  1  0  0  0  0
  2  7  1  0  0  0  0
  7  8  1  0  0  0  0
  8  9  1  0  0  0  0
  9 10  1  0  0  0  0
  6 10  1  0  0  0  0
 10 11  1  0  0  0  0
 11 12  1  0  0  0  0
 12 13  1  0  0  0  0
 13 14  1  0  0  0  0
  9 14  1  0  0  0  0
 13 15  1  0  0  0  0
 15 16  2  0  0  0  0
 15 17  1  0  0  0  0
  9 17  1  0  0  0  0
 13 18  1  0  0  0  0
  8 19  1  0  0  0  0
 19 20  2  0  0  0  0
 19 21  1  0  0  0  0
  6 22  1  0  0  0  0
 22 23  1  0  0  0  0
  2 23  1  0  0  0  0
 23 24  2  0  0  0  0
  5 25  1  0  0  0  0
  1 26  1  0  0  0  0
  1 27  1  0  0  0  0
  1 28  1  0  0  0  0
  3 29  1  0  0  0  0
  4 30  1  0  0  0  0
  5 31  1  0  0  0  0
  7 32  1  0  0  0  0
  8 33  1  0  0  0  0
 10 34  1  0  0  0  0
 11 35  1  0  0  0  0
 11 36  1  0  0  0  0
 12 37  1  0  0  0  0
 12 38  1  0  0  0  0
 14 39  1  0  0  0  0
 14 40  1  0  0  0  0
 16 41  1  0  0  0  0
 16 42  1  0  0  0  0
 17 43  1  0  0  0  0
 17 44  1  0  0  0  0
 18 45  1  0  0  0  0
 21 46  1  0  0  0  0
 25 47  1  0  0  0  0
M  END
$$$$
