C6H14ClNO2S
APtclcactv06291803073D 0   0.00000     0.00000
 
 25 23  0  0  0  0  0  0  0  0999 V2000
   -0.2060   -3.3216   -0.3030 C   0  0  0  0  0  0  0  0  0  0  0  0
   -0.6791   -1.7921    0.5499 S   0  3  0  0  0  0  0  0  0  0  0  0
    0.5199   -0.5857   -0.0808 C   0  0  0  0  0  0  0  0  0  0  0  0
   -2.2160   -1.3162   -0.2880 C   0  0  0  0  0  0  0  0  0  0  0  0
   -2.7520   -0.0215    0.3262 C   0  0  0  0  0  0  0  0  0  0  0  0
   -4.0482    0.3799   -0.3805 C   0  0  0  0  0  0  0  0  0  0  0  0
   -4.6409    1.5848    0.3034 C   0  0  0  0  0  0  0  0  0  0  0  0
   -4.3337    2.7064   -0.0630 O   0  0  0  0  0  0  0  0  0  0  0  0
   -5.4277    1.4382    1.2232 O   0  5  0  0  0  0  0  0  0  0  0  0
   -3.7603    0.7055   -1.7837 N   0  0  0  0  0  0  0  0  0  0  0  0
   11.2585    0.9410    0.0102 Cl  0  0  0  0  0  0  0  0  0  0  0  0
    0.7204   -3.7046    0.1250 H   0  0  0  0  0  0  0  0  0  0  0  0
   -0.9956   -4.0635   -0.1831 H   0  0  0  0  0  0  0  0  0  0  0  0
   -0.0588   -3.1158   -1.3632 H   0  0  0  0  0  0  0  0  0  0  0  0
    0.4226   -0.5088   -1.1637 H   0  0  0  0  0  0  0  0  0  0  0  0
    0.3282    0.3875    0.3712 H   0  0  0  0  0  0  0  0  0  0  0  0
    1.5293   -0.9109    0.1712 H   0  0  0  0  0  0  0  0  0  0  0  0
   -2.0184   -1.1606   -1.3486 H   0  0  0  0  0  0  0  0  0  0  0  0
   -2.9552   -2.1083   -0.1686 H   0  0  0  0  0  0  0  0  0  0  0  0
   -2.9495   -0.1771    1.3868 H   0  0  0  0  0  0  0  0  0  0  0  0
   -2.0127    0.7706    0.2067 H   0  0  0  0  0  0  0  0  0  0  0  0
   -4.7567   -0.4474   -0.3375 H   0  0  0  0  0  0  0  0  0  0  0  0
   -4.6093    0.9115   -2.2887 H   0  0  0  0  0  0  0  0  0  0  0  0
   -3.1054    1.4702   -1.8504 H   0  0  0  0  0  0  0  0  0  0  0  0
   12.3005    0.0517    0.0050 H   0  0  0  0  0  0  0  0  0  0  0  0
  1  2  1  0  0  0  0
  2  3  1  0  0  0  0
  2  4  1  0  0  0  0
  4  5  1  0  0  0  0
  5  6  1  0  0  0  0
  6  7  1  0  0  0  0
  7  8  2  0  0  0  0
  7  9  1  0  0  0  0
  6 10  1  0  0  0  0
  1 12  1  0  0  0  0
  1 13  1  0  0  0  0
  1 14  1  0  0  0  0
  3 15  1  0  0  0  0
  3 16  1  0  0  0  0
  3 17  1  0  0  0  0
  4 18  1  0  0  0  0
  4 19  1  0  0  0  0
  5 20  1  0  0  0  0
  5 21  1  0  0  0  0
  6 22  1  0  0  0  0
 10 23  1  0  0  0  0
 10 24  1  0  0  0  0
 11 25  1  0  0  0  0
M  CHG  2   2   1   9  -1
M  END
$$$$
