C20H26O2
APtclcactv06281817213D 0   0.00000     0.00000
 
 48 49  0  0  0  0  0  0  0  0999 V2000
   -3.3998   -1.6812    1.4074 C   0  0  0  0  0  0  0  0  0  0  0  0
   -4.0896   -1.2436    0.1409 C   0  0  0  0  0  0  0  0  0  0  0  0
   -3.4233   -0.5429   -0.7704 C   0  0  0  0  0  0  0  0  0  0  0  0
   -2.0203   -0.0741   -0.4828 C   0  0  0  0  0  0  0  0  0  0  0  0
   -1.0405   -0.7998   -1.4070 C   0  0  0  0  0  0  0  0  0  0  0  0
    0.3712   -0.4236   -1.0375 C   0  0  0  0  0  0  0  0  0  0  0  0
    1.2559   -1.3689   -0.7512 C   0  0  0  0  0  0  0  0  0  0  0  0
    2.6402   -1.0000   -0.3888 C   0  0  0  0  0  0  0  0  0  0  0  0
    3.5729   -1.9936   -0.0871 C   0  0  0  0  0  0  0  0  0  0  0  0
    4.8635   -1.6454    0.2501 C   0  0  0  0  0  0  0  0  0  0  0  0
    5.2360   -0.3083    0.2898 C   0  0  0  0  0  0  0  0  0  0  0  0
    4.3109    0.6831   -0.0093 C   0  0  0  0  0  0  0  0  0  0  0  0
    3.0199    0.3427   -0.3529 C   0  0  0  0  0  0  0  0  0  0  0  0
    6.5089    0.0308    0.6225 O   0  0  0  0  0  0  0  0  0  0  0  0
    6.8244    1.4244    0.6440 C   0  0  0  0  0  0  0  0  0  0  0  0
   -1.9270    1.4339   -0.7237 C   0  0  0  0  0  0  0  0  0  0  0  0
   -2.7322    2.3540    0.1960 C   0  0  0  0  0  0  0  0  0  0  0  0
   -1.3113    2.2331    0.2883 O   0  0  0  0  0  0  0  0  0  0  0  0
   -3.3007    3.6416   -0.4038 C   0  0  0  0  0  0  0  0  0  0  0  0
   -3.5759    1.7035    1.2941 C   0  0  0  0  0  0  0  0  0  0  0  0
   -5.5007   -1.5923   -0.0863 C   0  0  0  0  0  0  0  0  0  0  0  0
   -6.1670   -2.2930    0.8250 C   0  0  0  0  0  0  0  0  0  0  0  0
   -2.6415   -0.9473    1.6802 H   0  0  0  0  0  0  0  0  0  0  0  0
   -4.1323   -1.7626    2.2105 H   0  0  0  0  0  0  0  0  0  0  0  0
   -2.9269   -2.6501    1.2473 H   0  0  0  0  0  0  0  0  0  0  0  0
   -3.8872   -0.3094   -1.7173 H   0  0  0  0  0  0  0  0  0  0  0  0
   -1.7699   -0.2923    0.5554 H   0  0  0  0  0  0  0  0  0  0  0  0
   -1.1695   -1.8768   -1.2995 H   0  0  0  0  0  0  0  0  0  0  0  0
   -1.2346   -0.5120   -2.4403 H   0  0  0  0  0  0  0  0  0  0  0  0
    0.6623    0.6159   -1.0058 H   0  0  0  0  0  0  0  0  0  0  0  0
    0.9648   -2.4084   -0.7828 H   0  0  0  0  0  0  0  0  0  0  0  0
    3.2839   -3.0337   -0.1174 H   0  0  0  0  0  0  0  0  0  0  0  0
    5.5857   -2.4136    0.4840 H   0  0  0  0  0  0  0  0  0  0  0  0
    4.6041    1.7220    0.0234 H   0  0  0  0  0  0  0  0  0  0  0  0
    2.3009    1.1143   -0.5854 H   0  0  0  0  0  0  0  0  0  0  0  0
    6.1874    1.9300    1.3696 H   0  0  0  0  0  0  0  0  0  0  0  0
    7.8696    1.5560    0.9240 H   0  0  0  0  0  0  0  0  0  0  0  0
    6.6570    1.8501   -0.3454 H   0  0  0  0  0  0  0  0  0  0  0  0
   -1.7982    1.7399   -1.7619 H   0  0  0  0  0  0  0  0  0  0  0  0
   -3.9766    3.3937   -1.2222 H   0  0  0  0  0  0  0  0  0  0  0  0
   -3.8458    4.1904    0.3641 H   0  0  0  0  0  0  0  0  0  0  0  0
   -2.4846    4.2581   -0.7807 H   0  0  0  0  0  0  0  0  0  0  0  0
   -2.9278    1.1364    1.9623 H   0  0  0  0  0  0  0  0  0  0  0  0
   -4.0940    2.4772    1.8607 H   0  0  0  0  0  0  0  0  0  0  0  0
   -4.3069    1.0334    0.8417 H   0  0  0  0  0  0  0  0  0  0  0  0
   -5.9950   -1.2787   -0.9939 H   0  0  0  0  0  0  0  0  0  0  0  0
   -7.2028   -2.5489    0.6582 H   0  0  0  0  0  0  0  0  0  0  0  0
   -5.6726   -2.6066    1.7326 H   0  0  0  0  0  0  0  0  0  0  0  0
  1  2  1  0  0  0  0
  2  3  2  0  0  0  0
  3  4  1  0  0  0  0
  4  5  1  0  0  0  0
  5  6  1  0  0  0  0
  6  7  2  0  0  0  0
  7  8  1  0  0  0  0
  8  9  2  0  0  0  0
  9 10  1  0  0  0  0
 10 11  2  0  0  0  0
 11 12  1  0  0  0  0
 12 13  2  0  0  0  0
  8 13  1  0  0  0  0
 11 14  1  0  0  0  0
 14 15  1  0  0  0  0
  4 16  1  0  0  0  0
 16 17  1  0  0  0  0
 17 18  1  0  0  0  0
 16 18  1  0  0  0  0
 17 19  1  0  0  0  0
 17 20  1  0  0  0  0
  2 21  1  0  0  0  0
 21 22  2  0  0  0  0
  1 23  1  0  0  0  0
  1 24  1  0  0  0  0
  1 25  1  0  0  0  0
  3 26  1  0  0  0  0
  4 27  1  0  0  0  0
  5 28  1  0  0  0  0
  5 29  1  0  0  0  0
  6 30  1  0  0  0  0
  7 31  1  0  0  0  0
  9 32  1  0  0  0  0
 10 33  1  0  0  0  0
 12 34  1  0  0  0  0
 13 35  1  0  0  0  0
 15 36  1  0  0  0  0
 15 37  1  0  0  0  0
 15 38  1  0  0  0  0
 16 39  1  0  0  0  0
 19 40  1  0  0  0  0
 19 41  1  0  0  0  0
 19 42  1  0  0  0  0
 20 43  1  0  0  0  0
 20 44  1  0  0  0  0
 20 45  1  0  0  0  0
 21 46  1  0  0  0  0
 22 47  1  0  0  0  0
 22 48  1  0  0  0  0
M  END
$$$$
