C40H56O4
APtclcactv06291803123D 0   0.00000     0.00000
 
100103  0  0  0  0  0  0  0  0999 V2000
   -2.9351    1.9428   -0.0270 C   0  0  0  0  0  0  0  0  0  0  0  0
   -2.9878    0.4367   -0.0270 C   0  0  0  0  0  0  0  0  0  0  0  0
   -1.8207   -0.2927   -0.0270 C   0  0  0  0  0  0  0  0  0  0  0  0
   -0.5838    0.3649   -0.0270 C   0  0  0  0  0  0  0  0  0  0  0  0
    0.5838   -0.3649   -0.0270 C   0  0  0  0  0  0  0  0  0  0  0  0
    1.8207    0.2927   -0.0270 C   0  0  0  0  0  0  0  0  0  0  0  0
    2.9878   -0.4367   -0.0270 C   0  0  0  0  0  0  0  0  0  0  0  0
    2.9351   -1.9428   -0.0270 C   0  0  0  0  0  0  0  0  0  0  0  0
    4.2259    0.2215   -0.0270 C   0  0  0  0  0  0  0  0  0  0  0  0
    5.3831   -0.5017   -0.0270 C   0  0  0  0  0  0  0  0  0  0  0  0
    6.6246    0.1584   -0.0270 C   0  0  0  0  0  0  0  0  0  0  0  0
    7.7769   -0.5617   -0.0270 C   0  0  0  0  0  0  0  0  0  0  0  0
    7.7243   -2.0678   -0.0270 C   0  0  0  0  0  0  0  0  0  0  0  0
    9.0287    0.1038   -0.0270 C   0  0  0  0  0  0  0  0  0  0  0  0
   10.1621   -0.6045   -0.0270 C   0  0  0  0  0  0  0  0  0  0  0  0
   11.4969    0.1051   -0.0270 C   0  0  0  0  0  0  0  0  0  0  0  0
   12.4090   -0.2027   -1.2394 C   0  0  0  0  0  0  0  0  0  0  0  0
   13.3851    1.0023   -1.2687 C   0  0  0  0  0  0  0  0  0  0  0  0
   12.8301    1.9073   -0.1275 C   0  0  0  0  0  0  0  0  0  0  0  0
   11.4019    1.5748   -0.1618 O   0  0  0  0  0  0  0  0  0  0  0  0
   13.2895    1.2064    1.1860 C   0  0  0  0  0  0  0  0  0  0  0  0
   12.2827    0.0326    1.3059 C   0  0  0  0  0  0  0  0  0  0  0  0
   11.3240    0.3140    2.4821 C   0  0  0  0  0  0  0  0  0  0  0  0
   12.9424   -1.2047    1.5365 O   0  0  0  0  0  0  0  0  0  0  0  0
   13.1537   -1.5278   -1.1495 C   0  0  0  0  0  0  0  0  0  0  0  0
   11.5636   -0.1895   -2.5312 C   0  0  0  0  0  0  0  0  0  0  0  0
   -4.2259   -0.2215   -0.0270 C   0  0  0  0  0  0  0  0  0  0  0  0
   -5.3831    0.5017   -0.0270 C   0  0  0  0  0  0  0  0  0  0  0  0
   -6.6246   -0.1584   -0.0270 C   0  0  0  0  0  0  0  0  0  0  0  0
   -7.7769    0.5617   -0.0270 C   0  0  0  0  0  0  0  0  0  0  0  0
   -7.7243    2.0678   -0.0270 C   0  0  0  0  0  0  0  0  0  0  0  0
   -9.0287   -0.1038   -0.0270 C   0  0  0  0  0  0  0  0  0  0  0  0
  -10.1621    0.6045   -0.0270 C   0  0  0  0  0  0  0  0  0  0  0  0
  -11.4969   -0.1051   -0.0270 C   0  0  0  0  0  0  0  0  0  0  0  0
  -12.4090    0.2027   -1.2394 C   0  0  0  0  0  0  0  0  0  0  0  0
  -13.3851   -1.0023   -1.2687 C   0  0  0  0  0  0  0  0  0  0  0  0
  -12.8301   -1.9073   -0.1275 C   0  0  0  0  0  0  0  0  0  0  0  0
  -11.4019   -1.5748   -0.1618 O   0  0  0  0  0  0  0  0  0  0  0  0
  -13.2895   -1.2064    1.1860 C   0  0  0  0  0  0  0  0  0  0  0  0
  -12.2827   -0.0327    1.3059 C   0  0  0  0  0  0  0  0  0  0  0  0
  -11.3240   -0.3140    2.4821 C   0  0  0  0  0  0  0  0  0  0  0  0
  -12.9424    1.2047    1.5365 O   0  0  0  0  0  0  0  0  0  0  0  0
  -13.1537    1.5279   -1.1495 C   0  0  0  0  0  0  0  0  0  0  0  0
  -11.5636    0.1895   -2.5312 C   0  0  0  0  0  0  0  0  0  0  0  0
   -2.9224    2.3059   -1.0547 H   0  0  0  0  0  0  0  0  0  0  0  0
   -3.8119    2.3370    0.4868 H   0  0  0  0  0  0  0  0  0  0  0  0
   -2.0330    2.2748    0.4868 H   0  0  0  0  0  0  0  0  0  0  0  0
   -1.8584   -1.3720   -0.0270 H   0  0  0  0  0  0  0  0  0  0  0  0
   -0.5461    1.4442   -0.0270 H   0  0  0  0  0  0  0  0  0  0  0  0
    0.5461   -1.4442   -0.0270 H   0  0  0  0  0  0  0  0  0  0  0  0
    1.8584    1.3720   -0.0270 H   0  0  0  0  0  0  0  0  0  0  0  0
    2.9224   -2.3059   -1.0547 H   0  0  0  0  0  0  0  0  0  0  0  0
    3.8119   -2.3370    0.4868 H   0  0  0  0  0  0  0  0  0  0  0  0
    2.0330   -2.2748    0.4868 H   0  0  0  0  0  0  0  0  0  0  0  0
    4.2636    1.3009   -0.0270 H   0  0  0  0  0  0  0  0  0  0  0  0
    5.3453   -1.5810   -0.0270 H   0  0  0  0  0  0  0  0  0  0  0  0
    6.6624    1.2377   -0.0270 H   0  0  0  0  0  0  0  0  0  0  0  0
    7.7116   -2.4309   -1.0547 H   0  0  0  0  0  0  0  0  0  0  0  0
    8.6010   -2.4620    0.4868 H   0  0  0  0  0  0  0  0  0  0  0  0
    6.8221   -2.3998    0.4868 H   0  0  0  0  0  0  0  0  0  0  0  0
    9.0665    1.1831   -0.0270 H   0  0  0  0  0  0  0  0  0  0  0  0
   10.1243   -1.6839   -0.0270 H   0  0  0  0  0  0  0  0  0  0  0  0
   14.4023    0.6815   -1.0497 H   0  0  0  0  0  0  0  0  0  0  0  0
   13.3372    1.5156   -2.2282 H   0  0  0  0  0  0  0  0  0  0  0  0
   13.0727    2.9653   -0.2065 H   0  0  0  0  0  0  0  0  0  0  0  0
   14.3089    0.8352    1.0936 H   0  0  0  0  0  0  0  0  0  0  0  0
   13.1980    1.8811    2.0368 H   0  0  0  0  0  0  0  0  0  0  0  0
   10.8046    1.2566    2.3099 H   0  0  0  0  0  0  0  0  0  0  0  0
   10.5958   -0.4935    2.5584 H   0  0  0  0  0  0  0  0  0  0  0  0
   11.8946    0.3774    3.4087 H   0  0  0  0  0  0  0  0  0  0  0  0
   13.4517   -1.2318    2.3580 H   0  0  0  0  0  0  0  0  0  0  0  0
   12.4350   -2.3443   -1.0785 H   0  0  0  0  0  0  0  0  0  0  0  0
   13.7676   -1.6607   -2.0403 H   0  0  0  0  0  0  0  0  0  0  0  0
   13.7913   -1.5271   -0.2655 H   0  0  0  0  0  0  0  0  0  0  0  0
   11.1083    0.7927   -2.6576 H   0  0  0  0  0  0  0  0  0  0  0  0
   12.2036   -0.4060   -3.3866 H   0  0  0  0  0  0  0  0  0  0  0  0
   10.7819   -0.9460   -2.4617 H   0  0  0  0  0  0  0  0  0  0  0  0
   -4.2636   -1.3009   -0.0270 H   0  0  0  0  0  0  0  0  0  0  0  0
   -5.3453    1.5810   -0.0270 H   0  0  0  0  0  0  0  0  0  0  0  0
   -6.6624   -1.2377   -0.0270 H   0  0  0  0  0  0  0  0  0  0  0  0
   -7.7116    2.4309   -1.0547 H   0  0  0  0  0  0  0  0  0  0  0  0
   -8.6010    2.4620    0.4868 H   0  0  0  0  0  0  0  0  0  0  0  0
   -6.8221    2.3998    0.4868 H   0  0  0  0  0  0  0  0  0  0  0  0
   -9.0665   -1.1831   -0.0270 H   0  0  0  0  0  0  0  0  0  0  0  0
  -10.1243    1.6839   -0.0270 H   0  0  0  0  0  0  0  0  0  0  0  0
  -14.4023   -0.6814   -1.0497 H   0  0  0  0  0  0  0  0  0  0  0  0
  -13.3372   -1.5156   -2.2282 H   0  0  0  0  0  0  0  0  0  0  0  0
  -13.0727   -2.9653   -0.2065 H   0  0  0  0  0  0  0  0  0  0  0  0
  -14.3089   -0.8352    1.0936 H   0  0  0  0  0  0  0  0  0  0  0  0
  -13.1980   -1.8811    2.0368 H   0  0  0  0  0  0  0  0  0  0  0  0
  -10.8046   -1.2566    2.3099 H   0  0  0  0  0  0  0  0  0  0  0  0
  -10.5958    0.4935    2.5584 H   0  0  0  0  0  0  0  0  0  0  0  0
  -11.8946   -0.3775    3.4087 H   0  0  0  0  0  0  0  0  0  0  0  0
  -13.4517    1.2318    2.3580 H   0  0  0  0  0  0  0  0  0  0  0  0
  -12.4350    2.3443   -1.0785 H   0  0  0  0  0  0  0  0  0  0  0  0
  -13.7676    1.6607   -2.0403 H   0  0  0  0  0  0  0  0  0  0  0  0
  -13.7913    1.5271   -0.2655 H   0  0  0  0  0  0  0  0  0  0  0  0
  -11.1083   -0.7927   -2.6576 H   0  0  0  0  0  0  0  0  0  0  0  0
  -12.2036    0.4061   -3.3866 H   0  0  0  0  0  0  0  0  0  0  0  0
  -10.7819    0.9460   -2.4616 H   0  0  0  0  0  0  0  0  0  0  0  0
  1  2  1  0  0  0  0
  2  3  2  0  0  0  0
  3  4  1  0  0  0  0
  4  5  2  0  0  0  0
  5  6  1  0  0  0  0
  6  7  2  0  0  0  0
  7  8  1  0  0  0  0
  7  9  1  0  0  0  0
  9 10  2  0  0  0  0
 10 11  1  0  0  0  0
 11 12  2  0  0  0  0
 12 13  1  0  0  0  0
 12 14  1  0  0  0  0
 14 15  2  0  0  0  0
 15 16  1  0  0  0  0
 16 17  1  0  0  0  0
 17 18  1  0  0  0  0
 18 19  1  0  0  0  0
 19 20  1  0  0  0  0
 16 20  1  0  0  0  0
 19 21  1  0  0  0  0
 21 22  1  0  0  0  0
 16 22  1  0  0  0  0
 22 23  1  0  0  0  0
 22 24  1  0  0  0  0
 17 25  1  0  0  0  0
 17 26  1  0  0  0  0
  2 27  1  0  0  0  0
 27 28  2  0  0  0  0
 28 29  1  0  0  0  0
 29 30  2  0  0  0  0
 30 31  1  0  0  0  0
 30 32  1  0  0  0  0
 32 33  2  0  0  0  0
 33 34  1  0  0  0  0
 34 35  1  0  0  0  0
 35 36  1  0  0  0  0
 36 37  1  0  0  0  0
 37 38  1  0  0  0  0
 34 38  1  0  0  0  0
 37 39  1  0  0  0  0
 39 40  1  0  0  0  0
 34 40  1  0  0  0  0
 40 41  1  0  0  0  0
 40 42  1  0  0  0  0
 35 43  1  0  0  0  0
 35 44  1  0  0  0  0
  1 45  1  0  0  0  0
  1 46  1  0  0  0  0
  1 47  1  0  0  0  0
  3 48  1  0  0  0  0
  4 49  1  0  0  0  0
  5 50  1  0  0  0  0
  6 51  1  0  0  0  0
  8 52  1  0  0  0  0
  8 53  1  0  0  0  0
  8 54  1  0  0  0  0
  9 55  1  0  0  0  0
 10 56  1  0  0  0  0
 11 57  1  0  0  0  0
 13 58  1  0  0  0  0
 13 59  1  0  0  0  0
 13 60  1  0  0  0  0
 14 61  1  0  0  0  0
 15 62  1  0  0  0  0
 18 63  1  0  0  0  0
 18 64  1  0  0  0  0
 19 65  1  0  0  0  0
 21 66  1  0  0  0  0
 21 67  1  0  0  0  0
 23 68  1  0  0  0  0
 23 69  1  0  0  0  0
 23 70  1  0  0  0  0
 24 71  1  0  0  0  0
 25 72  1  0  0  0  0
 25 73  1  0  0  0  0
 25 74  1  0  0  0  0
 26 75  1  0  0  0  0
 26 76  1  0  0  0  0
 26 77  1  0  0  0  0
 27 78  1  0  0  0  0
 28 79  1  0  0  0  0
 29 80  1  0  0  0  0
 31 81  1  0  0  0  0
 31 82  1  0  0  0  0
 31 83  1  0  0  0  0
 32 84  1  0  0  0  0
 33 85  1  0  0  0  0
 36 86  1  0  0  0  0
 36 87  1  0  0  0  0
 37 88  1  0  0  0  0
 39 89  1  0  0  0  0
 39 90  1  0  0  0  0
 41 91  1  0  0  0  0
 41 92  1  0  0  0  0
 41 93  1  0  0  0  0
 42 94  1  0  0  0  0
 43 95  1  0  0  0  0
 43 96  1  0  0  0  0
 43 97  1  0  0  0  0
 44 98  1  0  0  0  0
 44 99  1  0  0  0  0
 44100  1  0  0  0  0
M  END
$$$$
