C20H19O11
APtclcactv06291803113D 0   0.00000     0.00000
 
 50 53  0  0  0  0  0  0  0  0999 V2000
    3.4835   -0.3151    0.4226 C   0  0  0  0  0  0  0  0  0  0  0  0
    2.2422    0.0510   -0.1001 C   0  0  0  0  0  0  0  0  0  0  0  0
    2.0927    1.2816   -0.7415 C   0  0  0  0  0  0  0  0  0  0  0  0
    3.1745    2.1355   -0.8578 C   0  0  0  0  0  0  0  0  0  0  0  0
    4.4115    1.7683   -0.3363 C   0  0  0  0  0  0  0  0  0  0  0  0
    4.5626    0.5420    0.3040 C   0  0  0  0  0  0  0  0  0  0  0  0
    5.7726    0.1854    0.8124 O   0  0  0  0  0  0  0  0  0  0  0  0
    5.4738    2.6092   -0.4522 O   0  0  0  0  0  0  0  0  0  0  0  0
    3.0295    3.3347   -1.4827 O   0  0  0  0  0  0  0  0  0  0  0  0
    1.0868   -0.8642    0.0251 C   0  0  0  0  0  0  0  0  0  0  0  0
   -0.1772   -0.3185    0.3133 C   0  0  0  0  0  0  0  0  0  0  0  0
   -1.2427   -1.1853    0.4259 C   0  0  0  0  0  0  0  0  0  0  0  0
   -0.9390   -2.5495    0.2357 C   0  0  0  0  0  0  0  0  0  0  0  0
   -1.9311   -3.5432    0.3218 C   0  0  0  0  0  0  0  0  0  0  0  0
   -1.5932   -4.8538    0.1301 C   0  0  0  0  0  0  0  0  0  0  0  0
   -0.2730   -5.2125   -0.1496 C   0  0  0  0  0  0  0  0  0  0  0  0
    0.7178   -4.2593   -0.2390 C   0  0  0  0  0  0  0  0  0  0  0  0
    0.4040   -2.9049   -0.0484 C   0  0  0  0  0  0  0  0  0  0  0  0
    1.2674   -2.0501   -0.1294 O   0  3  0  0  0  0  0  0  0  0  0  0
    0.0392   -6.5210   -0.3359 O   0  0  0  0  0  0  0  0  0  0  0  0
   -3.2168   -3.2025    0.5942 O   0  0  0  0  0  0  0  0  0  0  0  0
   -0.3424    1.0209    0.4758 O   0  0  0  0  0  0  0  0  0  0  0  0
   -1.6638    1.4811    0.7662 C   0  0  0  0  0  0  0  0  0  0  0  0
   -1.6408    3.0001    1.0409 C   0  0  0  0  0  0  0  0  0  0  0  0
   -2.9447    3.4803    0.3471 C   0  0  0  0  0  0  0  0  0  0  0  0
   -3.0083    2.5126   -0.8613 C   0  0  0  0  0  0  0  0  0  0  0  0
   -2.5152    1.2585   -0.3639 O   0  0  0  0  0  0  0  0  0  0  0  0
   -4.4519    2.3613   -1.3451 C   0  0  0  0  0  0  0  0  0  0  0  0
   -4.4764    1.5600   -2.5280 O   0  0  0  0  0  0  0  0  0  0  0  0
   -4.0762    3.3104    1.2031 O   0  0  0  0  0  0  0  0  0  0  0  0
   -1.6849    3.2638    2.4447 O   0  0  0  0  0  0  0  0  0  0  0  0
    3.6003   -1.2649    0.9232 H   0  0  0  0  0  0  0  0  0  0  0  0
    1.1332    1.5666   -1.1469 H   0  0  0  0  0  0  0  0  0  0  0  0
    5.9097    0.4584    1.7299 H   0  0  0  0  0  0  0  0  0  0  0  0
    5.5677    3.2281    0.2849 H   0  0  0  0  0  0  0  0  0  0  0  0
    2.7739    4.0572   -0.8929 H   0  0  0  0  0  0  0  0  0  0  0  0
   -2.2432   -0.8429    0.6456 H   0  0  0  0  0  0  0  0  0  0  0  0
   -2.3534   -5.6181    0.1957 H   0  0  0  0  0  0  0  0  0  0  0  0
    1.7340   -4.5539   -0.4553 H   0  0  0  0  0  0  0  0  0  0  0  0
   -0.0304   -6.8151   -1.2544 H   0  0  0  0  0  0  0  0  0  0  0  0
   -3.7497   -3.0184   -0.1914 H   0  0  0  0  0  0  0  0  0  0  0  0
   -2.0560    0.9540    1.6359 H   0  0  0  0  0  0  0  0  0  0  0  0
   -0.7657    3.4635    0.5854 H   0  0  0  0  0  0  0  0  0  0  0  0
   -2.8559    4.5154    0.0172 H   0  0  0  0  0  0  0  0  0  0  0  0
   -2.3735    2.8748   -1.6700 H   0  0  0  0  0  0  0  0  0  0  0  0
   -5.0469    1.8808   -0.5684 H   0  0  0  0  0  0  0  0  0  0  0  0
   -4.8667    3.3452   -1.5640 H   0  0  0  0  0  0  0  0  0  0  0  0
   -5.3619    1.4220   -2.8913 H   0  0  0  0  0  0  0  0  0  0  0  0
   -4.0269    3.8170    2.0253 H   0  0  0  0  0  0  0  0  0  0  0  0
   -0.9334    2.9049    2.9361 H   0  0  0  0  0  0  0  0  0  0  0  0
  1  2  2  0  0  0  0
  2  3  1  0  0  0  0
  3  4  2  0  0  0  0
  4  5  1  0  0  0  0
  5  6  2  0  0  0  0
  1  6  1  0  0  0  0
  6  7  1  0  0  0  0
  5  8  1  0  0  0  0
  4  9  1  0  0  0  0
  2 10  1  0  0  0  0
 10 11  2  0  0  0  0
 11 12  1  0  0  0  0
 12 13  2  0  0  0  0
 13 14  1  0  0  0  0
 14 15  2  0  0  0  0
 15 16  1  0  0  0  0
 16 17  2  0  0  0  0
 17 18  1  0  0  0  0
 13 18  1  0  0  0  0
 18 19  2  0  0  0  0
 10 19  1  0  0  0  0
 16 20  1  0  0  0  0
 14 21  1  0  0  0  0
 11 22  1  0  0  0  0
 22 23  1  0  0  0  0
 23 24  1  0  0  0  0
 24 25  1  0  0  0  0
 25 26  1  0  0  0  0
 26 27  1  0  0  0  0
 23 27  1  0  0  0  0
 26 28  1  0  0  0  0
 28 29  1  0  0  0  0
 25 30  1  0  0  0  0
 24 31  1  0  0  0  0
  1 32  1  0  0  0  0
  3 33  1  0  0  0  0
  7 34  1  0  0  0  0
  8 35  1  0  0  0  0
  9 36  1  0  0  0  0
 12 37  1  0  0  0  0
 15 38  1  0  0  0  0
 17 39  1  0  0  0  0
 20 40  1  0  0  0  0
 21 41  1  0  0  0  0
 23 42  1  0  0  0  0
 24 43  1  0  0  0  0
 25 44  1  0  0  0  0
 26 45  1  0  0  0  0
 28 46  1  0  0  0  0
 28 47  1  0  0  0  0
 29 48  1  0  0  0  0
 30 49  1  0  0  0  0
 31 50  1  0  0  0  0
M  CHG  1  19   1
M  END
$$$$
