C48H42O14
APtclcactv06291803143D 0   0.00000     0.00000
 
104112  0  0  0  0  0  0  0  0999 V2000
   -6.2937    1.5844    0.7089 C   0  0  0  0  0  0  0  0  0  0  0  0
   -7.4974    2.1099    0.2920 C   0  0  0  0  0  0  0  0  0  0  0  0
   -8.6685    1.3798    0.4500 C   0  0  0  0  0  0  0  0  0  0  0  0
   -8.6324    0.1174    1.0283 C   0  0  0  0  0  0  0  0  0  0  0  0
   -7.4335   -0.4167    1.4478 C   0  0  0  0  0  0  0  0  0  0  0  0
   -6.2524    0.3143    1.2910 C   0  0  0  0  0  0  0  0  0  0  0  0
   -4.9677   -0.2526    1.7375 C   0  0  0  0  0  0  0  0  0  0  0  0
   -3.8222    0.4018    1.4878 C   0  0  0  0  0  0  0  0  0  0  0  0
   -2.5292   -0.2218    1.8222 C   0  0  0  0  0  0  0  0  0  0  0  0
   -2.4830   -1.5455    2.2683 C   0  0  0  0  0  0  0  0  0  0  0  0
   -1.2612   -2.1188    2.5786 C   0  0  0  0  0  0  0  0  0  0  0  0
   -0.0905   -1.3900    2.4460 C   0  0  0  0  0  0  0  0  0  0  0  0
   -0.1245   -0.0706    1.9983 C   0  0  0  0  0  0  0  0  0  0  0  0
   -1.3477    0.5037    1.6895 C   0  0  0  0  0  0  0  0  0  0  0  0
   -1.0744    1.9319    1.2594 C   0  0  0  0  0  0  0  0  0  0  0  0
    0.3754    2.1433    1.7564 C   0  0  0  0  0  0  0  0  0  0  0  0
    0.8982    0.8028    1.7841 O   0  0  0  0  0  0  0  0  0  0  0  0
    1.1528    2.9970    0.7879 C   0  0  0  0  0  0  0  0  0  0  0  0
    1.0046    4.3716    0.8066 C   0  0  0  0  0  0  0  0  0  0  0  0
    1.7161    5.1563   -0.0801 C   0  0  0  0  0  0  0  0  0  0  0  0
    2.5800    4.5641   -0.9899 C   0  0  0  0  0  0  0  0  0  0  0  0
    2.7269    3.1847   -1.0066 C   0  0  0  0  0  0  0  0  0  0  0  0
    2.0173    2.4048   -0.1140 C   0  0  0  0  0  0  0  0  0  0  0  0
    3.2807    5.3339   -1.8635 O   0  0  0  0  0  0  0  0  0  0  0  0
   -1.1553    2.0679   -0.2392 C   0  0  0  0  0  0  0  0  0  0  0  0
   -1.0130    3.3103   -0.8287 C   0  0  0  0  0  0  0  0  0  0  0  0
   -1.0885    3.4294   -2.2095 C   0  0  0  0  0  0  0  0  0  0  0  0
   -1.3014    2.3096   -2.9949 C   0  0  0  0  0  0  0  0  0  0  0  0
   -1.4411    1.0568   -2.4048 C   0  0  0  0  0  0  0  0  0  0  0  0
   -1.3653    0.9531   -1.0214 C   0  0  0  0  0  0  0  0  0  0  0  0
   -1.5749   -0.5081   -0.6733 C   0  0  0  0  0  0  0  0  0  0  0  0
   -2.1543   -1.0715   -1.9925 C   0  0  0  0  0  0  0  0  0  0  0  0
   -1.6366   -0.1615   -2.9800 O   0  0  0  0  0  0  0  0  0  0  0  0
   -1.6504   -2.4696   -2.2428 C   0  0  0  0  0  0  0  0  0  0  0  0
   -2.3672   -3.5556   -1.7753 C   0  0  0  0  0  0  0  0  0  0  0  0
   -1.9075   -4.8381   -2.0034 C   0  0  0  0  0  0  0  0  0  0  0  0
   -0.7255   -5.0360   -2.7023 C   0  0  0  0  0  0  0  0  0  0  0  0
   -0.0081   -3.9447   -3.1703 C   0  0  0  0  0  0  0  0  0  0  0  0
   -0.4751   -2.6643   -2.9444 C   0  0  0  0  0  0  0  0  0  0  0  0
   -0.2709   -6.2967   -2.9276 O   0  0  0  0  0  0  0  0  0  0  0  0
   -0.2664   -1.1735   -0.3324 C   0  0  0  0  0  0  0  0  0  0  0  0
   -0.2608   -2.3746    0.3503 C   0  0  0  0  0  0  0  0  0  0  0  0
    0.9429   -2.9891    0.6659 C   0  0  0  0  0  0  0  0  0  0  0  0
    2.1402   -2.3970    0.2952 C   0  0  0  0  0  0  0  0  0  0  0  0
    2.1319   -1.1918   -0.3902 C   0  0  0  0  0  0  0  0  0  0  0  0
    0.9257   -0.5840   -0.7080 C   0  0  0  0  0  0  0  0  0  0  0  0
    3.3040   -0.6086   -0.7546 O   0  0  0  0  0  0  0  0  0  0  0  0
    4.5072   -1.2927   -0.3989 C   0  0  0  0  0  0  0  0  0  0  0  0
    5.7090   -0.5561   -0.9961 C   0  0  0  0  0  0  0  0  0  0  0  0
    5.7820    0.8531   -0.4002 C   0  0  0  0  0  0  0  0  0  0  0  0
    5.8650    0.7465    1.1257 C   0  0  0  0  0  0  0  0  0  0  0  0
    4.6571   -0.0404    1.6410 C   0  0  0  0  0  0  0  0  0  0  0  0
    4.6316   -1.3292    1.0243 O   0  0  0  0  0  0  0  0  0  0  0  0
    4.7638   -0.2029    3.1586 C   0  0  0  0  0  0  0  0  0  0  0  0
    3.5816   -0.8344    3.6542 O   0  0  0  0  0  0  0  0  0  0  0  0
    7.0684    0.0686    1.4923 O   0  0  0  0  0  0  0  0  0  0  0  0
    6.9429    1.5224   -0.8965 O   0  0  0  0  0  0  0  0  0  0  0  0
    6.9082   -1.2686   -0.6857 O   0  0  0  0  0  0  0  0  0  0  0  0
    0.9478   -4.1701    1.3382 O   0  0  0  0  0  0  0  0  0  0  0  0
   -0.9533    4.6496   -2.7923 O   0  0  0  0  0  0  0  0  0  0  0  0
   -1.2103   -3.4044    3.0165 O   0  0  0  0  0  0  0  0  0  0  0  0
   -9.8529    1.9022    0.0379 O   0  0  0  0  0  0  0  0  0  0  0  0
   -5.3832    2.1511    0.5819 H   0  0  0  0  0  0  0  0  0  0  0  0
   -7.5304    3.0912   -0.1579 H   0  0  0  0  0  0  0  0  0  0  0  0
   -9.5456   -0.4463    1.1497 H   0  0  0  0  0  0  0  0  0  0  0  0
   -7.4065   -1.3981    1.8977 H   0  0  0  0  0  0  0  0  0  0  0  0
   -4.9475   -1.1944    2.2657 H   0  0  0  0  0  0  0  0  0  0  0  0
   -3.8482    1.3851    1.0418 H   0  0  0  0  0  0  0  0  0  0  0  0
   -3.3936   -2.1171    2.3706 H   0  0  0  0  0  0  0  0  0  0  0  0
    0.8562   -1.8478    2.6919 H   0  0  0  0  0  0  0  0  0  0  0  0
   -1.7591    2.6241    1.7495 H   0  0  0  0  0  0  0  0  0  0  0  0
    0.3816    2.5845    2.7531 H   0  0  0  0  0  0  0  0  0  0  0  0
    0.3317    4.8321    1.5148 H   0  0  0  0  0  0  0  0  0  0  0  0
    1.5997    6.2299   -0.0653 H   0  0  0  0  0  0  0  0  0  0  0  0
    3.3988    2.7213   -1.7139 H   0  0  0  0  0  0  0  0  0  0  0  0
    2.1314    1.3309   -0.1266 H   0  0  0  0  0  0  0  0  0  0  0  0
    4.1427    5.6201   -1.5317 H   0  0  0  0  0  0  0  0  0  0  0  0
   -0.8442    4.1845   -0.2174 H   0  0  0  0  0  0  0  0  0  0  0  0
   -1.3596    2.4085   -4.0688 H   0  0  0  0  0  0  0  0  0  0  0  0
   -2.2892   -0.6155    0.1430 H   0  0  0  0  0  0  0  0  0  0  0  0
   -3.2439   -1.0498   -1.9761 H   0  0  0  0  0  0  0  0  0  0  0  0
   -3.2872   -3.4010   -1.2310 H   0  0  0  0  0  0  0  0  0  0  0  0
   -2.4676   -5.6861   -1.6377 H   0  0  0  0  0  0  0  0  0  0  0  0
    0.9123   -4.0961   -3.7146 H   0  0  0  0  0  0  0  0  0  0  0  0
    0.0830   -1.8144   -3.3086 H   0  0  0  0  0  0  0  0  0  0  0  0
   -0.5922   -6.6894   -3.7508 H   0  0  0  0  0  0  0  0  0  0  0  0
   -1.1939   -2.8355    0.6389 H   0  0  0  0  0  0  0  0  0  0  0  0
    3.0779   -2.8735    0.5402 H   0  0  0  0  0  0  0  0  0  0  0  0
    0.9187    0.3548   -1.2419 H   0  0  0  0  0  0  0  0  0  0  0  0
    4.4749   -2.3107   -0.7873 H   0  0  0  0  0  0  0  0  0  0  0  0
    5.5940   -0.4886   -2.0779 H   0  0  0  0  0  0  0  0  0  0  0  0
    4.8894    1.4134   -0.6785 H   0  0  0  0  0  0  0  0  0  0  0  0
    5.8616    1.7457    1.5613 H   0  0  0  0  0  0  0  0  0  0  0  0
    3.7414    0.4979    1.3963 H   0  0  0  0  0  0  0  0  0  0  0  0
    5.6316   -0.8173    3.3981 H   0  0  0  0  0  0  0  0  0  0  0  0
    4.8736    0.7775    3.6221 H   0  0  0  0  0  0  0  0  0  0  0  0
    3.5799   -0.9698    4.6117 H   0  0  0  0  0  0  0  0  0  0  0  0
    7.8752    0.5098    1.1932 H   0  0  0  0  0  0  0  0  0  0  0  0
    6.9600    1.6190   -1.8585 H   0  0  0  0  0  0  0  0  0  0  0  0
    6.9287   -2.1724   -1.0289 H   0  0  0  0  0  0  0  0  0  0  0  0
    0.9274   -4.9489    0.7653 H   0  0  0  0  0  0  0  0  0  0  0  0
   -0.0416    4.8781   -3.0194 H   0  0  0  0  0  0  0  0  0  0  0  0
   -1.1155   -4.0572    2.3094 H   0  0  0  0  0  0  0  0  0  0  0  0
  -10.0779    1.6919   -0.8787 H   0  0  0  0  0  0  0  0  0  0  0  0
  1  2  2  0  0  0  0
  2  3  1  0  0  0  0
  3  4  2  0  0  0  0
  4  5  1  0  0  0  0
  5  6  2  0  0  0  0
  1  6  1  0  0  0  0
  6  7  1  0  0  0  0
  7  8  2  0  0  0  0
  8  9  1  0  0  0  0
  9 10  2  0  0  0  0
 10 11  1  0  0  0  0
 11 12  2  0  0  0  0
 12 13  1  0  0  0  0
 13 14  2  0  0  0  0
  9 14  1  0  0  0  0
 14 15  1  0  0  0  0
 15 16  1  0  0  0  0
 16 17  1  0  0  0  0
 13 17  1  0  0  0  0
 16 18  1  0  0  0  0
 18 19  2  0  0  0  0
 19 20  1  0  0  0  0
 20 21  2  0  0  0  0
 21 22  1  0  0  0  0
 22 23  2  0  0  0  0
 18 23  1  0  0  0  0
 21 24  1  0  0  0  0
 15 25  1  0  0  0  0
 25 26  2  0  0  0  0
 26 27  1  0  0  0  0
 27 28  2  0  0  0  0
 28 29  1  0  0  0  0
 29 30  2  0  0  0  0
 25 30  1  0  0  0  0
 30 31  1  0  0  0  0
 31 32  1  0  0  0  0
 32 33  1  0  0  0  0
 29 33  1  0  0  0  0
 32 34  1  0  0  0  0
 34 35  2  0  0  0  0
 35 36  1  0  0  0  0
 36 37  2  0  0  0  0
 37 38  1  0  0  0  0
 38 39  2  0  0  0  0
 34 39  1  0  0  0  0
 37 40  1  0  0  0  0
 31 41  1  0  0  0  0
 41 42  2  0  0  0  0
 42 43  1  0  0  0  0
 43 44  2  0  0  0  0
 44 45  1  0  0  0  0
 45 46  2  0  0  0  0
 41 46  1  0  0  0  0
 45 47  1  0  0  0  0
 47 48  1  0  0  0  0
 48 49  1  0  0  0  0
 49 50  1  0  0  0  0
 50 51  1  0  0  0  0
 51 52  1  0  0  0  0
 52 53  1  0  0  0  0
 48 53  1  0  0  0  0
 52 54  1  0  0  0  0
 54 55  1  0  0  0  0
 51 56  1  0  0  0  0
 50 57  1  0  0  0  0
 49 58  1  0  0  0  0
 43 59  1  0  0  0  0
 27 60  1  0  0  0  0
 11 61  1  0  0  0  0
  3 62  1  0  0  0  0
  1 63  1  0  0  0  0
  2 64  1  0  0  0  0
  4 65  1  0  0  0  0
  5 66  1  0  0  0  0
  7 67  1  0  0  0  0
  8 68  1  0  0  0  0
 10 69  1  0  0  0  0
 12 70  1  0  0  0  0
 15 71  1  0  0  0  0
 16 72  1  0  0  0  0
 19 73  1  0  0  0  0
 20 74  1  0  0  0  0
 22 75  1  0  0  0  0
 23 76  1  0  0  0  0
 24 77  1  0  0  0  0
 26 78  1  0  0  0  0
 28 79  1  0  0  0  0
 31 80  1  0  0  0  0
 32 81  1  0  0  0  0
 35 82  1  0  0  0  0
 36 83  1  0  0  0  0
 38 84  1  0  0  0  0
 39 85  1  0  0  0  0
 40 86  1  0  0  0  0
 42 87  1  0  0  0  0
 44 88  1  0  0  0  0
 46 89  1  0  0  0  0
 48 90  1  0  0  0  0
 49 91  1  0  0  0  0
 50 92  1  0  0  0  0
 51 93  1  0  0  0  0
 52 94  1  0  0  0  0
 54 95  1  0  0  0  0
 54 96  1  0  0  0  0
 55 97  1  0  0  0  0
 56 98  1  0  0  0  0
 57 99  1  0  0  0  0
 58100  1  0  0  0  0
 59101  1  0  0  0  0
 60102  1  0  0  0  0
 61103  1  0  0  0  0
 62104  1  0  0  0  0
M  END
$$$$
