C29H46O2
APtclcactv06291803073D 0   0.00000     0.00000
 
 77 80  0  0  0  0  0  0  0  0999 V2000
   -5.5175    0.2361   -2.4262 C   0  0  0  0  0  0  0  0  0  0  0  0
   -6.2992   -0.4635   -1.3125 C   0  0  0  0  0  0  0  0  0  0  0  0
   -5.3223   -1.0106   -0.2698 C   0  0  0  0  0  0  0  0  0  0  0  0
   -4.6107    0.1354    0.4019 C   0  0  0  0  0  0  0  0  0  0  0  0
   -3.3057    0.2270    0.3325 C   0  0  0  0  0  0  0  0  0  0  0  0
   -2.5941    1.3730    1.0043 C   0  0  0  0  0  0  0  0  0  0  0  0
   -1.7141    0.8349    2.1343 C   0  0  0  0  0  0  0  0  0  0  0  0
   -1.7247    2.0982   -0.0149 C   0  0  0  0  0  0  0  0  0  0  0  0
   -1.0973    3.3690    0.6181 C   0  0  0  0  0  0  0  0  0  0  0  0
    0.4375    3.1131    0.6776 C   0  0  0  0  0  0  0  0  0  0  0  0
    0.5014    1.5796    0.6625 C   0  0  0  0  0  0  0  0  0  0  0  0
   -0.5157    1.2523   -0.4531 C   0  0  0  0  0  0  0  0  0  0  0  0
   -0.7176   -0.2343   -0.5443 C   0  0  0  0  0  0  0  0  0  0  0  0
    0.6141   -0.9793   -0.7035 C   0  0  0  0  0  0  0  0  0  0  0  0
    1.8357   -0.0827   -0.6850 C   0  0  0  0  0  0  0  0  0  0  0  0
    1.8204    0.9124    0.4763 C   0  0  0  0  0  0  0  0  0  0  0  0
    2.9786    1.8606    0.2449 C   0  0  0  0  0  0  0  0  0  0  0  0
    2.8738    3.0633    0.2242 O   0  0  0  0  0  0  0  0  0  0  0  0
    4.2846    1.2036    0.0485 C   0  0  0  0  0  0  0  0  0  0  0  0
    4.3329   -0.0627   -0.3422 C   0  0  0  0  0  0  0  0  0  0  0  0
    3.1196   -0.9089   -0.6265 C   0  0  0  0  0  0  0  0  0  0  0  0
    3.0446   -2.0114    0.4226 C   0  0  0  0  0  0  0  0  0  0  0  0
    4.4133   -2.2277    1.0669 C   0  0  0  0  0  0  0  0  0  0  0  0
    5.5547   -2.1596    0.0590 C   0  0  0  0  0  0  0  0  0  0  0  0
    5.6825   -0.7385   -0.5063 C   0  0  0  0  0  0  0  0  0  0  0  0
    6.7805   -2.5174    0.7088 O   0  0  0  0  0  0  0  0  0  0  0  0
    3.2925   -1.5549   -2.0028 C   0  0  0  0  0  0  0  0  0  0  0  0
   -0.0896    1.8195   -1.8145 C   0  0  0  0  0  0  0  0  0  0  0  0
   -6.0930   -1.8167    0.7776 C   0  0  0  0  0  0  0  0  0  0  0  0
   -6.8155   -2.9802    0.0956 C   0  0  0  0  0  0  0  0  0  0  0  0
   -5.1161   -2.3638    1.8203 C   0  0  0  0  0  0  0  0  0  0  0  0
   -4.9394    1.0579   -2.0034 H   0  0  0  0  0  0  0  0  0  0  0  0
   -4.8426   -0.4770   -2.8996 H   0  0  0  0  0  0  0  0  0  0  0  0
   -6.2134    0.6259   -3.1690 H   0  0  0  0  0  0  0  0  0  0  0  0
   -6.9741    0.2497   -0.8391 H   0  0  0  0  0  0  0  0  0  0  0  0
   -6.8773   -1.2852   -1.7353 H   0  0  0  0  0  0  0  0  0  0  0  0
   -4.5920   -1.6551   -0.7591 H   0  0  0  0  0  0  0  0  0  0  0  0
   -5.1765    0.8811    0.9405 H   0  0  0  0  0  0  0  0  0  0  0  0
   -2.7399   -0.5187   -0.2061 H   0  0  0  0  0  0  0  0  0  0  0  0
   -3.3283    2.0664    1.4143 H   0  0  0  0  0  0  0  0  0  0  0  0
   -2.3421    0.3670    2.8925 H   0  0  0  0  0  0  0  0  0  0  0  0
   -1.0184    0.0978    1.7334 H   0  0  0  0  0  0  0  0  0  0  0  0
   -1.1549    1.6564    2.5821 H   0  0  0  0  0  0  0  0  0  0  0  0
   -2.3099    2.3720   -0.8938 H   0  0  0  0  0  0  0  0  0  0  0  0
   -1.3041    4.2363   -0.0065 H   0  0  0  0  0  0  0  0  0  0  0  0
   -1.4888    3.5191    1.6217 H   0  0  0  0  0  0  0  0  0  0  0  0
    0.9363    3.5595   -0.1732 H   0  0  0  0  0  0  0  0  0  0  0  0
    0.8458    3.5009    1.6134 H   0  0  0  0  0  0  0  0  0  0  0  0
    0.0789    1.2284    1.6316 H   0  0  0  0  0  0  0  0  0  0  0  0
   -1.2195   -0.6239    0.3504 H   0  0  0  0  0  0  0  0  0  0  0  0
   -1.3636   -0.4644   -1.4057 H   0  0  0  0  0  0  0  0  0  0  0  0
    0.6968   -1.7212    0.1042 H   0  0  0  0  0  0  0  0  0  0  0  0
    0.5849   -1.5421   -1.6474 H   0  0  0  0  0  0  0  0  0  0  0  0
    1.9099    0.4598   -1.6292 H   0  0  0  0  0  0  0  0  0  0  0  0
    2.0530    0.3442    1.4061 H   0  0  0  0  0  0  0  0  0  0  0  0
    5.1942    1.7547    0.2235 H   0  0  0  0  0  0  0  0  0  0  0  0
    2.3266   -1.7330    1.1954 H   0  0  0  0  0  0  0  0  0  0  0  0
    2.7189   -2.9396   -0.0504 H   0  0  0  0  0  0  0  0  0  0  0  0
    4.5695   -1.4683    1.8357 H   0  0  0  0  0  0  0  0  0  0  0  0
    4.4247   -3.2101    1.5474 H   0  0  0  0  0  0  0  0  0  0  0  0
    5.3739   -2.8651   -0.7526 H   0  0  0  0  0  0  0  0  0  0  0  0
    5.9668   -0.7709   -1.5571 H   0  0  0  0  0  0  0  0  0  0  0  0
    6.4398   -0.1854    0.0558 H   0  0  0  0  0  0  0  0  0  0  0  0
    7.5538   -2.4968    0.1287 H   0  0  0  0  0  0  0  0  0  0  0  0
    4.1883   -2.1759   -2.0028 H   0  0  0  0  0  0  0  0  0  0  0  0
    2.4224   -2.1723   -2.2263 H   0  0  0  0  0  0  0  0  0  0  0  0
    3.3899   -0.7767   -2.7598 H   0  0  0  0  0  0  0  0  0  0  0  0
    0.9386    1.5252   -2.0250 H   0  0  0  0  0  0  0  0  0  0  0  0
   -0.7458    1.4289   -2.5923 H   0  0  0  0  0  0  0  0  0  0  0  0
   -0.1591    2.9071   -1.7928 H   0  0  0  0  0  0  0  0  0  0  0  0
   -6.8233   -1.1722    1.2669 H   0  0  0  0  0  0  0  0  0  0  0  0
   -7.5115   -2.5904   -0.6472 H   0  0  0  0  0  0  0  0  0  0  0  0
   -6.0852   -3.6247   -0.3937 H   0  0  0  0  0  0  0  0  0  0  0  0
   -7.3646   -3.5544    0.8419 H   0  0  0  0  0  0  0  0  0  0  0  0
   -4.6014   -1.5349    2.3062 H   0  0  0  0  0  0  0  0  0  0  0  0
   -5.6652   -2.9381    2.5665 H   0  0  0  0  0  0  0  0  0  0  0  0
   -4.3858   -3.0083    1.3310 H   0  0  0  0  0  0  0  0  0  0  0  0
  1  2  1  0  0  0  0
  2  3  1  0  0  0  0
  3  4  1  0  0  0  0
  4  5  2  0  0  0  0
  5  6  1  0  0  0  0
  6  7  1  0  0  0  0
  6  8  1  0  0  0  0
  8  9  1  0  0  0  0
  9 10  1  0  0  0  0
 10 11  1  0  0  0  0
 11 12  1  0  0  0  0
  8 12  1  0  0  0  0
 12 13  1  0  0  0  0
 13 14  1  0  0  0  0
 14 15  1  0  0  0  0
 15 16  1  0  0  0  0
 11 16  1  0  0  0  0
 16 17  1  0  0  0  0
 17 18  2  0  0  0  0
 17 19  1  0  0  0  0
 19 20  2  0  0  0  0
 20 21  1  0  0  0  0
 15 21  1  0  0  0  0
 21 22  1  0  0  0  0
 22 23  1  0  0  0  0
 23 24  1  0  0  0  0
 24 25  1  0  0  0  0
 20 25  1  0  0  0  0
 24 26  1  0  0  0  0
 21 27  1  0  0  0  0
 12 28  1  0  0  0  0
  3 29  1  0  0  0  0
 29 30  1  0  0  0  0
 29 31  1  0  0  0  0
  1 32  1  0  0  0  0
  1 33  1  0  0  0  0
  1 34  1  0  0  0  0
  2 35  1  0  0  0  0
  2 36  1  0  0  0  0
  3 37  1  0  0  0  0
  4 38  1  0  0  0  0
  5 39  1  0  0  0  0
  6 40  1  0  0  0  0
  7 41  1  0  0  0  0
  7 42  1  0  0  0  0
  7 43  1  0  0  0  0
  8 44  1  0  0  0  0
  9 45  1  0  0  0  0
  9 46  1  0  0  0  0
 10 47  1  0  0  0  0
 10 48  1  0  0  0  0
 11 49  1  0  0  0  0
 13 50  1  0  0  0  0
 13 51  1  0  0  0  0
 14 52  1  0  0  0  0
 14 53  1  0  0  0  0
 15 54  1  0  0  0  0
 16 55  1  0  0  0  0
 19 56  1  0  0  0  0
 22 57  1  0  0  0  0
 22 58  1  0  0  0  0
 23 59  1  0  0  0  0
 23 60  1  0  0  0  0
 24 61  1  0  0  0  0
 25 62  1  0  0  0  0
 25 63  1  0  0  0  0
 26 64  1  0  0  0  0
 27 65  1  0  0  0  0
 27 66  1  0  0  0  0
 27 67  1  0  0  0  0
 28 68  1  0  0  0  0
 28 69  1  0  0  0  0
 28 70  1  0  0  0  0
 29 71  1  0  0  0  0
 30 72  1  0  0  0  0
 30 73  1  0  0  0  0
 30 74  1  0  0  0  0
 31 75  1  0  0  0  0
 31 76  1  0  0  0  0
 31 77  1  0  0  0  0
M  END
$$$$
