C40H62O
APtclcactv06291803073D 0   0.00000     0.00000
 
103103  0  0  0  0  0  0  0  0999 V2000
  -14.9482    1.3551    0.6948 C   0  0  0  0  0  0  0  0  0  0  0  0
  -15.4985    0.2223   -0.1328 C   0  0  0  0  0  0  0  0  0  0  0  0
  -14.6962   -0.4887   -0.8857 C   0  0  0  0  0  0  0  0  0  0  0  0
  -13.2071   -0.2664   -0.8198 C   0  0  0  0  0  0  0  0  0  0  0  0
  -12.5051   -1.5956   -0.5345 C   0  0  0  0  0  0  0  0  0  0  0  0
  -11.0161   -1.3733   -0.4687 C   0  0  0  0  0  0  0  0  0  0  0  0
  -10.4338   -1.1761    0.6881 C   0  0  0  0  0  0  0  0  0  0  0  0
   -8.9731   -0.8095    0.7436 C   0  0  0  0  0  0  0  0  0  0  0  0
   -8.7980    0.4635    1.5740 C   0  0  0  0  0  0  0  0  0  0  0  0
   -7.3373    0.8301    1.6295 C   0  0  0  0  0  0  0  0  0  0  0  0
   -6.8458    1.6938    0.7759 C   0  0  0  0  0  0  0  0  0  0  0  0
   -5.3603    1.9423    0.7262 C   0  0  0  0  0  0  0  0  0  0  0  0
   -4.8596    1.7560   -0.7075 C   0  0  0  0  0  0  0  0  0  0  0  0
   -3.3741    2.0045   -0.7571 C   0  0  0  0  0  0  0  0  0  0  0  0
   -2.5223    0.9801   -0.6654 C   0  0  0  0  0  0  0  0  0  0  0  0
   -1.0815    1.2212   -0.7135 C   0  0  0  0  0  0  0  0  0  0  0  0
   -0.2164    0.1808   -0.6203 C   0  0  0  0  0  0  0  0  0  0  0  0
    1.1730    0.4133   -0.6668 C   0  0  0  0  0  0  0  0  0  0  0  0
    2.0403   -0.6296   -0.5734 C   0  0  0  0  0  0  0  0  0  0  0  0
    1.5160   -2.0342   -0.4203 C   0  0  0  0  0  0  0  0  0  0  0  0
    3.4296   -0.3972   -0.6198 C   0  0  0  0  0  0  0  0  0  0  0  0
    4.2948   -1.4376   -0.5266 C   0  0  0  0  0  0  0  0  0  0  0  0
    5.7356   -1.1965   -0.5748 C   0  0  0  0  0  0  0  0  0  0  0  0
    6.5874   -2.2209   -0.4831 C   0  0  0  0  0  0  0  0  0  0  0  0
    6.0631   -3.6254   -0.3300 C   0  0  0  0  0  0  0  0  0  0  0  0
    8.0729   -1.9723   -0.5327 C   0  0  0  0  0  0  0  0  0  0  0  0
    8.6198   -1.8644    0.8922 C   0  0  0  0  0  0  0  0  0  0  0  0
   10.1053   -1.6158    0.8425 C   0  0  0  0  0  0  0  0  0  0  0  0
   10.6122   -0.5574    1.4247 C   0  0  0  0  0  0  0  0  0  0  0  0
    9.7005    0.4807    2.0265 C   0  0  0  0  0  0  0  0  0  0  0  0
   12.1069   -0.3778    1.4925 C   0  0  0  0  0  0  0  0  0  0  0  0
   12.5694    0.4941    0.3234 C   0  0  0  0  0  0  0  0  0  0  0  0
   14.0869    0.6764    0.3923 C   0  0  0  0  0  0  0  0  0  0  0  0
   14.7681    1.4231   -0.7563 C   0  0  0  0  0  0  0  0  0  0  0  0
   14.5921    2.0053    0.5368 O   0  0  0  0  0  0  0  0  0  0  0  0
   16.1787    0.9844   -1.1546 C   0  0  0  0  0  0  0  0  0  0  0  0
   13.8854    1.9367   -1.8956 C   0  0  0  0  0  0  0  0  0  0  0  0
   -2.8498    3.4090   -0.9102 C   0  0  0  0  0  0  0  0  0  0  0  0
   -6.4420    0.2032    2.6670 C   0  0  0  0  0  0  0  0  0  0  0  0
  -10.1969   -1.3779   -1.7336 C   0  0  0  0  0  0  0  0  0  0  0  0
  -16.9717   -0.0924   -0.0945 C   0  0  0  0  0  0  0  0  0  0  0  0
  -14.4023    2.0442    0.0504 H   0  0  0  0  0  0  0  0  0  0  0  0
  -15.7694    1.8837    1.1789 H   0  0  0  0  0  0  0  0  0  0  0  0
  -14.2749    0.9568    1.4538 H   0  0  0  0  0  0  0  0  0  0  0  0
  -15.1018   -1.2343   -1.5535 H   0  0  0  0  0  0  0  0  0  0  0  0
  -12.8569    0.1324   -1.7719 H   0  0  0  0  0  0  0  0  0  0  0  0
  -12.9804    0.4424   -0.0235 H   0  0  0  0  0  0  0  0  0  0  0  0
  -12.8554   -1.9945    0.4175 H   0  0  0  0  0  0  0  0  0  0  0  0
  -12.7318   -2.3045   -1.3309 H   0  0  0  0  0  0  0  0  0  0  0  0
  -11.0005   -1.2763    1.6019 H   0  0  0  0  0  0  0  0  0  0  0  0
   -8.4115   -1.6230    1.2029 H   0  0  0  0  0  0  0  0  0  0  0  0
   -8.6029   -0.6378   -0.2672 H   0  0  0  0  0  0  0  0  0  0  0  0
   -9.3595    1.2770    1.1147 H   0  0  0  0  0  0  0  0  0  0  0  0
   -9.1681    0.2918    2.5847 H   0  0  0  0  0  0  0  0  0  0  0  0
   -7.5053    2.2277    0.1077 H   0  0  0  0  0  0  0  0  0  0  0  0
   -5.1511    2.9604    1.0547 H   0  0  0  0  0  0  0  0  0  0  0  0
   -4.8517    1.2368    1.3833 H   0  0  0  0  0  0  0  0  0  0  0  0
   -5.0689    0.7379   -1.0359 H   0  0  0  0  0  0  0  0  0  0  0  0
   -5.3682    2.4615   -1.3645 H   0  0  0  0  0  0  0  0  0  0  0  0
   -2.8980   -0.0264   -0.5556 H   0  0  0  0  0  0  0  0  0  0  0  0
   -0.7057    2.2278   -0.8232 H   0  0  0  0  0  0  0  0  0  0  0  0
   -0.5921   -0.8257   -0.5106 H   0  0  0  0  0  0  0  0  0  0  0  0
    1.5487    1.4199   -0.7765 H   0  0  0  0  0  0  0  0  0  0  0  0
    1.3731   -2.4781   -1.4055 H   0  0  0  0  0  0  0  0  0  0  0  0
    2.2321   -2.6296    0.1461 H   0  0  0  0  0  0  0  0  0  0  0  0
    0.5636   -2.0108    0.1093 H   0  0  0  0  0  0  0  0  0  0  0  0
    3.8054    0.6094   -0.7295 H   0  0  0  0  0  0  0  0  0  0  0  0
    3.9190   -2.4442   -0.4169 H   0  0  0  0  0  0  0  0  0  0  0  0
    6.1113   -0.1899   -0.6845 H   0  0  0  0  0  0  0  0  0  0  0  0
    5.9202   -4.0693   -1.3152 H   0  0  0  0  0  0  0  0  0  0  0  0
    6.7792   -4.2208    0.2364 H   0  0  0  0  0  0  0  0  0  0  0  0
    5.1107   -3.6020    0.1996 H   0  0  0  0  0  0  0  0  0  0  0  0
    8.5625   -2.7986   -1.0482 H   0  0  0  0  0  0  0  0  0  0  0  0
    8.2682   -1.0432   -1.0682 H   0  0  0  0  0  0  0  0  0  0  0  0
    8.1302   -1.0382    1.4076 H   0  0  0  0  0  0  0  0  0  0  0  0
    8.4246   -2.7935    1.4276 H   0  0  0  0  0  0  0  0  0  0  0  0
   10.7521   -2.3103    0.3271 H   0  0  0  0  0  0  0  0  0  0  0  0
    9.4170    0.1753    3.0338 H   0  0  0  0  0  0  0  0  0  0  0  0
   10.2190    1.4385    2.0697 H   0  0  0  0  0  0  0  0  0  0  0  0
    8.8060    0.5792    1.4115 H   0  0  0  0  0  0  0  0  0  0  0  0
   12.3725    0.1048    2.4330 H   0  0  0  0  0  0  0  0  0  0  0  0
   12.5928   -1.3517    1.4339 H   0  0  0  0  0  0  0  0  0  0  0  0
   12.3037    0.0114   -0.6171 H   0  0  0  0  0  0  0  0  0  0  0  0
   12.0834    1.4680    0.3820 H   0  0  0  0  0  0  0  0  0  0  0  0
   14.6392   -0.1326    0.8705 H   0  0  0  0  0  0  0  0  0  0  0  0
   16.1603   -0.0605   -1.4646 H   0  0  0  0  0  0  0  0  0  0  0  0
   16.5319    1.6022   -1.9802 H   0  0  0  0  0  0  0  0  0  0  0  0
   16.8490    1.0988   -0.3026 H   0  0  0  0  0  0  0  0  0  0  0  0
   13.1491    2.6351   -1.4981 H   0  0  0  0  0  0  0  0  0  0  0  0
   14.5052    2.4438   -2.6351 H   0  0  0  0  0  0  0  0  0  0  0  0
   13.3732    1.0969   -2.3652 H   0  0  0  0  0  0  0  0  0  0  0  0
   -2.7069    3.8529    0.0750 H   0  0  0  0  0  0  0  0  0  0  0  0
   -1.8974    3.3856   -1.4398 H   0  0  0  0  0  0  0  0  0  0  0  0
   -3.5659    4.0045   -1.4765 H   0  0  0  0  0  0  0  0  0  0  0  0
   -5.9391   -0.6632    2.2373 H   0  0  0  0  0  0  0  0  0  0  0  0
   -5.6983    0.9306    2.9925 H   0  0  0  0  0  0  0  0  0  0  0  0
   -7.0410   -0.1113    3.5216 H   0  0  0  0  0  0  0  0  0  0  0  0
  -10.0927   -0.3576   -2.1027 H   0  0  0  0  0  0  0  0  0  0  0  0
   -9.2101   -1.7917   -1.5260 H   0  0  0  0  0  0  0  0  0  0  0  0
  -10.6954   -1.9877   -2.4871 H   0  0  0  0  0  0  0  0  0  0  0  0
  -17.4858    0.4798   -0.8667 H   0  0  0  0  0  0  0  0  0  0  0  0
  -17.1204   -1.1576   -0.2720 H   0  0  0  0  0  0  0  0  0  0  0  0
  -17.3746    0.1727    0.8830 H   0  0  0  0  0  0  0  0  0  0  0  0
  1  2  1  0  0  0  0
  2  3  2  0  0  0  0
  3  4  1  0  0  0  0
  4  5  1  0  0  0  0
  5  6  1  0  0  0  0
  6  7  2  0  0  0  0
  7  8  1  0  0  0  0
  8  9  1  0  0  0  0
  9 10  1  0  0  0  0
 10 11  2  0  0  0  0
 11 12  1  0  0  0  0
 12 13  1  0  0  0  0
 13 14  1  0  0  0  0
 14 15  2  0  0  0  0
 15 16  1  0  0  0  0
 16 17  2  0  0  0  0
 17 18  1  0  0  0  0
 18 19  2  0  0  0  0
 19 20  1  0  0  0  0
 19 21  1  0  0  0  0
 21 22  2  0  0  0  0
 22 23  1  0  0  0  0
 23 24  2  0  0  0  0
 24 25  1  0  0  0  0
 24 26  1  0  0  0  0
 26 27  1  0  0  0  0
 27 28  1  0  0  0  0
 28 29  2  0  0  0  0
 29 30  1  0  0  0  0
 29 31  1  0  0  0  0
 31 32  1  0  0  0  0
 32 33  1  0  0  0  0
 33 34  1  0  0  0  0
 34 35  1  0  0  0  0
 33 35  1  0  0  0  0
 34 36  1  0  0  0  0
 34 37  1  0  0  0  0
 14 38  1  0  0  0  0
 10 39  1  0  0  0  0
  6 40  1  0  0  0  0
  2 41  1  0  0  0  0
  1 42  1  0  0  0  0
  1 43  1  0  0  0  0
  1 44  1  0  0  0  0
  3 45  1  0  0  0  0
  4 46  1  0  0  0  0
  4 47  1  0  0  0  0
  5 48  1  0  0  0  0
  5 49  1  0  0  0  0
  7 50  1  0  0  0  0
  8 51  1  0  0  0  0
  8 52  1  0  0  0  0
  9 53  1  0  0  0  0
  9 54  1  0  0  0  0
 11 55  1  0  0  0  0
 12 56  1  0  0  0  0
 12 57  1  0  0  0  0
 13 58  1  0  0  0  0
 13 59  1  0  0  0  0
 15 60  1  0  0  0  0
 16 61  1  0  0  0  0
 17 62  1  0  0  0  0
 18 63  1  0  0  0  0
 20 64  1  0  0  0  0
 20 65  1  0  0  0  0
 20 66  1  0  0  0  0
 21 67  1  0  0  0  0
 22 68  1  0  0  0  0
 23 69  1  0  0  0  0
 25 70  1  0  0  0  0
 25 71  1  0  0  0  0
 25 72  1  0  0  0  0
 26 73  1  0  0  0  0
 26 74  1  0  0  0  0
 27 75  1  0  0  0  0
 27 76  1  0  0  0  0
 28 77  1  0  0  0  0
 30 78  1  0  0  0  0
 30 79  1  0  0  0  0
 30 80  1  0  0  0  0
 31 81  1  0  0  0  0
 31 82  1  0  0  0  0
 32 83  1  0  0  0  0
 32 84  1  0  0  0  0
 33 85  1  0  0  0  0
 36 86  1  0  0  0  0
 36 87  1  0  0  0  0
 36 88  1  0  0  0  0
 37 89  1  0  0  0  0
 37 90  1  0  0  0  0
 37 91  1  0  0  0  0
 38 92  1  0  0  0  0
 38 93  1  0  0  0  0
 38 94  1  0  0  0  0
 39 95  1  0  0  0  0
 39 96  1  0  0  0  0
 39 97  1  0  0  0  0
 40 98  1  0  0  0  0
 40 99  1  0  0  0  0
 40100  1  0  0  0  0
 41101  1  0  0  0  0
 41102  1  0  0  0  0
 41103  1  0  0  0  0
M  END
$$$$
