C38H36O21
APtclcactv06291803133D 0   0.00000     0.00000
 
 95100  0  0  0  0  0  0  0  0999 V2000
   -4.1075   -5.9782    3.5745 C   0  0  0  0  0  0  0  0  0  0  0  0
   -4.8106   -5.4557    2.4455 O   0  0  0  0  0  0  0  0  0  0  0  0
   -4.0701   -4.8266    1.4939 C   0  0  0  0  0  0  0  0  0  0  0  0
   -4.6927   -4.2932    0.3659 C   0  0  0  0  0  0  0  0  0  0  0  0
   -3.9406   -3.6500   -0.6084 C   0  0  0  0  0  0  0  0  0  0  0  0
   -2.5755   -3.5354   -0.4658 C   0  0  0  0  0  0  0  0  0  0  0  0
   -1.9432   -4.0677    0.6638 C   0  0  0  0  0  0  0  0  0  0  0  0
   -2.7028   -4.7113    1.6479 C   0  0  0  0  0  0  0  0  0  0  0  0
   -0.4868   -3.9470    0.8186 C   0  0  0  0  0  0  0  0  0  0  0  0
    0.2438   -3.3214   -0.1301 C   0  0  0  0  0  0  0  0  0  0  0  0
    1.6489   -3.2049    0.0193 C   0  0  0  0  0  0  0  0  0  0  0  0
    2.1966   -3.6682    1.0018 O   0  0  0  0  0  0  0  0  0  0  0  0
    2.3786   -2.5802   -0.9282 O   0  0  0  0  0  0  0  0  0  0  0  0
    3.7890   -2.4993   -0.7127 C   0  0  0  0  0  0  0  0  0  0  0  0
    4.5130   -2.4843   -2.0624 C   0  0  0  0  0  0  0  0  0  0  0  0
    6.0166   -2.3191   -1.8209 C   0  0  0  0  0  0  0  0  0  0  0  0
    6.2589   -1.0388   -1.0173 C   0  0  0  0  0  0  0  0  0  0  0  0
    5.5328   -1.1049    0.2118 O   0  0  0  0  0  0  0  0  0  0  0  0
    4.1173   -1.2121    0.0481 C   0  0  0  0  0  0  0  0  0  0  0  0
    3.6362   -0.0867   -0.6895 O   0  0  0  0  0  0  0  0  0  0  0  0
    3.7928    1.1620   -0.0125 C   0  0  0  0  0  0  0  0  0  0  0  0
    3.9784    2.2821   -1.0408 C   0  0  0  0  0  0  0  0  0  0  0  0
    4.0670    3.6239   -0.3075 C   0  0  0  0  0  0  0  0  0  0  0  0
    2.8075    3.8171    0.5411 C   0  0  0  0  0  0  0  0  0  0  0  0
    2.6783    2.7259    1.4546 O   0  0  0  0  0  0  0  0  0  0  0  0
    2.5439    1.4503    0.8246 C   0  0  0  0  0  0  0  0  0  0  0  0
    1.3931    1.4561   -0.0226 O   0  0  0  0  0  0  0  0  0  0  0  0
    0.1847    1.5954    0.5800 C   0  0  0  0  0  0  0  0  0  0  0  0
    0.1157    1.7236    1.9627 C   0  0  0  0  0  0  0  0  0  0  0  0
   -1.1100    1.8665    2.5869 C   0  0  0  0  0  0  0  0  0  0  0  0
   -2.2788    1.8809    1.8160 C   0  0  0  0  0  0  0  0  0  0  0  0
   -2.2062    1.7511    0.4182 C   0  0  0  0  0  0  0  0  0  0  0  0
   -0.9683    1.6141   -0.1898 C   0  0  0  0  0  0  0  0  0  0  0  0
   -3.3389    1.7648   -0.3161 O   0  0  0  0  0  0  0  0  0  0  0  0
   -4.5529    1.8993    0.2410 C   0  0  0  0  0  0  0  0  0  0  0  0
   -4.7309    2.0316    1.5831 C   0  0  0  0  0  0  0  0  0  0  0  0
   -3.6046    2.0303    2.4397 C   0  0  0  0  0  0  0  0  0  0  0  0
   -3.7272    2.1468    3.6484 O   0  0  0  0  0  0  0  0  0  0  0  0
   -5.7391    1.9045   -0.6357 C   0  0  0  0  0  0  0  0  0  0  0  0
   -5.5885    1.7710   -2.0188 C   0  0  0  0  0  0  0  0  0  0  0  0
   -6.7029    1.7759   -2.8354 C   0  0  0  0  0  0  0  0  0  0  0  0
   -7.9736    1.9143   -2.2797 C   0  0  0  0  0  0  0  0  0  0  0  0
   -8.1234    2.0469   -0.9061 C   0  0  0  0  0  0  0  0  0  0  0  0
   -7.0166    2.0370   -0.0849 C   0  0  0  0  0  0  0  0  0  0  0  0
   -9.0682    1.9198   -3.0843 O   0  0  0  0  0  0  0  0  0  0  0  0
   -6.5599    1.6462   -4.1817 O   0  0  0  0  0  0  0  0  0  0  0  0
   -5.2286    1.5090   -4.6824 C   0  0  0  0  0  0  0  0  0  0  0  0
   -1.1796    1.9914    3.9365 O   0  0  0  0  0  0  0  0  0  0  0  0
    2.9137    5.1078    1.3117 C   0  0  0  0  0  0  0  0  0  0  0  0
    2.9720    5.0879    2.5184 O   0  0  0  0  0  0  0  0  0  0  0  0
    2.9436    6.2795    0.6575 O   0  0  0  0  0  0  0  0  0  0  0  0
    5.2185    3.6305    0.5387 O   0  0  0  0  0  0  0  0  0  0  0  0
    5.1823    2.0596   -1.7779 O   0  0  0  0  0  0  0  0  0  0  0  0
    7.7307   -0.9000   -0.7247 C   0  0  0  0  0  0  0  0  0  0  0  0
    8.1275   -0.9513    0.4154 O   0  0  0  0  0  0  0  0  0  0  0  0
    8.6008   -0.7194   -1.7307 O   0  0  0  0  0  0  0  0  0  0  0  0
    6.5089   -3.4430   -1.0885 O   0  0  0  0  0  0  0  0  0  0  0  0
    4.2713   -3.7144   -2.7483 O   0  0  0  0  0  0  0  0  0  0  0  0
   -6.0384   -4.4035    0.2194 O   0  0  0  0  0  0  0  0  0  0  0  0
   -3.5954   -5.1664    4.0911 H   0  0  0  0  0  0  0  0  0  0  0  0
   -4.8144   -6.4530    4.2548 H   0  0  0  0  0  0  0  0  0  0  0  0
   -3.3764   -6.7136    3.2387 H   0  0  0  0  0  0  0  0  0  0  0  0
   -4.4275   -3.2389   -1.4804 H   0  0  0  0  0  0  0  0  0  0  0  0
   -1.9931   -3.0353   -1.2255 H   0  0  0  0  0  0  0  0  0  0  0  0
   -2.2196   -5.1234    2.5215 H   0  0  0  0  0  0  0  0  0  0  0  0
   -0.0005   -4.3583    1.6909 H   0  0  0  0  0  0  0  0  0  0  0  0
   -0.2424   -2.9101   -1.0023 H   0  0  0  0  0  0  0  0  0  0  0  0
    4.1187   -3.3609   -0.1320 H   0  0  0  0  0  0  0  0  0  0  0  0
    4.1467   -1.6520   -2.6635 H   0  0  0  0  0  0  0  0  0  0  0  0
    6.5340   -2.2519   -2.7780 H   0  0  0  0  0  0  0  0  0  0  0  0
    5.9200   -0.1781   -1.5939 H   0  0  0  0  0  0  0  0  0  0  0  0
    3.6390   -1.2365    1.0273 H   0  0  0  0  0  0  0  0  0  0  0  0
    4.6661    1.1166    0.6382 H   0  0  0  0  0  0  0  0  0  0  0  0
    3.1286    2.2950   -1.7233 H   0  0  0  0  0  0  0  0  0  0  0  0
    4.1437    4.4322   -1.0348 H   0  0  0  0  0  0  0  0  0  0  0  0
    1.9332    3.8525   -0.1089 H   0  0  0  0  0  0  0  0  0  0  0  0
    2.4308    0.6788    1.5863 H   0  0  0  0  0  0  0  0  0  0  0  0
    1.0215    1.7113    2.5508 H   0  0  0  0  0  0  0  0  0  0  0  0
   -0.9024    1.5137   -1.2631 H   0  0  0  0  0  0  0  0  0  0  0  0
   -5.7248    2.1380    1.9919 H   0  0  0  0  0  0  0  0  0  0  0  0
   -4.6032    1.6645   -2.4482 H   0  0  0  0  0  0  0  0  0  0  0  0
   -9.1098    2.1542   -0.4795 H   0  0  0  0  0  0  0  0  0  0  0  0
   -7.1360    2.1403    0.9835 H   0  0  0  0  0  0  0  0  0  0  0  0
   -9.4467    1.0436   -3.2396 H   0  0  0  0  0  0  0  0  0  0  0  0
   -5.2566    1.4144   -5.7679 H   0  0  0  0  0  0  0  0  0  0  0  0
   -4.6452    2.3883   -4.4093 H   0  0  0  0  0  0  0  0  0  0  0  0
   -4.7683    0.6196   -4.2520 H   0  0  0  0  0  0  0  0  0  0  0  0
   -1.1371    2.9054    4.2496 H   0  0  0  0  0  0  0  0  0  0  0  0
    3.0124    7.0806    1.1947 H   0  0  0  0  0  0  0  0  0  0  0  0
    5.3373    4.4520    1.0349 H   0  0  0  0  0  0  0  0  0  0  0  0
    5.3630    2.7327   -2.4483 H   0  0  0  0  0  0  0  0  0  0  0  0
    9.5346   -0.6356   -1.4938 H   0  0  0  0  0  0  0  0  0  0  0  0
    7.4566   -3.4050   -0.8997 H   0  0  0  0  0  0  0  0  0  0  0  0
    4.7010   -3.7738   -3.6126 H   0  0  0  0  0  0  0  0  0  0  0  0
   -6.5371   -3.6677    0.6002 H   0  0  0  0  0  0  0  0  0  0  0  0
  1  2  1  0  0  0  0
  2  3  1  0  0  0  0
  3  4  2  0  0  0  0
  4  5  1  0  0  0  0
  5  6  2  0  0  0  0
  6  7  1  0  0  0  0
  7  8  2  0  0  0  0
  3  8  1  0  0  0  0
  7  9  1  0  0  0  0
  9 10  2  0  0  0  0
 10 11  1  0  0  0  0
 11 12  2  0  0  0  0
 11 13  1  0  0  0  0
 13 14  1  0  0  0  0
 14 15  1  0  0  0  0
 15 16  1  0  0  0  0
 16 17  1  0  0  0  0
 17 18  1  0  0  0  0
 18 19  1  0  0  0  0
 14 19  1  0  0  0  0
 19 20  1  0  0  0  0
 20 21  1  0  0  0  0
 21 22  1  0  0  0  0
 22 23  1  0  0  0  0
 23 24  1  0  0  0  0
 24 25  1  0  0  0  0
 25 26  1  0  0  0  0
 21 26  1  0  0  0  0
 26 27  1  0  0  0  0
 27 28  1  0  0  0  0
 28 29  2  0  0  0  0
 29 30  1  0  0  0  0
 30 31  2  0  0  0  0
 31 32  1  0  0  0  0
 32 33  2  0  0  0  0
 28 33  1  0  0  0  0
 32 34  1  0  0  0  0
 34 35  1  0  0  0  0
 35 36  2  0  0  0  0
 36 37  1  0  0  0  0
 31 37  1  0  0  0  0
 37 38  2  0  0  0  0
 35 39  1  0  0  0  0
 39 40  2  0  0  0  0
 40 41  1  0  0  0  0
 41 42  2  0  0  0  0
 42 43  1  0  0  0  0
 43 44  2  0  0  0  0
 39 44  1  0  0  0  0
 42 45  1  0  0  0  0
 41 46  1  0  0  0  0
 46 47  1  0  0  0  0
 30 48  1  0  0  0  0
 24 49  1  0  0  0  0
 49 50  2  0  0  0  0
 49 51  1  0  0  0  0
 23 52  1  0  0  0  0
 22 53  1  0  0  0  0
 17 54  1  0  0  0  0
 54 55  2  0  0  0  0
 54 56  1  0  0  0  0
 16 57  1  0  0  0  0
 15 58  1  0  0  0  0
  4 59  1  0  0  0  0
  1 60  1  0  0  0  0
  1 61  1  0  0  0  0
  1 62  1  0  0  0  0
  5 63  1  0  0  0  0
  6 64  1  0  0  0  0
  8 65  1  0  0  0  0
  9 66  1  0  0  0  0
 10 67  1  0  0  0  0
 14 68  1  0  0  0  0
 15 69  1  0  0  0  0
 16 70  1  0  0  0  0
 17 71  1  0  0  0  0
 19 72  1  0  0  0  0
 21 73  1  0  0  0  0
 22 74  1  0  0  0  0
 23 75  1  0  0  0  0
 24 76  1  0  0  0  0
 26 77  1  0  0  0  0
 29 78  1  0  0  0  0
 33 79  1  0  0  0  0
 36 80  1  0  0  0  0
 40 81  1  0  0  0  0
 43 82  1  0  0  0  0
 44 83  1  0  0  0  0
 45 84  1  0  0  0  0
 47 85  1  0  0  0  0
 47 86  1  0  0  0  0
 47 87  1  0  0  0  0
 48 88  1  0  0  0  0
 51 89  1  0  0  0  0
 52 90  1  0  0  0  0
 53 91  1  0  0  0  0
 56 92  1  0  0  0  0
 57 93  1  0  0  0  0
 58 94  1  0  0  0  0
 59 95  1  0  0  0  0
M  END
$$$$
