C44H50O25
APtclcactv06291803123D 0   0.00000     0.00000
 
119125  0  0  0  0  0  0  0  0999 V2000
    5.1557   -8.1494    2.2625 C   0  0  0  0  0  0  0  0  0  0  0  0
    5.4015   -8.1850    0.8553 O   0  0  0  0  0  0  0  0  0  0  0  0
    5.4967   -6.9891    0.2147 C   0  0  0  0  0  0  0  0  0  0  0  0
    5.3566   -5.8125    0.9256 C   0  0  0  0  0  0  0  0  0  0  0  0
    5.4553   -4.5822    0.2655 C   0  0  0  0  0  0  0  0  0  0  0  0
    5.6956   -4.5487   -1.1129 C   0  0  0  0  0  0  0  0  0  0  0  0
    5.8346   -5.7294   -1.8171 C   0  0  0  0  0  0  0  0  0  0  0  0
    5.7411   -6.9517   -1.1559 C   0  0  0  0  0  0  0  0  0  0  0  0
    5.8783   -8.1110   -1.8518 O   0  0  0  0  0  0  0  0  0  0  0  0
    6.0682   -5.6979   -3.1565 O   0  0  0  0  0  0  0  0  0  0  0  0
    6.1578   -4.4100   -3.7693 C   0  0  0  0  0  0  0  0  0  0  0  0
    5.3064   -3.3287    1.0179 C   0  0  0  0  0  0  0  0  0  0  0  0
    5.4019   -2.1420    0.3792 C   0  0  0  0  0  0  0  0  0  0  0  0
    5.2583   -0.9327    1.1050 C   0  0  0  0  0  0  0  0  0  0  0  0
    5.0490   -0.9635    2.3030 O   0  0  0  0  0  0  0  0  0  0  0  0
    5.3537    0.2525    0.4671 O   0  0  0  0  0  0  0  0  0  0  0  0
    5.1986    1.4307    1.2606 C   0  0  0  0  0  0  0  0  0  0  0  0
    6.0224    2.5698    0.6521 C   0  0  0  0  0  0  0  0  0  0  0  0
    5.7871    3.8463    1.4655 C   0  0  0  0  0  0  0  0  0  0  0  0
    4.2888    4.1598    1.4865 C   0  0  0  0  0  0  0  0  0  0  0  0
    3.5785    3.0479    2.0354 O   0  0  0  0  0  0  0  0  0  0  0  0
    3.7230    1.8375    1.2896 C   0  0  0  0  0  0  0  0  0  0  0  0
    3.2590    2.0426   -0.0463 O   0  0  0  0  0  0  0  0  0  0  0  0
    1.9127    2.1282   -0.2265 C   0  0  0  0  0  0  0  0  0  0  0  0
    1.3569    3.2709   -0.7183 C   0  0  0  0  0  0  0  0  0  0  0  0
    0.0337    3.4028   -0.9138 O   0  0  0  0  0  0  0  0  0  0  0  0
   -0.8391    2.4114   -0.6367 C   0  0  0  0  0  0  0  0  0  0  0  0
   -2.1979    2.5825   -0.8516 C   0  0  0  0  0  0  0  0  0  0  0  0
   -3.0814    1.5544   -0.5617 C   0  0  0  0  0  0  0  0  0  0  0  0
   -2.6198    0.3447   -0.0544 C   0  0  0  0  0  0  0  0  0  0  0  0
   -1.2683    0.1546    0.1664 C   0  0  0  0  0  0  0  0  0  0  0  0
   -0.3695    1.1891   -0.1243 C   0  0  0  0  0  0  0  0  0  0  0  0
    1.0772    1.0261    0.0908 C   0  0  0  0  0  0  0  0  0  0  0  0
    1.5399   -0.0152    0.5288 O   0  0  0  0  0  0  0  0  0  0  0  0
   -0.8158   -1.0251    0.6619 O   0  0  0  0  0  0  0  0  0  0  0  0
   -4.4106    1.7303   -0.7748 O   0  0  0  0  0  0  0  0  0  0  0  0
   -5.2694    0.6335   -0.4563 C   0  0  0  0  0  0  0  0  0  0  0  0
   -6.7288    1.0572   -0.6419 C   0  0  0  0  0  0  0  0  0  0  0  0
   -6.9639    1.4203   -2.1114 C   0  0  0  0  0  0  0  0  0  0  0  0
   -6.5907    0.2210   -2.9882 C   0  0  0  0  0  0  0  0  0  0  0  0
   -5.1367   -0.1704   -2.7119 C   0  0  0  0  0  0  0  0  0  0  0  0
   -4.9800   -0.4656   -1.3225 O   0  0  0  0  0  0  0  0  0  0  0  0
   -4.7745   -1.4050   -3.5398 C   0  0  0  0  0  0  0  0  0  0  0  0
   -3.3867   -1.7009   -3.3717 O   0  0  0  0  0  0  0  0  0  0  0  0
   -7.4483   -0.8802   -2.6813 O   0  0  0  0  0  0  0  0  0  0  0  0
   -8.3411    1.7466   -2.3087 O   0  0  0  0  0  0  0  0  0  0  0  0
   -7.5900   -0.0218   -0.2729 O   0  0  0  0  0  0  0  0  0  0  0  0
   -7.9681   -0.0185    1.1051 C   0  0  0  0  0  0  0  0  0  0  0  0
   -8.9826   -1.1365    1.3589 C   0  0  0  0  0  0  0  0  0  0  0  0
   -8.3266   -2.4881    1.0601 C   0  0  0  0  0  0  0  0  0  0  0  0
   -7.0705   -2.6357    1.9243 C   0  0  0  0  0  0  0  0  0  0  0  0
   -6.1299   -1.4597    1.6488 C   0  0  0  0  0  0  0  0  0  0  0  0
   -6.8118   -0.2329    1.9171 O   0  0  0  0  0  0  0  0  0  0  0  0
   -4.8997   -1.5678    2.5521 C   0  0  0  0  0  0  0  0  0  0  0  0
   -3.9688   -0.5376    2.2144 O   0  0  0  0  0  0  0  0  0  0  0  0
   -7.4386   -2.6394    3.3051 O   0  0  0  0  0  0  0  0  0  0  0  0
   -9.2427   -3.5418    1.3643 O   0  0  0  0  0  0  0  0  0  0  0  0
   -9.4013   -1.1005    2.7247 O   0  0  0  0  0  0  0  0  0  0  0  0
    2.2397    4.4050   -1.0477 C   0  0  0  0  0  0  0  0  0  0  0  0
    3.3952    4.1966   -1.8063 C   0  0  0  0  0  0  0  0  0  0  0  0
    4.2170    5.2590   -2.1117 C   0  0  0  0  0  0  0  0  0  0  0  0
    3.8991    6.5364   -1.6665 C   0  0  0  0  0  0  0  0  0  0  0  0
    2.7518    6.7481   -0.9118 C   0  0  0  0  0  0  0  0  0  0  0  0
    1.9206    5.6928   -0.6073 C   0  0  0  0  0  0  0  0  0  0  0  0
    4.7124    7.5807   -1.9695 O   0  0  0  0  0  0  0  0  0  0  0  0
    4.0390    5.3999    2.3470 C   0  0  0  0  0  0  0  0  0  0  0  0
    2.6584    5.7610    2.2728 O   0  0  0  0  0  0  0  0  0  0  0  0
    6.2534    3.6534    2.8024 O   0  0  0  0  0  0  0  0  0  0  0  0
    7.4096    2.2287    0.6884 O   0  0  0  0  0  0  0  0  0  0  0  0
    5.9652   -7.6147    2.7594 H   0  0  0  0  0  0  0  0  0  0  0  0
    4.2118   -7.6388    2.4537 H   0  0  0  0  0  0  0  0  0  0  0  0
    5.1025   -9.1677    2.6479 H   0  0  0  0  0  0  0  0  0  0  0  0
    5.1709   -5.8422    1.9891 H   0  0  0  0  0  0  0  0  0  0  0  0
    5.7720   -3.6012   -1.6256 H   0  0  0  0  0  0  0  0  0  0  0  0
    6.7887   -8.4327   -1.9046 H   0  0  0  0  0  0  0  0  0  0  0  0
    6.3458   -4.5277   -4.8365 H   0  0  0  0  0  0  0  0  0  0  0  0
    5.2213   -3.8719   -3.6225 H   0  0  0  0  0  0  0  0  0  0  0  0
    6.9746   -3.8481   -3.3163 H   0  0  0  0  0  0  0  0  0  0  0  0
    5.1206   -3.3561    2.0815 H   0  0  0  0  0  0  0  0  0  0  0  0
    5.5877   -2.1147   -0.6844 H   0  0  0  0  0  0  0  0  0  0  0  0
    5.5432    1.2340    2.2759 H   0  0  0  0  0  0  0  0  0  0  0  0
    5.7125    2.7328   -0.3801 H   0  0  0  0  0  0  0  0  0  0  0  0
    6.3263    4.6751    1.0067 H   0  0  0  0  0  0  0  0  0  0  0  0
    3.9422    4.3466    0.4701 H   0  0  0  0  0  0  0  0  0  0  0  0
    3.1375    1.0481    1.7608 H   0  0  0  0  0  0  0  0  0  0  0  0
   -2.5685    3.5176   -1.2449 H   0  0  0  0  0  0  0  0  0  0  0  0
   -3.3187   -0.4480    0.1680 H   0  0  0  0  0  0  0  0  0  0  0  0
   -0.5940   -1.6775   -0.0165 H   0  0  0  0  0  0  0  0  0  0  0  0
   -5.1070    0.3333    0.5789 H   0  0  0  0  0  0  0  0  0  0  0  0
   -6.9393    1.9234   -0.0146 H   0  0  0  0  0  0  0  0  0  0  0  0
   -6.3433    2.2752   -2.3796 H   0  0  0  0  0  0  0  0  0  0  0  0
   -6.7025    0.4891   -4.0388 H   0  0  0  0  0  0  0  0  0  0  0  0
   -4.4799    0.6557   -2.9844 H   0  0  0  0  0  0  0  0  0  0  0  0
   -5.3702   -2.2543   -3.2053 H   0  0  0  0  0  0  0  0  0  0  0  0
   -4.9794   -1.2095   -4.5924 H   0  0  0  0  0  0  0  0  0  0  0  0
   -3.0862   -2.4738   -3.8692 H   0  0  0  0  0  0  0  0  0  0  0  0
   -7.2680   -1.6757   -3.2006 H   0  0  0  0  0  0  0  0  0  0  0  0
   -8.5619    1.9869   -3.2190 H   0  0  0  0  0  0  0  0  0  0  0  0
   -8.4160    0.9428    1.3569 H   0  0  0  0  0  0  0  0  0  0  0  0
   -9.8463   -0.9992    0.7084 H   0  0  0  0  0  0  0  0  0  0  0  0
   -8.0517   -2.5350    0.0064 H   0  0  0  0  0  0  0  0  0  0  0  0
   -6.5668   -3.5705    1.6782 H   0  0  0  0  0  0  0  0  0  0  0  0
   -5.8174   -1.4811    0.6047 H   0  0  0  0  0  0  0  0  0  0  0  0
   -5.2026   -1.4568    3.5932 H   0  0  0  0  0  0  0  0  0  0  0  0
   -4.4305   -2.5416    2.4120 H   0  0  0  0  0  0  0  0  0  0  0  0
   -3.1627   -0.5454    2.7485 H   0  0  0  0  0  0  0  0  0  0  0  0
   -8.0390   -3.3567    3.5502 H   0  0  0  0  0  0  0  0  0  0  0  0
  -10.0653   -3.5064    0.8573 H   0  0  0  0  0  0  0  0  0  0  0  0
   -9.8219   -0.2697    2.9853 H   0  0  0  0  0  0  0  0  0  0  0  0
    3.6434    3.2040   -2.1522 H   0  0  0  0  0  0  0  0  0  0  0  0
    5.1099    5.0990   -2.6977 H   0  0  0  0  0  0  0  0  0  0  0  0
    2.5090    7.7425   -0.5672 H   0  0  0  0  0  0  0  0  0  0  0  0
    1.0289    5.8583   -0.0209 H   0  0  0  0  0  0  0  0  0  0  0  0
    4.4878    8.0268   -2.7976 H   0  0  0  0  0  0  0  0  0  0  0  0
    4.3027    5.1830    3.3822 H   0  0  0  0  0  0  0  0  0  0  0  0
    4.6505    6.2249    1.9816 H   0  0  0  0  0  0  0  0  0  0  0  0
    2.4272    6.5410    2.7956 H   0  0  0  0  0  0  0  0  0  0  0  0
    6.1356    4.4237    3.3750 H   0  0  0  0  0  0  0  0  0  0  0  0
    7.9912    2.9068    0.3180 H   0  0  0  0  0  0  0  0  0  0  0  0
  1  2  1  0  0  0  0
  2  3  1  0  0  0  0
  3  4  2  0  0  0  0
  4  5  1  0  0  0  0
  5  6  2  0  0  0  0
  6  7  1  0  0  0  0
  7  8  2  0  0  0  0
  3  8  1  0  0  0  0
  8  9  1  0  0  0  0
  7 10  1  0  0  0  0
 10 11  1  0  0  0  0
  5 12  1  0  0  0  0
 12 13  2  0  0  0  0
 13 14  1  0  0  0  0
 14 15  2  0  0  0  0
 14 16  1  0  0  0  0
 16 17  1  0  0  0  0
 17 18  1  0  0  0  0
 18 19  1  0  0  0  0
 19 20  1  0  0  0  0
 20 21  1  0  0  0  0
 21 22  1  0  0  0  0
 17 22  1  0  0  0  0
 22 23  1  0  0  0  0
 23 24  1  0  0  0  0
 24 25  2  0  0  0  0
 25 26  1  0  0  0  0
 26 27  1  0  0  0  0
 27 28  2  0  0  0  0
 28 29  1  0  0  0  0
 29 30  2  0  0  0  0
 30 31  1  0  0  0  0
 31 32  2  0  0  0  0
 27 32  1  0  0  0  0
 32 33  1  0  0  0  0
 24 33  1  0  0  0  0
 33 34  2  0  0  0  0
 31 35  1  0  0  0  0
 29 36  1  0  0  0  0
 36 37  1  0  0  0  0
 37 38  1  0  0  0  0
 38 39  1  0  0  0  0
 39 40  1  0  0  0  0
 40 41  1  0  0  0  0
 41 42  1  0  0  0  0
 37 42  1  0  0  0  0
 41 43  1  0  0  0  0
 43 44  1  0  0  0  0
 40 45  1  0  0  0  0
 39 46  1  0  0  0  0
 38 47  1  0  0  0  0
 47 48  1  0  0  0  0
 48 49  1  0  0  0  0
 49 50  1  0  0  0  0
 50 51  1  0  0  0  0
 51 52  1  0  0  0  0
 52 53  1  0  0  0  0
 48 53  1  0  0  0  0
 52 54  1  0  0  0  0
 54 55  1  0  0  0  0
 51 56  1  0  0  0  0
 50 57  1  0  0  0  0
 49 58  1  0  0  0  0
 25 59  1  0  0  0  0
 59 60  2  0  0  0  0
 60 61  1  0  0  0  0
 61 62  2  0  0  0  0
 62 63  1  0  0  0  0
 63 64  2  0  0  0  0
 59 64  1  0  0  0  0
 62 65  1  0  0  0  0
 20 66  1  0  0  0  0
 66 67  1  0  0  0  0
 19 68  1  0  0  0  0
 18 69  1  0  0  0  0
  1 70  1  0  0  0  0
  1 71  1  0  0  0  0
  1 72  1  0  0  0  0
  4 73  1  0  0  0  0
  6 74  1  0  0  0  0
  9 75  1  0  0  0  0
 11 76  1  0  0  0  0
 11 77  1  0  0  0  0
 11 78  1  0  0  0  0
 12 79  1  0  0  0  0
 13 80  1  0  0  0  0
 17 81  1  0  0  0  0
 18 82  1  0  0  0  0
 19 83  1  0  0  0  0
 20 84  1  0  0  0  0
 22 85  1  0  0  0  0
 28 86  1  0  0  0  0
 30 87  1  0  0  0  0
 35 88  1  0  0  0  0
 37 89  1  0  0  0  0
 38 90  1  0  0  0  0
 39 91  1  0  0  0  0
 40 92  1  0  0  0  0
 41 93  1  0  0  0  0
 43 94  1  0  0  0  0
 43 95  1  0  0  0  0
 44 96  1  0  0  0  0
 45 97  1  0  0  0  0
 46 98  1  0  0  0  0
 48 99  1  0  0  0  0
 49100  1  0  0  0  0
 50101  1  0  0  0  0
 51102  1  0  0  0  0
 52103  1  0  0  0  0
 54104  1  0  0  0  0
 54105  1  0  0  0  0
 55106  1  0  0  0  0
 56107  1  0  0  0  0
 57108  1  0  0  0  0
 58109  1  0  0  0  0
 60110  1  0  0  0  0
 61111  1  0  0  0  0
 63112  1  0  0  0  0
 64113  1  0  0  0  0
 65114  1  0  0  0  0
 66115  1  0  0  0  0
 66116  1  0  0  0  0
 67117  1  0  0  0  0
 68118  1  0  0  0  0
 69119  1  0  0  0  0
M  END
$$$$
