C16H23N5O6
APtclcactv06291803143D 0   0.00000     0.00000
 
 50 52  0  0  0  0  0  0  0  0999 V2000
   -6.7593    0.9874    0.9906 C   0  0  0  0  0  0  0  0  0  0  0  0
   -6.5805   -0.1015   -0.0358 C   0  0  0  0  0  0  0  0  0  0  0  0
   -5.4634   -0.1844   -0.7149 C   0  0  0  0  0  0  0  0  0  0  0  0
   -4.3098    0.7263   -0.3820 C   0  0  0  0  0  0  0  0  0  0  0  0
   -3.1127   -0.0772   -0.1216 N   0  0  0  0  0  0  0  0  0  0  0  0
   -1.9205    0.5439    0.2069 C   0  0  0  0  0  0  0  0  0  0  0  0
   -1.8441    1.8679    0.2904 N   0  0  0  0  0  0  0  0  0  0  0  0
   -0.7105    2.4692    0.6033 C   0  0  0  0  0  0  0  0  0  0  0  0
    0.3983    1.8036    0.8478 N   0  0  0  0  0  0  0  0  0  0  0  0
    0.4185    0.4759    0.7882 C   0  0  0  0  0  0  0  0  0  0  0  0
   -0.7637   -0.2112    0.4656 C   0  0  0  0  0  0  0  0  0  0  0  0
   -0.4714   -1.5340    0.4729 N   0  0  0  0  0  0  0  0  0  0  0  0
    0.7844   -1.6984    0.7721 C   0  0  0  0  0  0  0  0  0  0  0  0
    1.3758   -0.4880    0.9804 N   0  0  0  0  0  0  0  0  0  0  0  0
    2.7784   -0.2581    1.3355 C   0  0  0  0  0  0  0  0  0  0  0  0
    3.6132   -1.4768    0.9334 C   0  0  0  0  0  0  0  0  0  0  0  0
    3.5418   -1.6560   -0.5861 C   0  0  0  0  0  0  0  0  0  0  0  0
    4.0257   -0.3705   -1.2641 C   0  0  0  0  0  0  0  0  0  0  0  0
    3.1750    0.8054   -0.7771 C   0  0  0  0  0  0  0  0  0  0  0  0
    3.2613    0.8968    0.6463 O   0  0  0  0  0  0  0  0  0  0  0  0
    3.6907    2.1024   -1.4039 C   0  0  0  0  0  0  0  0  0  0  0  0
    2.8274    3.1822   -1.0426 O   0  0  0  0  0  0  0  0  0  0  0  0
    5.3955   -0.1402   -0.9285 O   0  0  0  0  0  0  0  0  0  0  0  0
    4.3770   -2.7470   -0.9786 O   0  0  0  0  0  0  0  0  0  0  0  0
    4.9720   -1.2758    1.3272 O   0  0  0  0  0  0  0  0  0  0  0  0
   -7.6869   -1.0948   -0.2810 C   0  0  0  0  0  0  0  0  0  0  0  0
   -7.2811   -2.0201   -1.2915 O   0  0  0  0  0  0  0  0  0  0  0  0
   -6.5833    1.9574    0.5257 H   0  0  0  0  0  0  0  0  0  0  0  0
   -7.7750    0.9522    1.3845 H   0  0  0  0  0  0  0  0  0  0  0  0
   -6.0488    0.8401    1.8040 H   0  0  0  0  0  0  0  0  0  0  0  0
   -5.3691   -0.9055   -1.5134 H   0  0  0  0  0  0  0  0  0  0  0  0
   -4.1221    1.3965   -1.2209 H   0  0  0  0  0  0  0  0  0  0  0  0
   -4.5537    1.3125    0.5039 H   0  0  0  0  0  0  0  0  0  0  0  0
   -3.1558   -1.0445   -0.1795 H   0  0  0  0  0  0  0  0  0  0  0  0
   -0.6927    3.5476    0.6602 H   0  0  0  0  0  0  0  0  0  0  0  0
    1.2835   -2.6532    0.8479 H   0  0  0  0  0  0  0  0  0  0  0  0
    2.8599   -0.1004    2.4110 H   0  0  0  0  0  0  0  0  0  0  0  0
    3.2186   -2.3665    1.4241 H   0  0  0  0  0  0  0  0  0  0  0  0
    2.5123   -1.8586   -0.8814 H   0  0  0  0  0  0  0  0  0  0  0  0
    3.9262   -0.4691   -2.3451 H   0  0  0  0  0  0  0  0  0  0  0  0
    2.1366    0.6483   -1.0690 H   0  0  0  0  0  0  0  0  0  0  0  0
    4.6983    2.3057   -1.0411 H   0  0  0  0  0  0  0  0  0  0  0  0
    3.7092    1.9993   -2.4889 H   0  0  0  0  0  0  0  0  0  0  0  0
    3.0943    4.0377   -1.4060 H   0  0  0  0  0  0  0  0  0  0  0  0
    5.9925   -0.8495   -1.2036 H   0  0  0  0  0  0  0  0  0  0  0  0
    4.3799   -2.9176   -1.9304 H   0  0  0  0  0  0  0  0  0  0  0  0
    5.5593   -2.0106    1.1031 H   0  0  0  0  0  0  0  0  0  0  0  0
   -7.9013   -1.6349    0.6412 H   0  0  0  0  0  0  0  0  0  0  0  0
   -8.5825   -0.5675   -0.6098 H   0  0  0  0  0  0  0  0  0  0  0  0
   -7.9460   -2.6902   -1.5012 H   0  0  0  0  0  0  0  0  0  0  0  0
  1  2  1  0  0  0  0
  2  3  2  0  0  0  0
  3  4  1  0  0  0  0
  4  5  1  0  0  0  0
  5  6  1  0  0  0  0
  6  7  2  0  0  0  0
  7  8  1  0  0  0  0
  8  9  2  0  0  0  0
  9 10  1  0  0  0  0
 10 11  2  0  0  0  0
  6 11  1  0  0  0  0
 11 12  1  0  0  0  0
 12 13  2  0  0  0  0
 13 14  1  0  0  0  0
 10 14  1  0  0  0  0
 14 15  1  0  0  0  0
 15 16  1  0  0  0  0
 16 17  1  0  0  0  0
 17 18  1  0  0  0  0
 18 19  1  0  0  0  0
 19 20  1  0  0  0  0
 15 20  1  0  0  0  0
 19 21  1  0  0  0  0
 21 22  1  0  0  0  0
 18 23  1  0  0  0  0
 17 24  1  0  0  0  0
 16 25  1  0  0  0  0
  2 26  1  0  0  0  0
 26 27  1  0  0  0  0
  1 28  1  0  0  0  0
  1 29  1  0  0  0  0
  1 30  1  0  0  0  0
  3 31  1  0  0  0  0
  4 32  1  0  0  0  0
  4 33  1  0  0  0  0
  5 34  1  0  0  0  0
  8 35  1  0  0  0  0
 13 36  1  0  0  0  0
 15 37  1  0  0  0  0
 16 38  1  0  0  0  0
 17 39  1  0  0  0  0
 18 40  1  0  0  0  0
 19 41  1  0  0  0  0
 21 42  1  0  0  0  0
 21 43  1  0  0  0  0
 22 44  1  0  0  0  0
 23 45  1  0  0  0  0
 24 46  1  0  0  0  0
 25 47  1  0  0  0  0
 26 48  1  0  0  0  0
 26 49  1  0  0  0  0
 27 50  1  0  0  0  0
M  END
$$$$
