C21H34O8
APtclcactv06291803093D 0   0.00000     0.00000
 
 63 65  0  0  0  0  0  0  0  0999 V2000
    5.0679    1.1825    1.3164 C   0  0  0  0  0  0  0  0  0  0  0  0
    4.1471    0.9924    0.1094 C   0  0  0  0  0  0  0  0  0  0  0  0
    4.8430    0.1050   -0.9328 C   0  0  0  0  0  0  0  0  0  0  0  0
    5.1709   -1.2110   -0.2585 C   0  0  0  0  0  0  0  0  0  0  0  0
    6.2396   -1.7573   -0.4365 O   0  0  0  0  0  0  0  0  0  0  0  0
    4.1542   -1.8031    0.6172 C   0  0  0  0  0  0  0  0  0  0  0  0
    3.0929   -1.0986    0.9921 C   0  0  0  0  0  0  0  0  0  0  0  0
    2.8530    0.3155    0.5557 C   0  0  0  0  0  0  0  0  0  0  0  0
    2.2219    1.1167    1.7071 C   0  0  0  0  0  0  0  0  0  0  0  0
    0.8431    1.5949    1.2064 C   0  0  0  0  0  0  0  0  0  0  0  0
    0.9788    1.5955   -0.3367 C   0  0  0  0  0  0  0  0  0  0  0  0
    1.8385    0.3352   -0.6051 C   0  0  0  0  0  0  0  0  0  0  0  0
   -0.3932    1.4676   -1.0016 C   0  0  0  0  0  0  0  0  0  0  0  0
   -1.3161    2.5724   -0.4833 C   0  0  0  0  0  0  0  0  0  0  0  0
   -0.2395    1.6011   -2.5180 C   0  0  0  0  0  0  0  0  0  0  0  0
    0.5665    0.5292   -3.0112 O   0  0  0  0  0  0  0  0  0  0  0  0
   -0.9563    0.1917   -0.6904 O   0  0  0  0  0  0  0  0  0  0  0  0
   -2.2764   -0.0016   -1.2023 C   0  0  0  0  0  0  0  0  0  0  0  0
   -2.6381   -1.4876   -1.1337 C   0  0  0  0  0  0  0  0  0  0  0  0
   -2.6366   -1.9384    0.3303 C   0  0  0  0  0  0  0  0  0  0  0  0
   -3.6140   -1.0649    1.1230 C   0  0  0  0  0  0  0  0  0  0  0  0
   -3.2145    0.4047    0.9672 C   0  0  0  0  0  0  0  0  0  0  0  0
   -3.2059    0.7502   -0.4195 O   0  0  0  0  0  0  0  0  0  0  0  0
   -4.2211    1.2882    1.7069 C   0  0  0  0  0  0  0  0  0  0  0  0
   -3.7856    2.6484    1.6602 O   0  0  0  0  0  0  0  0  0  0  0  0
   -4.9387   -1.2554    0.6223 O   0  0  0  0  0  0  0  0  0  0  0  0
   -3.0447   -3.3055    0.4099 O   0  0  0  0  0  0  0  0  0  0  0  0
   -3.9370   -1.6893   -1.6941 O   0  0  0  0  0  0  0  0  0  0  0  0
    2.0819   -1.7513    1.8992 C   0  0  0  0  0  0  0  0  0  0  0  0
    5.9943    1.6586    0.9953 H   0  0  0  0  0  0  0  0  0  0  0  0
    4.5728    1.8125    2.0554 H   0  0  0  0  0  0  0  0  0  0  0  0
    5.2925    0.2118    1.7585 H   0  0  0  0  0  0  0  0  0  0  0  0
    3.9192    1.9627   -0.3318 H   0  0  0  0  0  0  0  0  0  0  0  0
    4.1761   -0.0673   -1.7775 H   0  0  0  0  0  0  0  0  0  0  0  0
    5.7600    0.5848   -1.2751 H   0  0  0  0  0  0  0  0  0  0  0  0
    4.2694   -2.8208    0.9596 H   0  0  0  0  0  0  0  0  0  0  0  0
    2.1007    0.4794    2.5830 H   0  0  0  0  0  0  0  0  0  0  0  0
    2.8482    1.9744    1.9524 H   0  0  0  0  0  0  0  0  0  0  0  0
    0.0621    0.9025    1.5204 H   0  0  0  0  0  0  0  0  0  0  0  0
    0.6324    2.6001    1.5713 H   0  0  0  0  0  0  0  0  0  0  0  0
    1.4928    2.4938   -0.6788 H   0  0  0  0  0  0  0  0  0  0  0  0
    2.3545    0.4220   -1.5613 H   0  0  0  0  0  0  0  0  0  0  0  0
    1.2184   -0.5610   -0.5851 H   0  0  0  0  0  0  0  0  0  0  0  0
   -0.8334    3.5408   -0.6152 H   0  0  0  0  0  0  0  0  0  0  0  0
   -2.2528    2.5545   -1.0404 H   0  0  0  0  0  0  0  0  0  0  0  0
   -1.5197    2.4091    0.5750 H   0  0  0  0  0  0  0  0  0  0  0  0
   -1.2224    1.5626   -2.9876 H   0  0  0  0  0  0  0  0  0  0  0  0
    0.2381    2.5525   -2.7524 H   0  0  0  0  0  0  0  0  0  0  0  0
    0.7063    0.5501   -3.9678 H   0  0  0  0  0  0  0  0  0  0  0  0
   -2.3174    0.3350   -2.2382 H   0  0  0  0  0  0  0  0  0  0  0  0
   -1.9046   -2.0673   -1.6940 H   0  0  0  0  0  0  0  0  0  0  0  0
   -1.6339   -1.8311    0.7438 H   0  0  0  0  0  0  0  0  0  0  0  0
   -3.5783   -1.3424    2.1765 H   0  0  0  0  0  0  0  0  0  0  0  0
   -2.2199    0.5575    1.3860 H   0  0  0  0  0  0  0  0  0  0  0  0
   -5.1980    1.2029    1.2309 H   0  0  0  0  0  0  0  0  0  0  0  0
   -4.2935    0.9653    2.7454 H   0  0  0  0  0  0  0  0  0  0  0  0
   -4.3773    3.2666    2.1105 H   0  0  0  0  0  0  0  0  0  0  0  0
   -5.2557   -2.1668    0.6852 H   0  0  0  0  0  0  0  0  0  0  0  0
   -2.4732   -3.9155   -0.0764 H   0  0  0  0  0  0  0  0  0  0  0  0
   -4.2313   -2.6103   -1.6835 H   0  0  0  0  0  0  0  0  0  0  0  0
    2.3988   -2.7700    2.1230 H   0  0  0  0  0  0  0  0  0  0  0  0
    2.0049   -1.1829    2.8261 H   0  0  0  0  0  0  0  0  0  0  0  0
    1.1108   -1.7733    1.4047 H   0  0  0  0  0  0  0  0  0  0  0  0
  1  2  1  0  0  0  0
  2  3  1  0  0  0  0
  3  4  1  0  0  0  0
  4  5  2  0  0  0  0
  4  6  1  0  0  0  0
  6  7  2  0  0  0  0
  7  8  1  0  0  0  0
  2  8  1  0  0  0  0
  8  9  1  0  0  0  0
  9 10  1  0  0  0  0
 10 11  1  0  0  0  0
 11 12  1  0  0  0  0
  8 12  1  0  0  0  0
 11 13  1  0  0  0  0
 13 14  1  0  0  0  0
 13 15  1  0  0  0  0
 15 16  1  0  0  0  0
 13 17  1  0  0  0  0
 17 18  1  0  0  0  0
 18 19  1  0  0  0  0
 19 20  1  0  0  0  0
 20 21  1  0  0  0  0
 21 22  1  0  0  0  0
 22 23  1  0  0  0  0
 18 23  1  0  0  0  0
 22 24  1  0  0  0  0
 24 25  1  0  0  0  0
 21 26  1  0  0  0  0
 20 27  1  0  0  0  0
 19 28  1  0  0  0  0
  7 29  1  0  0  0  0
  1 30  1  0  0  0  0
  1 31  1  0  0  0  0
  1 32  1  0  0  0  0
  2 33  1  0  0  0  0
  3 34  1  0  0  0  0
  3 35  1  0  0  0  0
  6 36  1  0  0  0  0
  9 37  1  0  0  0  0
  9 38  1  0  0  0  0
 10 39  1  0  0  0  0
 10 40  1  0  0  0  0
 11 41  1  0  0  0  0
 12 42  1  0  0  0  0
 12 43  1  0  0  0  0
 14 44  1  0  0  0  0
 14 45  1  0  0  0  0
 14 46  1  0  0  0  0
 15 47  1  0  0  0  0
 15 48  1  0  0  0  0
 16 49  1  0  0  0  0
 18 50  1  0  0  0  0
 19 51  1  0  0  0  0
 20 52  1  0  0  0  0
 21 53  1  0  0  0  0
 22 54  1  0  0  0  0
 24 55  1  0  0  0  0
 24 56  1  0  0  0  0
 25 57  1  0  0  0  0
 26 58  1  0  0  0  0
 27 59  1  0  0  0  0
 28 60  1  0  0  0  0
 29 61  1  0  0  0  0
 29 62  1  0  0  0  0
 29 63  1  0  0  0  0
M  END
$$$$
