C19H18O5
APtclcactv06291803143D 0   0.00000     0.00000
 
 42 43  0  0  0  0  0  0  0  0999 V2000
   -7.2286    2.1915    0.0132 C   0  0  0  0  0  0  0  0  0  0  0  0
   -7.2969    0.7642    0.0126 O   0  0  0  0  0  0  0  0  0  0  0  0
   -6.1160    0.0896    0.0099 C   0  0  0  0  0  0  0  0  0  0  0  0
   -6.1100   -1.3050    0.0091 C   0  0  0  0  0  0  0  0  0  0  0  0
   -4.9067   -1.9983    0.0068 C   0  0  0  0  0  0  0  0  0  0  0  0
   -3.7123   -1.3122    0.0047 C   0  0  0  0  0  0  0  0  0  0  0  0
   -3.7099    0.0877    0.0050 C   0  0  0  0  0  0  0  0  0  0  0  0
   -4.9236    0.7856    0.0021 C   0  0  0  0  0  0  0  0  0  0  0  0
   -2.4374    0.8225    0.0033 C   0  0  0  0  0  0  0  0  0  0  0  0
   -1.2674    0.1470    0.0015 C   0  0  0  0  0  0  0  0  0  0  0  0
   -0.0000    0.8788   -0.0002 C   0  0  0  0  0  0  0  0  0  0  0  0
   -0.0000    2.0982    0.0001 O   0  0  0  0  0  0  0  0  0  0  0  0
    1.2674    0.1470   -0.0021 C   0  0  0  0  0  0  0  0  0  0  0  0
    2.4374    0.8225   -0.0037 C   0  0  0  0  0  0  0  0  0  0  0  0
    3.7099    0.0877   -0.0057 C   0  0  0  0  0  0  0  0  0  0  0  0
    4.9236    0.7856   -0.0073 C   0  0  0  0  0  0  0  0  0  0  0  0
    6.1161    0.0896   -0.0092 C   0  0  0  0  0  0  0  0  0  0  0  0
    6.1100   -1.3050   -0.0095 C   0  0  0  0  0  0  0  0  0  0  0  0
    4.9067   -1.9983   -0.0079 C   0  0  0  0  0  0  0  0  0  0  0  0
    3.7124   -1.3122   -0.0002 C   0  0  0  0  0  0  0  0  0  0  0  0
    7.2845   -1.9872   -0.0118 O   0  0  0  0  0  0  0  0  0  0  0  0
    7.2969    0.7642   -0.0112 O   0  0  0  0  0  0  0  0  0  0  0  0
    7.2286    2.1915   -0.0112 C   0  0  0  0  0  0  0  0  0  0  0  0
   -7.2844   -1.9872    0.0111 O   0  0  0  0  0  0  0  0  0  0  0  0
   -6.6998    2.5304   -0.8777 H   0  0  0  0  0  0  0  0  0  0  0  0
   -8.2377    2.6035    0.0155 H   0  0  0  0  0  0  0  0  0  0  0  0
   -6.6962    2.5294    0.9023 H   0  0  0  0  0  0  0  0  0  0  0  0
   -4.9074   -3.0783    0.0069 H   0  0  0  0  0  0  0  0  0  0  0  0
   -2.7781   -1.8540    0.0033 H   0  0  0  0  0  0  0  0  0  0  0  0
   -4.9271    1.8656    0.0020 H   0  0  0  0  0  0  0  0  0  0  0  0
   -2.4374    1.9025    0.0035 H   0  0  0  0  0  0  0  0  0  0  0  0
   -1.2674   -0.9330    0.0013 H   0  0  0  0  0  0  0  0  0  0  0  0
    1.2674   -0.9330   -0.0024 H   0  0  0  0  0  0  0  0  0  0  0  0
    2.4374    1.9025   -0.0035 H   0  0  0  0  0  0  0  0  0  0  0  0
    4.9271    1.8656   -0.0074 H   0  0  0  0  0  0  0  0  0  0  0  0
    4.9074   -3.0783   -0.0085 H   0  0  0  0  0  0  0  0  0  0  0  0
    2.7781   -1.8540    0.0011 H   0  0  0  0  0  0  0  0  0  0  0  0
    7.6262   -2.1849    0.8709 H   0  0  0  0  0  0  0  0  0  0  0  0
    6.6965    2.5298   -0.9004 H   0  0  0  0  0  0  0  0  0  0  0  0
    6.6995    2.5300    0.8796 H   0  0  0  0  0  0  0  0  0  0  0  0
    8.2377    2.6036   -0.0129 H   0  0  0  0  0  0  0  0  0  0  0  0
   -7.6263   -2.1843   -0.8717 H   0  0  0  0  0  0  0  0  0  0  0  0
  1  2  1  0  0  0  0
  2  3  1  0  0  0  0
  3  4  2  0  0  0  0
  4  5  1  0  0  0  0
  5  6  2  0  0  0  0
  6  7  1  0  0  0  0
  7  8  2  0  0  0  0
  3  8  1  0  0  0  0
  7  9  1  0  0  0  0
  9 10  2  0  0  0  0
 10 11  1  0  0  0  0
 11 12  2  0  0  0  0
 11 13  1  0  0  0  0
 13 14  2  0  0  0  0
 14 15  1  0  0  0  0
 15 16  2  0  0  0  0
 16 17  1  0  0  0  0
 17 18  2  0  0  0  0
 18 19  1  0  0  0  0
 19 20  2  0  0  0  0
 15 20  1  0  0  0  0
 18 21  1  0  0  0  0
 17 22  1  0  0  0  0
 22 23  1  0  0  0  0
  4 24  1  0  0  0  0
  1 25  1  0  0  0  0
  1 26  1  0  0  0  0
  1 27  1  0  0  0  0
  5 28  1  0  0  0  0
  6 29  1  0  0  0  0
  8 30  1  0  0  0  0
  9 31  1  0  0  0  0
 10 32  1  0  0  0  0
 13 33  1  0  0  0  0
 14 34  1  0  0  0  0
 16 35  1  0  0  0  0
 19 36  1  0  0  0  0
 20 37  1  0  0  0  0
 21 38  1  0  0  0  0
 23 39  1  0  0  0  0
 23 40  1  0  0  0  0
 23 41  1  0  0  0  0
 24 42  1  0  0  0  0
M  END
$$$$
