C19H24O8
APtclcactv06291803123D 0   0.00000     0.00000
 
 51 55  0  0  0  0  0  0  0  0999 V2000
    3.3032    1.6352   -0.0718 C   0  0  0  0  0  0  0  0  0  0  0  0
    2.6849    0.2370   -0.0122 C   0  0  0  0  0  0  0  0  0  0  0  0
    3.6859   -0.8879   -0.3547 C   0  0  0  0  0  0  0  0  0  0  0  0
    3.0806   -2.2568   -0.0485 C   0  0  0  0  0  0  0  0  0  0  0  0
    1.6941   -2.4119   -0.6957 C   0  0  0  0  0  0  0  0  0  0  0  0
    0.8646   -1.2120   -0.2888 C   0  0  0  0  0  0  0  0  0  0  0  0
    1.5070    0.0423   -0.9949 C   0  0  0  0  0  0  0  0  0  0  0  0
    0.4222    1.1246   -0.8357 C   0  0  0  0  0  0  0  0  0  0  0  0
   -0.8835    0.3727   -0.6112 C   0  0  0  0  0  0  0  0  0  0  0  0
   -0.5607   -1.1243   -0.7578 C   0  0  0  0  0  0  0  0  0  0  0  0
   -1.5818   -2.0635   -0.2401 C   0  0  0  0  0  0  0  0  0  0  0  0
   -2.5818   -1.5445    0.7681 C   0  0  0  0  0  0  0  0  0  0  0  0
   -2.8189   -0.0401    0.6722 C   0  0  0  0  0  0  0  0  0  0  0  0
   -1.4203    0.6247    0.8156 C   0  0  0  0  0  0  0  0  0  0  0  0
   -3.2887    0.3505   -0.7167 C   0  0  0  0  0  0  0  0  0  0  0  0
   -4.5276    0.3651   -1.1421 C   0  0  0  0  0  0  0  0  0  0  0  0
   -2.0503    0.7230   -1.5253 C   0  0  0  0  0  0  0  0  0  0  0  0
   -2.0497    2.1207   -1.8227 O   0  0  0  0  0  0  0  0  0  0  0  0
   -3.7176    0.4097    1.6881 O   0  0  0  0  0  0  0  0  0  0  0  0
   -3.8261   -2.2175    0.5664 O   0  0  0  0  0  0  0  0  0  0  0  0
    0.7300    1.9985    0.3528 C   0  0  0  0  0  0  0  0  0  0  0  0
    0.5918    1.5661    1.4726 O   0  0  0  0  0  0  0  0  0  0  0  0
    1.1577    3.2573    0.1675 O   0  0  0  0  0  0  0  0  0  0  0  0
    1.0187   -0.9305    1.1270 O   0  0  0  0  0  0  0  0  0  0  0  0
    2.0834   -0.0999    1.3446 C   0  0  0  0  0  0  0  0  0  0  0  0
    2.4641    0.2887    2.4235 O   0  0  0  0  0  0  0  0  0  0  0  0
    4.0159   -0.8184   -1.7433 O   0  0  0  0  0  0  0  0  0  0  0  0
    3.2613    2.0077   -1.0953 H   0  0  0  0  0  0  0  0  0  0  0  0
    2.7469    2.3066    0.5823 H   0  0  0  0  0  0  0  0  0  0  0  0
    4.3419    1.5874    0.2553 H   0  0  0  0  0  0  0  0  0  0  0  0
    4.5919   -0.7552    0.2366 H   0  0  0  0  0  0  0  0  0  0  0  0
    3.7423   -3.0335   -0.4319 H   0  0  0  0  0  0  0  0  0  0  0  0
    2.9853   -2.3715    1.0312 H   0  0  0  0  0  0  0  0  0  0  0  0
    1.7934   -2.4424   -1.7807 H   0  0  0  0  0  0  0  0  0  0  0  0
    1.2201   -3.3270   -0.3407 H   0  0  0  0  0  0  0  0  0  0  0  0
    1.8184   -0.1325   -2.0248 H   0  0  0  0  0  0  0  0  0  0  0  0
    0.3577    1.7285   -1.7408 H   0  0  0  0  0  0  0  0  0  0  0  0
   -0.5243   -1.3036   -1.8324 H   0  0  0  0  0  0  0  0  0  0  0  0
   -2.1404   -2.4490   -1.0929 H   0  0  0  0  0  0  0  0  0  0  0  0
   -1.0584   -2.9045    0.2148 H   0  0  0  0  0  0  0  0  0  0  0  0
   -2.2206   -1.7777    1.7697 H   0  0  0  0  0  0  0  0  0  0  0  0
   -0.8129    0.1184    1.5657 H   0  0  0  0  0  0  0  0  0  0  0  0
   -1.5050    1.6905    1.0276 H   0  0  0  0  0  0  0  0  0  0  0  0
   -5.3301    0.0798   -0.4779 H   0  0  0  0  0  0  0  0  0  0  0  0
   -4.7466    0.6624   -2.1570 H   0  0  0  0  0  0  0  0  0  0  0  0
   -2.0043    0.1372   -2.4434 H   0  0  0  0  0  0  0  0  0  0  0  0
   -2.8028    2.4097   -2.3561 H   0  0  0  0  0  0  0  0  0  0  0  0
   -4.5879   -0.0107    1.6575 H   0  0  0  0  0  0  0  0  0  0  0  0
   -3.7758   -3.1774    0.6718 H   0  0  0  0  0  0  0  0  0  0  0  0
    1.4100    3.7559    0.9567 H   0  0  0  0  0  0  0  0  0  0  0  0
    4.6421   -1.4960   -2.0332 H   0  0  0  0  0  0  0  0  0  0  0  0
  1  2  1  0  0  0  0
  2  3  1  0  0  0  0
  3  4  1  0  0  0  0
  4  5  1  0  0  0  0
  5  6  1  0  0  0  0
  6  7  1  0  0  0  0
  2  7  1  0  0  0  0
  7  8  1  0  0  0  0
  8  9  1  0  0  0  0
  9 10  1  0  0  0  0
  6 10  1  0  0  0  0
 10 11  1  0  0  0  0
 11 12  1  0  0  0  0
 12 13  1  0  0  0  0
 13 14  1  0  0  0  0
  9 14  1  0  0  0  0
 13 15  1  0  0  0  0
 15 16  2  0  0  0  0
 15 17  1  0  0  0  0
  9 17  1  0  0  0  0
 17 18  1  0  0  0  0
 13 19  1  0  0  0  0
 12 20  1  0  0  0  0
  8 21  1  0  0  0  0
 21 22  2  0  0  0  0
 21 23  1  0  0  0  0
  6 24  1  0  0  0  0
 24 25  1  0  0  0  0
  2 25  1  0  0  0  0
 25 26  2  0  0  0  0
  3 27  1  0  0  0  0
  1 28  1  0  0  0  0
  1 29  1  0  0  0  0
  1 30  1  0  0  0  0
  3 31  1  0  0  0  0
  4 32  1  0  0  0  0
  4 33  1  0  0  0  0
  5 34  1  0  0  0  0
  5 35  1  0  0  0  0
  7 36  1  0  0  0  0
  8 37  1  0  0  0  0
 10 38  1  0  0  0  0
 11 39  1  0  0  0  0
 11 40  1  0  0  0  0
 12 41  1  0  0  0  0
 14 42  1  0  0  0  0
 14 43  1  0  0  0  0
 16 44  1  0  0  0  0
 16 45  1  0  0  0  0
 17 46  1  0  0  0  0
 18 47  1  0  0  0  0
 19 48  1  0  0  0  0
 20 49  1  0  0  0  0
 23 50  1  0  0  0  0
 27 51  1  0  0  0  0
M  END
$$$$
