C30H50O
APtclcactv06291803093D 0   0.00000     0.00000
 
 81 85  0  0  0  0  0  0  0  0999 V2000
   -5.9514    0.5958    1.1212 C   0  0  0  0  0  0  0  0  0  0  0  0
   -5.3819   -0.5831    0.3377 C   0  0  0  0  0  0  0  0  0  0  0  0
   -4.2692   -0.1405   -0.5446 C   0  0  0  0  0  0  0  0  0  0  0  0
   -4.0546    1.3197   -0.7227 C   0  0  0  0  0  0  0  0  0  0  0  0
   -2.8900    1.7481   -1.5762 C   0  0  0  0  0  0  0  0  0  0  0  0
   -1.5964    0.9927   -1.4222 C   0  0  0  0  0  0  0  0  0  0  0  0
   -0.7681    1.4975   -0.2645 C   0  0  0  0  0  0  0  0  0  0  0  0
   -0.3079    2.9636   -0.3533 C   0  0  0  0  0  0  0  0  0  0  0  0
    0.8026    3.0109    0.7332 C   0  0  0  0  0  0  0  0  0  0  0  0
    1.3642    1.5695    0.8347 C   0  0  0  0  0  0  0  0  0  0  0  0
    0.5930    0.7639   -0.2211 C   0  0  0  0  0  0  0  0  0  0  0  0
    0.3611   -0.6930    0.1091 C   0  0  0  0  0  0  0  0  0  0  0  0
   -0.5127   -1.3313   -0.9721 C   0  0  0  0  0  0  0  0  0  0  0  0
   -1.7751   -0.5155   -1.2858 C   0  0  0  0  0  0  0  0  0  0  0  0
   -3.1228   -1.0738   -0.8123 C   0  0  0  0  0  0  0  0  0  0  0  0
   -2.7160   -1.1980   -2.2961 C   0  0  0  0  0  0  0  0  0  0  0  0
   -2.9968   -2.3490    0.0252 C   0  0  0  0  0  0  0  0  0  0  0  0
   -4.2902   -2.8133    0.6434 C   0  0  0  0  0  0  0  0  0  0  0  0
   -5.0441   -1.6861    1.3160 C   0  0  0  0  0  0  0  0  0  0  0  0
   -4.2443   -1.1507    2.3708 O   0  0  0  0  0  0  0  0  0  0  0  0
    1.3447    0.8848   -1.5502 C   0  0  0  0  0  0  0  0  0  0  0  0
    2.8580    1.5634    0.5026 C   0  0  0  0  0  0  0  0  0  0  0  0
    3.5928    2.5236    1.4402 C   0  0  0  0  0  0  0  0  0  0  0  0
    3.4146    0.1496    0.6822 C   0  0  0  0  0  0  0  0  0  0  0  0
    4.8842    0.1223    0.2572 C   0  0  0  0  0  0  0  0  0  0  0  0
    5.4408   -1.2915    0.4367 C   0  0  0  0  0  0  0  0  0  0  0  0
    4.7249   -2.2468   -0.5202 C   0  0  0  0  0  0  0  0  0  0  0  0
    6.9174   -1.2921    0.1357 C   0  0  0  0  0  0  0  0  0  0  0  0
    7.7739   -1.6526    1.0590 C   0  0  0  0  0  0  0  0  0  0  0  0
    7.4087   -0.8778   -1.2274 C   0  0  0  0  0  0  0  0  0  0  0  0
   -1.5108    1.3018    1.0672 C   0  0  0  0  0  0  0  0  0  0  0  0
   -6.3302    1.3451    0.4261 H   0  0  0  0  0  0  0  0  0  0  0  0
   -6.7638    0.2491    1.7599 H   0  0  0  0  0  0  0  0  0  0  0  0
   -5.1671    1.0354    1.7375 H   0  0  0  0  0  0  0  0  0  0  0  0
   -6.1801   -0.9598   -0.3164 H   0  0  0  0  0  0  0  0  0  0  0  0
   -4.7924   -0.3095   -1.4986 H   0  0  0  0  0  0  0  0  0  0  0  0
   -4.9676    1.7412   -1.1781 H   0  0  0  0  0  0  0  0  0  0  0  0
   -3.9484    1.8056    0.2529 H   0  0  0  0  0  0  0  0  0  0  0  0
   -3.1983    1.6842   -2.6324 H   0  0  0  0  0  0  0  0  0  0  0  0
   -2.6946    2.8142   -1.3871 H   0  0  0  0  0  0  0  0  0  0  0  0
   -1.0329    1.1644   -2.3608 H   0  0  0  0  0  0  0  0  0  0  0  0
    0.0786    3.2083   -1.3341 H   0  0  0  0  0  0  0  0  0  0  0  0
   -1.1295    3.6311   -0.0842 H   0  0  0  0  0  0  0  0  0  0  0  0
    1.5931    3.6963    0.4254 H   0  0  0  0  0  0  0  0  0  0  0  0
    0.3879    3.3248    1.6883 H   0  0  0  0  0  0  0  0  0  0  0  0
    1.1942    1.1579    1.8252 H   0  0  0  0  0  0  0  0  0  0  0  0
    1.3349   -1.2109    0.1240 H   0  0  0  0  0  0  0  0  0  0  0  0
   -0.0860   -0.8210    1.0917 H   0  0  0  0  0  0  0  0  0  0  0  0
    0.0663   -1.4588   -1.8894 H   0  0  0  0  0  0  0  0  0  0  0  0
   -0.8102   -2.3309   -0.6379 H   0  0  0  0  0  0  0  0  0  0  0  0
   -3.2270   -0.5583   -3.0129 H   0  0  0  0  0  0  0  0  0  0  0  0
   -2.4283   -2.1843   -2.6564 H   0  0  0  0  0  0  0  0  0  0  0  0
   -2.6127   -3.1466   -0.6132 H   0  0  0  0  0  0  0  0  0  0  0  0
   -2.2747   -2.1704    0.8235 H   0  0  0  0  0  0  0  0  0  0  0  0
   -4.9200   -3.2425   -0.1355 H   0  0  0  0  0  0  0  0  0  0  0  0
   -4.0728   -3.5824    1.3838 H   0  0  0  0  0  0  0  0  0  0  0  0
   -5.9690   -2.0818    1.7365 H   0  0  0  0  0  0  0  0  0  0  0  0
   -4.0157   -1.7934    3.0562 H   0  0  0  0  0  0  0  0  0  0  0  0
    2.3440    0.4631   -1.4421 H   0  0  0  0  0  0  0  0  0  0  0  0
    0.8030    0.3417   -2.3247 H   0  0  0  0  0  0  0  0  0  0  0  0
    1.4219    1.9355   -1.8296 H   0  0  0  0  0  0  0  0  0  0  0  0
    3.0020    1.8822   -0.5297 H   0  0  0  0  0  0  0  0  0  0  0  0
    3.4488    2.2048    2.4725 H   0  0  0  0  0  0  0  0  0  0  0  0
    4.6568    2.5193    1.2036 H   0  0  0  0  0  0  0  0  0  0  0  0
    3.1963    3.5309    1.3123 H   0  0  0  0  0  0  0  0  0  0  0  0
    3.3337   -0.1425    1.7292 H   0  0  0  0  0  0  0  0  0  0  0  0
    2.8452   -0.5460    0.0658 H   0  0  0  0  0  0  0  0  0  0  0  0
    4.9651    0.4144   -0.7898 H   0  0  0  0  0  0  0  0  0  0  0  0
    5.4536    0.8179    0.8736 H   0  0  0  0  0  0  0  0  0  0  0  0
    5.2793   -1.6178    1.4641 H   0  0  0  0  0  0  0  0  0  0  0  0
    3.6568   -2.2464   -0.3025 H   0  0  0  0  0  0  0  0  0  0  0  0
    4.8863   -1.9205   -1.5476 H   0  0  0  0  0  0  0  0  0  0  0  0
    5.1214   -3.2540   -0.3924 H   0  0  0  0  0  0  0  0  0  0  0  0
    7.4219   -1.9496    2.0359 H   0  0  0  0  0  0  0  0  0  0  0  0
    8.8322   -1.6530    0.8433 H   0  0  0  0  0  0  0  0  0  0  0  0
    7.5926    0.1966   -1.2362 H   0  0  0  0  0  0  0  0  0  0  0  0
    8.3338   -1.4067   -1.4564 H   0  0  0  0  0  0  0  0  0  0  0  0
    6.6549   -1.1235   -1.9754 H   0  0  0  0  0  0  0  0  0  0  0  0
   -1.7139    0.2415    1.2175 H   0  0  0  0  0  0  0  0  0  0  0  0
   -0.8937    1.6731    1.8854 H   0  0  0  0  0  0  0  0  0  0  0  0
   -2.4515    1.8520    1.0429 H   0  0  0  0  0  0  0  0  0  0  0  0
  1  2  1  0  0  0  0
  2  3  1  0  0  0  0
  3  4  1  0  0  0  0
  4  5  1  0  0  0  0
  5  6  1  0  0  0  0
  6  7  1  0  0  0  0
  7  8  1  0  0  0  0
  8  9  1  0  0  0  0
  9 10  1  0  0  0  0
 10 11  1  0  0  0  0
  7 11  1  0  0  0  0
 11 12  1  0  0  0  0
 12 13  1  0  0  0  0
 13 14  1  0  0  0  0
  6 14  1  0  0  0  0
 14 15  1  0  0  0  0
  3 15  1  0  0  0  0
 15 16  1  0  0  0  0
 14 16  1  0  0  0  0
 15 17  1  0  0  0  0
 17 18  1  0  0  0  0
 18 19  1  0  0  0  0
  2 19  1  0  0  0  0
 19 20  1  0  0  0  0
 11 21  1  0  0  0  0
 10 22  1  0  0  0  0
 22 23  1  0  0  0  0
 22 24  1  0  0  0  0
 24 25  1  0  0  0  0
 25 26  1  0  0  0  0
 26 27  1  0  0  0  0
 26 28  1  0  0  0  0
 28 29  2  0  0  0  0
 28 30  1  0  0  0  0
  7 31  1  0  0  0  0
  1 32  1  0  0  0  0
  1 33  1  0  0  0  0
  1 34  1  0  0  0  0
  2 35  1  0  0  0  0
  3 36  1  0  0  0  0
  4 37  1  0  0  0  0
  4 38  1  0  0  0  0
  5 39  1  0  0  0  0
  5 40  1  0  0  0  0
  6 41  1  0  0  0  0
  8 42  1  0  0  0  0
  8 43  1  0  0  0  0
  9 44  1  0  0  0  0
  9 45  1  0  0  0  0
 10 46  1  0  0  0  0
 12 47  1  0  0  0  0
 12 48  1  0  0  0  0
 13 49  1  0  0  0  0
 13 50  1  0  0  0  0
 16 51  1  0  0  0  0
 16 52  1  0  0  0  0
 17 53  1  0  0  0  0
 17 54  1  0  0  0  0
 18 55  1  0  0  0  0
 18 56  1  0  0  0  0
 19 57  1  0  0  0  0
 20 58  1  0  0  0  0
 21 59  1  0  0  0  0
 21 60  1  0  0  0  0
 21 61  1  0  0  0  0
 22 62  1  0  0  0  0
 23 63  1  0  0  0  0
 23 64  1  0  0  0  0
 23 65  1  0  0  0  0
 24 66  1  0  0  0  0
 24 67  1  0  0  0  0
 25 68  1  0  0  0  0
 25 69  1  0  0  0  0
 26 70  1  0  0  0  0
 27 71  1  0  0  0  0
 27 72  1  0  0  0  0
 27 73  1  0  0  0  0
 29 74  1  0  0  0  0
 29 75  1  0  0  0  0
 30 76  1  0  0  0  0
 30 77  1  0  0  0  0
 30 78  1  0  0  0  0
 31 79  1  0  0  0  0
 31 80  1  0  0  0  0
 31 81  1  0  0  0  0
M  END
$$$$
