C21H20O9
APtclcactv06291803093D 0   0.00000     0.00000
 
 50 53  0  0  0  0  0  0  0  0999 V2000
    6.7793    0.3154    0.2221 C   0  0  0  0  0  0  0  0  0  0  0  0
    7.5293   -0.8332    0.3334 C   0  0  0  0  0  0  0  0  0  0  0  0
    6.9040   -2.0748    0.3633 C   0  0  0  0  0  0  0  0  0  0  0  0
    5.5189   -2.1636    0.2809 C   0  0  0  0  0  0  0  0  0  0  0  0
    4.7589   -1.0216    0.1693 C   0  0  0  0  0  0  0  0  0  0  0  0
    5.3835    0.2319    0.1387 C   0  0  0  0  0  0  0  0  0  0  0  0
    4.5782    1.4535    0.0203 C   0  0  0  0  0  0  0  0  0  0  0  0
    3.2390    1.3665   -0.1852 C   0  0  0  0  0  0  0  0  0  0  0  0
    2.3229    2.4900   -0.4286 C   0  0  0  0  0  0  0  0  0  0  0  0
    2.5965    3.6764   -0.4879 O   0  0  0  0  0  0  0  0  0  0  0  0
    0.9991    1.8605   -0.5854 C   0  0  0  0  0  0  0  0  0  0  0  0
    1.1976    0.4788   -0.4342 C   0  0  0  0  0  0  0  0  0  0  0  0
    2.5056    0.2286   -0.2090 O   0  0  0  0  0  0  0  0  0  0  0  0
    0.1033   -0.3718   -0.5347 C   0  0  0  0  0  0  0  0  0  0  0  0
   -1.1573    0.1473   -0.7804 C   0  0  0  0  0  0  0  0  0  0  0  0
   -1.3417    1.5195   -0.9285 C   0  0  0  0  0  0  0  0  0  0  0  0
   -0.2764    2.3694   -0.8330 C   0  0  0  0  0  0  0  0  0  0  0  0
   -2.2219   -0.6890   -0.8780 O   0  0  0  0  0  0  0  0  0  0  0  0
   -3.4949   -0.0917   -1.1323 C   0  0  0  0  0  0  0  0  0  0  0  0
   -4.5431   -1.1894   -1.3326 C   0  0  0  0  0  0  0  0  0  0  0  0
   -4.6638   -2.0103   -0.0450 C   0  0  0  0  0  0  0  0  0  0  0  0
   -5.0176   -1.0731    1.1138 C   0  0  0  0  0  0  0  0  0  0  0  0
   -3.9511    0.0202    1.2195 C   0  0  0  0  0  0  0  0  0  0  0  0
   -3.8688    0.7250   -0.0209 O   0  0  0  0  0  0  0  0  0  0  0  0
   -4.3290    0.9952    2.3364 C   0  0  0  0  0  0  0  0  0  0  0  0
   -3.2782    1.9474    2.5131 O   0  0  0  0  0  0  0  0  0  0  0  0
   -6.2925   -0.4747    0.8717 O   0  0  0  0  0  0  0  0  0  0  0  0
   -5.6920   -2.9908   -0.1978 O   0  0  0  0  0  0  0  0  0  0  0  0
   -5.8054   -0.5941   -1.6394 O   0  0  0  0  0  0  0  0  0  0  0  0
    7.6487   -3.2044    0.4727 O   0  0  0  0  0  0  0  0  0  0  0  0
    7.2657    1.2795    0.2035 H   0  0  0  0  0  0  0  0  0  0  0  0
    8.6056   -0.7701    0.3974 H   0  0  0  0  0  0  0  0  0  0  0  0
    5.0385   -3.1306    0.3042 H   0  0  0  0  0  0  0  0  0  0  0  0
    3.6831   -1.0917    0.1054 H   0  0  0  0  0  0  0  0  0  0  0  0
    5.0510    2.4215    0.0967 H   0  0  0  0  0  0  0  0  0  0  0  0
    0.2357   -1.4377   -0.4218 H   0  0  0  0  0  0  0  0  0  0  0  0
   -2.3291    1.9128   -1.1202 H   0  0  0  0  0  0  0  0  0  0  0  0
   -0.4214    3.4335   -0.9474 H   0  0  0  0  0  0  0  0  0  0  0  0
   -3.4353    0.5223   -2.0310 H   0  0  0  0  0  0  0  0  0  0  0  0
   -4.2373   -1.8399   -2.1520 H   0  0  0  0  0  0  0  0  0  0  0  0
   -3.7147   -2.5046    0.1626 H   0  0  0  0  0  0  0  0  0  0  0  0
   -5.0512   -1.6404    2.0439 H   0  0  0  0  0  0  0  0  0  0  0  0
   -2.9861   -0.4340    1.4443 H   0  0  0  0  0  0  0  0  0  0  0  0
   -5.2491    1.5150    2.0691 H   0  0  0  0  0  0  0  0  0  0  0  0
   -4.4796    0.4439    3.2645 H   0  0  0  0  0  0  0  0  0  0  0  0
   -3.4500    2.5985    3.2071 H   0  0  0  0  0  0  0  0  0  0  0  0
   -7.0161   -1.1107    0.7886 H   0  0  0  0  0  0  0  0  0  0  0  0
   -5.5361   -3.6150   -0.9198 H   0  0  0  0  0  0  0  0  0  0  0  0
   -5.8011   -0.0545   -2.4419 H   0  0  0  0  0  0  0  0  0  0  0  0
    7.8093   -3.4828    1.3848 H   0  0  0  0  0  0  0  0  0  0  0  0
  1  2  2  0  0  0  0
  2  3  1  0  0  0  0
  3  4  2  0  0  0  0
  4  5  1  0  0  0  0
  5  6  2  0  0  0  0
  1  6  1  0  0  0  0
  6  7  1  0  0  0  0
  7  8  2  0  0  0  0
  8  9  1  0  0  0  0
  9 10  2  0  0  0  0
  9 11  1  0  0  0  0
 11 12  2  0  0  0  0
 12 13  1  0  0  0  0
  8 13  1  0  0  0  0
 12 14  1  0  0  0  0
 14 15  2  0  0  0  0
 15 16  1  0  0  0  0
 16 17  2  0  0  0  0
 11 17  1  0  0  0  0
 15 18  1  0  0  0  0
 18 19  1  0  0  0  0
 19 20  1  0  0  0  0
 20 21  1  0  0  0  0
 21 22  1  0  0  0  0
 22 23  1  0  0  0  0
 23 24  1  0  0  0  0
 19 24  1  0  0  0  0
 23 25  1  0  0  0  0
 25 26  1  0  0  0  0
 22 27  1  0  0  0  0
 21 28  1  0  0  0  0
 20 29  1  0  0  0  0
  3 30  1  0  0  0  0
  1 31  1  0  0  0  0
  2 32  1  0  0  0  0
  4 33  1  0  0  0  0
  5 34  1  0  0  0  0
  7 35  1  0  0  0  0
 14 36  1  0  0  0  0
 16 37  1  0  0  0  0
 17 38  1  0  0  0  0
 19 39  1  0  0  0  0
 20 40  1  0  0  0  0
 21 41  1  0  0  0  0
 22 42  1  0  0  0  0
 23 43  1  0  0  0  0
 25 44  1  0  0  0  0
 25 45  1  0  0  0  0
 26 46  1  0  0  0  0
 27 47  1  0  0  0  0
 28 48  1  0  0  0  0
 29 49  1  0  0  0  0
 30 50  1  0  0  0  0
M  END
$$$$
