C30H48O2
APtclcactv06291803133D 0   0.00000     0.00000
 
 80 84  0  0  0  0  0  0  0  0999 V2000
   -3.1581    2.4441    0.7464 C   0  0  0  0  0  0  0  0  0  0  0  0
   -3.6621    1.2286   -0.0735 C   0  0  0  0  0  0  0  0  0  0  0  0
   -2.8392    0.0165    0.3127 C   0  0  0  0  0  0  0  0  0  0  0  0
   -1.4648    0.0426   -0.3273 C   0  0  0  0  0  0  0  0  0  0  0  0
   -1.0031    1.1211   -0.9025 C   0  0  0  0  0  0  0  0  0  0  0  0
    0.4682    1.1434   -1.3186 C   0  0  0  0  0  0  0  0  0  0  0  0
    1.1645    0.4470   -0.1490 C   0  0  0  0  0  0  0  0  0  0  0  0
    2.6173    0.8173    0.0708 C   0  0  0  0  0  0  0  0  0  0  0  0
    3.1702    1.6253   -1.1058 C   0  0  0  0  0  0  0  0  0  0  0  0
    4.5961    2.0871   -0.7870 C   0  0  0  0  0  0  0  0  0  0  0  0
    5.4472    0.9001   -0.4190 C   0  0  0  0  0  0  0  0  0  0  0  0
    6.5561    0.7805   -0.9033 O   0  0  0  0  0  0  0  0  0  0  0  0
    4.9439   -0.1529    0.5399 C   0  0  0  0  0  0  0  0  0  0  0  0
    3.4640   -0.4244    0.2938 C   0  0  0  0  0  0  0  0  0  0  0  0
    2.8536   -1.3268    1.3522 C   0  0  0  0  0  0  0  0  0  0  0  0
    1.4202   -1.7494    1.0317 C   0  0  0  0  0  0  0  0  0  0  0  0
    0.8367   -1.0244   -0.1578 C   0  0  0  0  0  0  0  0  0  0  0  0
   -0.6674   -1.2320   -0.3021 C   0  0  0  0  0  0  0  0  0  0  0  0
   -1.2465   -2.1787    0.7319 C   0  0  0  0  0  0  0  0  0  0  0  0
   -2.7079   -2.4969    0.4546 C   0  0  0  0  0  0  0  0  0  0  0  0
   -3.5323   -1.3004    0.0088 C   0  0  0  0  0  0  0  0  0  0  0  0
   -4.8790   -1.3186    0.7455 C   0  0  0  0  0  0  0  0  0  0  0  0
   -5.7789   -0.2387    0.1663 C   0  0  0  0  0  0  0  0  0  0  0  0
   -5.1529    1.1386    0.2175 C   0  0  0  0  0  0  0  0  0  0  0  0
   -5.4218    1.7620    1.6001 C   0  0  0  0  0  0  0  0  0  0  0  0
   -5.8354    1.9699   -0.7484 O   0  0  0  0  0  0  0  0  0  0  0  0
   -3.8276   -1.4178   -1.4872 C   0  0  0  0  0  0  0  0  0  0  0  0
   -0.7928   -1.9055   -1.6794 C   0  0  0  0  0  0  0  0  0  0  0  0
    1.3708   -1.6792   -1.4385 C   0  0  0  0  0  0  0  0  0  0  0  0
    5.7268   -1.4520    0.2247 C   0  0  0  0  0  0  0  0  0  0  0  0
    5.2569    0.2419    1.9783 C   0  0  0  0  0  0  0  0  0  0  0  0
    2.6341    1.7221    1.3203 C   0  0  0  0  0  0  0  0  0  0  0  0
   -2.1059    2.6215    0.5237 H   0  0  0  0  0  0  0  0  0  0  0  0
   -3.7394    3.3273    0.4815 H   0  0  0  0  0  0  0  0  0  0  0  0
   -3.2745    2.2382    1.8104 H   0  0  0  0  0  0  0  0  0  0  0  0
   -3.5128    1.4546   -1.1306 H   0  0  0  0  0  0  0  0  0  0  0  0
   -2.6828    0.0592    1.4166 H   0  0  0  0  0  0  0  0  0  0  0  0
   -1.6135    1.9743   -1.1372 H   0  0  0  0  0  0  0  0  0  0  0  0
    0.6062    0.6509   -2.2595 H   0  0  0  0  0  0  0  0  0  0  0  0
    0.7843    2.1891   -1.3759 H   0  0  0  0  0  0  0  0  0  0  0  0
    0.6288    0.8467    0.7618 H   0  0  0  0  0  0  0  0  0  0  0  0
    3.1658    1.0195   -2.0090 H   0  0  0  0  0  0  0  0  0  0  0  0
    2.5449    2.5106   -1.2569 H   0  0  0  0  0  0  0  0  0  0  0  0
    5.0127    2.5603   -1.6870 H   0  0  0  0  0  0  0  0  0  0  0  0
    4.5939    2.8214    0.0164 H   0  0  0  0  0  0  0  0  0  0  0  0
    3.4858   -0.9885   -0.6653 H   0  0  0  0  0  0  0  0  0  0  0  0
    3.4645   -2.2351    1.4531 H   0  0  0  0  0  0  0  0  0  0  0  0
    2.8552   -0.8340    2.3293 H   0  0  0  0  0  0  0  0  0  0  0  0
    1.3979   -2.8321    0.8550 H   0  0  0  0  0  0  0  0  0  0  0  0
    0.7929   -1.5496    1.9145 H   0  0  0  0  0  0  0  0  0  0  0  0
   -0.6787   -3.1130    0.7377 H   0  0  0  0  0  0  0  0  0  0  0  0
   -1.1657   -1.7174    1.7212 H   0  0  0  0  0  0  0  0  0  0  0  0
   -2.7646   -3.2721   -0.3129 H   0  0  0  0  0  0  0  0  0  0  0  0
   -3.1513   -2.9017    1.3726 H   0  0  0  0  0  0  0  0  0  0  0  0
   -5.3491   -2.2926    0.6129 H   0  0  0  0  0  0  0  0  0  0  0  0
   -4.7134   -1.1405    1.8086 H   0  0  0  0  0  0  0  0  0  0  0  0
   -6.0873   -0.4847   -0.8524 H   0  0  0  0  0  0  0  0  0  0  0  0
   -6.7129   -0.2195    0.7703 H   0  0  0  0  0  0  0  0  0  0  0  0
   -4.9848    1.1313    2.3742 H   0  0  0  0  0  0  0  0  0  0  0  0
   -4.9737    2.7547    1.6444 H   0  0  0  0  0  0  0  0  0  0  0  0
   -6.4971    1.8413    1.7600 H   0  0  0  0  0  0  0  0  0  0  0  0
   -6.7839    2.0646   -0.5854 H   0  0  0  0  0  0  0  0  0  0  0  0
   -4.1459   -2.4349   -1.7160 H   0  0  0  0  0  0  0  0  0  0  0  0
   -4.6201   -0.7197   -1.7570 H   0  0  0  0  0  0  0  0  0  0  0  0
   -2.9274   -1.1824   -2.0549 H   0  0  0  0  0  0  0  0  0  0  0  0
   -0.1515   -2.7862   -1.7129 H   0  0  0  0  0  0  0  0  0  0  0  0
   -1.8281   -2.2033   -1.8454 H   0  0  0  0  0  0  0  0  0  0  0  0
   -0.4876   -1.2041   -2.4560 H   0  0  0  0  0  0  0  0  0  0  0  0
    1.1803   -2.7519   -1.4048 H   0  0  0  0  0  0  0  0  0  0  0  0
    0.8678   -1.2479   -2.3041 H   0  0  0  0  0  0  0  0  0  0  0  0
    2.4436   -1.5030   -1.5166 H   0  0  0  0  0  0  0  0  0  0  0  0
    6.7933   -1.2768    0.3659 H   0  0  0  0  0  0  0  0  0  0  0  0
    5.3973   -2.2464    0.8944 H   0  0  0  0  0  0  0  0  0  0  0  0
    5.5407   -1.7469   -0.8080 H   0  0  0  0  0  0  0  0  0  0  0  0
    4.7269    1.1616    2.2262 H   0  0  0  0  0  0  0  0  0  0  0  0
    4.9377   -0.5540    2.6512 H   0  0  0  0  0  0  0  0  0  0  0  0
    6.3299    0.4005    2.0863 H   0  0  0  0  0  0  0  0  0  0  0  0
    2.3722    1.1328    2.1991 H   0  0  0  0  0  0  0  0  0  0  0  0
    3.6306    2.1444    1.4498 H   0  0  0  0  0  0  0  0  0  0  0  0
    1.9113    2.5283    1.1949 H   0  0  0  0  0  0  0  0  0  0  0  0
  1  2  1  0  0  0  0
  2  3  1  0  0  0  0
  3  4  1  0  0  0  0
  4  5  2  0  0  0  0
  5  6  1  0  0  0  0
  6  7  1  0  0  0  0
  7  8  1  0  0  0  0
  8  9  1  0  0  0  0
  9 10  1  0  0  0  0
 10 11  1  0  0  0  0
 11 12  2  0  0  0  0
 11 13  1  0  0  0  0
 13 14  1  0  0  0  0
  8 14  1  0  0  0  0
 14 15  1  0  0  0  0
 15 16  1  0  0  0  0
 16 17  1  0  0  0  0
  7 17  1  0  0  0  0
 17 18  1  0  0  0  0
  4 18  1  0  0  0  0
 18 19  1  0  0  0  0
 19 20  1  0  0  0  0
 20 21  1  0  0  0  0
  3 21  1  0  0  0  0
 21 22  1  0  0  0  0
 22 23  1  0  0  0  0
 23 24  1  0  0  0  0
  2 24  1  0  0  0  0
 24 25  1  0  0  0  0
 24 26  1  0  0  0  0
 21 27  1  0  0  0  0
 18 28  1  0  0  0  0
 17 29  1  0  0  0  0
 13 30  1  0  0  0  0
 13 31  1  0  0  0  0
  8 32  1  0  0  0  0
  1 33  1  0  0  0  0
  1 34  1  0  0  0  0
  1 35  1  0  0  0  0
  2 36  1  0  0  0  0
  3 37  1  0  0  0  0
  5 38  1  0  0  0  0
  6 39  1  0  0  0  0
  6 40  1  0  0  0  0
  7 41  1  0  0  0  0
  9 42  1  0  0  0  0
  9 43  1  0  0  0  0
 10 44  1  0  0  0  0
 10 45  1  0  0  0  0
 14 46  1  0  0  0  0
 15 47  1  0  0  0  0
 15 48  1  0  0  0  0
 16 49  1  0  0  0  0
 16 50  1  0  0  0  0
 19 51  1  0  0  0  0
 19 52  1  0  0  0  0
 20 53  1  0  0  0  0
 20 54  1  0  0  0  0
 22 55  1  0  0  0  0
 22 56  1  0  0  0  0
 23 57  1  0  0  0  0
 23 58  1  0  0  0  0
 25 59  1  0  0  0  0
 25 60  1  0  0  0  0
 25 61  1  0  0  0  0
 26 62  1  0  0  0  0
 27 63  1  0  0  0  0
 27 64  1  0  0  0  0
 27 65  1  0  0  0  0
 28 66  1  0  0  0  0
 28 67  1  0  0  0  0
 28 68  1  0  0  0  0
 29 69  1  0  0  0  0
 29 70  1  0  0  0  0
 29 71  1  0  0  0  0
 30 72  1  0  0  0  0
 30 73  1  0  0  0  0
 30 74  1  0  0  0  0
 31 75  1  0  0  0  0
 31 76  1  0  0  0  0
 31 77  1  0  0  0  0
 32 78  1  0  0  0  0
 32 79  1  0  0  0  0
 32 80  1  0  0  0  0
M  END
$$$$
