C41H58O3
APtclcactv06291803073D 0   0.00000     0.00000
 
102104  0  0  0  0  0  0  0  0999 V2000
   12.5188   -3.2004   -0.9240 C   0  0  0  0  0  0  0  0  0  0  0  0
   11.3191   -2.3444   -1.3349 C   0  0  0  0  0  0  0  0  0  0  0  0
   10.0919   -2.8448   -0.5923 C   0  0  0  0  0  0  0  0  0  0  0  0
    9.9964   -2.2641    0.8243 C   0  0  0  0  0  0  0  0  0  0  0  0
    9.9546   -0.7613    0.6648 C   0  0  0  0  0  0  0  0  0  0  0  0
    9.6106    0.1701    1.4964 C   0  0  0  0  0  0  0  0  0  0  0  0
    9.8177    1.5079    0.8142 C   0  0  0  0  0  0  0  0  0  0  0  0
   10.7028    1.2422   -0.2962 O   0  0  0  0  0  0  0  0  0  0  0  0
   10.4026   -0.1160   -0.6429 C   0  0  0  0  0  0  0  0  0  0  0  0
   11.6551   -0.8820   -1.0724 C   0  0  0  0  0  0  0  0  0  0  0  0
    9.3021   -0.1860   -1.7035 C   0  0  0  0  0  0  0  0  0  0  0  0
    8.5023    2.0477    0.3149 C   0  0  0  0  0  0  0  0  0  0  0  0
    7.3617    1.4158    0.6169 C   0  0  0  0  0  0  0  0  0  0  0  0
    6.1263    1.9228    0.1480 C   0  0  0  0  0  0  0  0  0  0  0  0
    4.9645    1.2793    0.4556 C   0  0  0  0  0  0  0  0  0  0  0  0
    3.7417    1.7811   -0.0085 C   0  0  0  0  0  0  0  0  0  0  0  0
    2.5642    1.1288    0.3032 C   0  0  0  0  0  0  0  0  0  0  0  0
    1.3475    1.6282   -0.1586 C   0  0  0  0  0  0  0  0  0  0  0  0
    0.1650    0.9731    0.1545 C   0  0  0  0  0  0  0  0  0  0  0  0
   -1.0469    1.4704   -0.3055 C   0  0  0  0  0  0  0  0  0  0  0  0
   -2.2341    0.8128    0.0089 C   0  0  0  0  0  0  0  0  0  0  0  0
   -2.2030   -0.4385    0.8482 C   0  0  0  0  0  0  0  0  0  0  0  0
   -3.4408    1.3080   -0.4491 C   0  0  0  0  0  0  0  0  0  0  0  0
   -4.6341    0.6469   -0.1332 C   0  0  0  0  0  0  0  0  0  0  0  0
   -5.8245    1.1355   -0.5850 C   0  0  0  0  0  0  0  0  0  0  0  0
   -7.0302    0.4676   -0.2658 C   0  0  0  0  0  0  0  0  0  0  0  0
   -6.9990   -0.7836    0.5735 C   0  0  0  0  0  0  0  0  0  0  0  0
   -8.1988    0.9472   -0.7094 C   0  0  0  0  0  0  0  0  0  0  0  0
   -9.3126    0.3302   -0.4145 C   0  0  0  0  0  0  0  0  0  0  0  0
  -10.4265   -0.2868   -0.1196 C   0  0  0  0  0  0  0  0  0  0  0  0
  -10.9742   -1.3717   -1.0203 C   0  0  0  0  0  0  0  0  0  0  0  0
  -12.4405   -1.0531   -1.3305 C   0  0  0  0  0  0  0  0  0  0  0  0
  -13.2096   -0.8734   -0.0206 C   0  0  0  0  0  0  0  0  0  0  0  0
  -12.6587    0.3319    0.7431 C   0  0  0  0  0  0  0  0  0  0  0  0
  -11.1975    0.0614    1.1343 C   0  0  0  0  0  0  0  0  0  0  0  0
  -11.1378   -1.1040    2.1238 C   0  0  0  0  0  0  0  0  0  0  0  0
  -10.6359    1.2319    1.7314 O   0  0  0  0  0  0  0  0  0  0  0  0
  -14.5935   -0.6619   -0.3076 O   0  0  0  0  0  0  0  0  0  0  0  0
  -10.1708   -1.4133   -2.3218 C   0  0  0  0  0  0  0  0  0  0  0  0
  -10.8811   -2.7241   -0.3109 C   0  0  0  0  0  0  0  0  0  0  0  0
    3.7106    3.0324   -0.8478 C   0  0  0  0  0  0  0  0  0  0  0  0
    8.4712    3.2990   -0.5244 C   0  0  0  0  0  0  0  0  0  0  0  0
    8.7193   -2.7555    1.5086 C   0  0  0  0  0  0  0  0  0  0  0  0
   11.2231   -2.6715    1.6429 C   0  0  0  0  0  0  0  0  0  0  0  0
   12.2967   -4.2510   -1.1113 H   0  0  0  0  0  0  0  0  0  0  0  0
   13.3923   -2.9045   -1.5050 H   0  0  0  0  0  0  0  0  0  0  0  0
   12.7221   -3.0556    0.1370 H   0  0  0  0  0  0  0  0  0  0  0  0
   11.1532   -2.4730   -2.4045 H   0  0  0  0  0  0  0  0  0  0  0  0
    9.2001   -2.5619   -1.1516 H   0  0  0  0  0  0  0  0  0  0  0  0
   10.1366   -3.9319   -0.5269 H   0  0  0  0  0  0  0  0  0  0  0  0
    9.2407    0.0199    2.4999 H   0  0  0  0  0  0  0  0  0  0  0  0
   10.2792    2.2151    1.5034 H   0  0  0  0  0  0  0  0  0  0  0  0
   12.4039   -0.8202   -0.2828 H   0  0  0  0  0  0  0  0  0  0  0  0
   12.0566   -0.4354   -1.9820 H   0  0  0  0  0  0  0  0  0  0  0  0
    9.5573    0.4699   -2.5358 H   0  0  0  0  0  0  0  0  0  0  0  0
    9.2093   -1.2106   -2.0637 H   0  0  0  0  0  0  0  0  0  0  0  0
    8.3557    0.1327   -1.2666 H   0  0  0  0  0  0  0  0  0  0  0  0
    7.3840    0.5191    1.2184 H   0  0  0  0  0  0  0  0  0  0  0  0
    6.1040    2.8195   -0.4535 H   0  0  0  0  0  0  0  0  0  0  0  0
    4.9869    0.3826    1.0571 H   0  0  0  0  0  0  0  0  0  0  0  0
    2.5865    0.2321    0.9047 H   0  0  0  0  0  0  0  0  0  0  0  0
    1.3252    2.5249   -0.7601 H   0  0  0  0  0  0  0  0  0  0  0  0
    0.1873    0.0764    0.7560 H   0  0  0  0  0  0  0  0  0  0  0  0
   -1.0692    2.3671   -0.9070 H   0  0  0  0  0  0  0  0  0  0  0  0
   -2.2852   -0.1714    1.9018 H   0  0  0  0  0  0  0  0  0  0  0  0
   -3.0370   -1.0830    0.5706 H   0  0  0  0  0  0  0  0  0  0  0  0
   -1.2642   -0.9660    0.6792 H   0  0  0  0  0  0  0  0  0  0  0  0
   -3.4631    2.2047   -1.0506 H   0  0  0  0  0  0  0  0  0  0  0  0
   -4.6118   -0.2498    0.4683 H   0  0  0  0  0  0  0  0  0  0  0  0
   -5.8469    2.0322   -1.1865 H   0  0  0  0  0  0  0  0  0  0  0  0
   -7.0812   -0.5166    1.6271 H   0  0  0  0  0  0  0  0  0  0  0  0
   -7.8331   -1.4282    0.2959 H   0  0  0  0  0  0  0  0  0  0  0  0
   -6.0603   -1.3112    0.4045 H   0  0  0  0  0  0  0  0  0  0  0  0
   -8.2211    1.8439   -1.3109 H   0  0  0  0  0  0  0  0  0  0  0  0
  -12.4972   -0.1344   -1.9144 H   0  0  0  0  0  0  0  0  0  0  0  0
  -12.8782   -1.8733   -1.8996 H   0  0  0  0  0  0  0  0  0  0  0  0
  -13.1002   -1.7699    0.5896 H   0  0  0  0  0  0  0  0  0  0  0  0
  -12.7103    1.2178    0.1102 H   0  0  0  0  0  0  0  0  0  0  0  0
  -13.2510    0.4933    1.6437 H   0  0  0  0  0  0  0  0  0  0  0  0
  -11.7381   -1.9320    1.7467 H   0  0  0  0  0  0  0  0  0  0  0  0
  -10.1039   -1.4287    2.2409 H   0  0  0  0  0  0  0  0  0  0  0  0
  -11.5289   -0.7817    3.0889 H   0  0  0  0  0  0  0  0  0  0  0  0
  -11.0945    1.5243    2.5310 H   0  0  0  0  0  0  0  0  0  0  0  0
  -15.1438   -0.5397    0.4781 H   0  0  0  0  0  0  0  0  0  0  0  0
   -9.1252   -1.6233   -2.0968 H   0  0  0  0  0  0  0  0  0  0  0  0
  -10.5675   -2.1957   -2.9687 H   0  0  0  0  0  0  0  0  0  0  0  0
  -10.2475   -0.4505   -2.8270 H   0  0  0  0  0  0  0  0  0  0  0  0
  -11.6695   -2.7965    0.4382 H   0  0  0  0  0  0  0  0  0  0  0  0
  -10.9981   -3.5257   -1.0402 H   0  0  0  0  0  0  0  0  0  0  0  0
   -9.9093   -2.8136    0.1746 H   0  0  0  0  0  0  0  0  0  0  0  0
    3.7927    2.7653   -1.9014 H   0  0  0  0  0  0  0  0  0  0  0  0
    2.7718    3.5599   -0.6789 H   0  0  0  0  0  0  0  0  0  0  0  0
    4.5446    3.6769   -0.5703 H   0  0  0  0  0  0  0  0  0  0  0  0
    8.5577    3.0322   -1.5777 H   0  0  0  0  0  0  0  0  0  0  0  0
    7.5306    3.8243   -0.3587 H   0  0  0  0  0  0  0  0  0  0  0  0
    9.3027    3.9455   -0.2438 H   0  0  0  0  0  0  0  0  0  0  0  0
    8.7347   -3.8438    1.5682 H   0  0  0  0  0  0  0  0  0  0  0  0
    8.6615   -2.3374    2.5135 H   0  0  0  0  0  0  0  0  0  0  0  0
    7.8517   -2.4356    0.9315 H   0  0  0  0  0  0  0  0  0  0  0  0
   12.0934   -2.1151    1.2948 H   0  0  0  0  0  0  0  0  0  0  0  0
   11.0474   -2.4500    2.6955 H   0  0  0  0  0  0  0  0  0  0  0  0
   11.4025   -3.7398    1.5214 H   0  0  0  0  0  0  0  0  0  0  0  0
  1  2  1  0  0  0  0
  2  3  1  0  0  0  0
  3  4  1  0  0  0  0
  4  5  1  0  0  0  0
  5  6  2  0  0  0  0
  6  7  1  0  0  0  0
  7  8  1  0  0  0  0
  8  9  1  0  0  0  0
  5  9  1  0  0  0  0
  9 10  1  0  0  0  0
  2 10  1  0  0  0  0
  9 11  1  0  0  0  0
  7 12  1  0  0  0  0
 12 13  2  0  0  0  0
 13 14  1  0  0  0  0
 14 15  2  0  0  0  0
 15 16  1  0  0  0  0
 16 17  2  0  0  0  0
 17 18  1  0  0  0  0
 18 19  2  0  0  0  0
 19 20  1  0  0  0  0
 20 21  2  0  0  0  0
 21 22  1  0  0  0  0
 21 23  1  0  0  0  0
 23 24  2  0  0  0  0
 24 25  1  0  0  0  0
 25 26  2  0  0  0  0
 26 27  1  0  0  0  0
 26 28  1  0  0  0  0
 28 29  2  0  0  0  0
 29 30  2  0  0  0  0
 30 31  1  0  0  0  0
 31 32  1  0  0  0  0
 32 33  1  0  0  0  0
 33 34  1  0  0  0  0
 34 35  1  0  0  0  0
 30 35  1  0  0  0  0
 35 36  1  0  0  0  0
 35 37  1  0  0  0  0
 33 38  1  0  0  0  0
 31 39  1  0  0  0  0
 31 40  1  0  0  0  0
 16 41  1  0  0  0  0
 12 42  1  0  0  0  0
  4 43  1  0  0  0  0
  4 44  1  0  0  0  0
  1 45  1  0  0  0  0
  1 46  1  0  0  0  0
  1 47  1  0  0  0  0
  2 48  1  0  0  0  0
  3 49  1  0  0  0  0
  3 50  1  0  0  0  0
  6 51  1  0  0  0  0
  7 52  1  0  0  0  0
 10 53  1  0  0  0  0
 10 54  1  0  0  0  0
 11 55  1  0  0  0  0
 11 56  1  0  0  0  0
 11 57  1  0  0  0  0
 13 58  1  0  0  0  0
 14 59  1  0  0  0  0
 15 60  1  0  0  0  0
 17 61  1  0  0  0  0
 18 62  1  0  0  0  0
 19 63  1  0  0  0  0
 20 64  1  0  0  0  0
 22 65  1  0  0  0  0
 22 66  1  0  0  0  0
 22 67  1  0  0  0  0
 23 68  1  0  0  0  0
 24 69  1  0  0  0  0
 25 70  1  0  0  0  0
 27 71  1  0  0  0  0
 27 72  1  0  0  0  0
 27 73  1  0  0  0  0
 28 74  1  0  0  0  0
 32 75  1  0  0  0  0
 32 76  1  0  0  0  0
 33 77  1  0  0  0  0
 34 78  1  0  0  0  0
 34 79  1  0  0  0  0
 36 80  1  0  0  0  0
 36 81  1  0  0  0  0
 36 82  1  0  0  0  0
 37 83  1  0  0  0  0
 38 84  1  0  0  0  0
 39 85  1  0  0  0  0
 39 86  1  0  0  0  0
 39 87  1  0  0  0  0
 40 88  1  0  0  0  0
 40 89  1  0  0  0  0
 40 90  1  0  0  0  0
 41 91  1  0  0  0  0
 41 92  1  0  0  0  0
 41 93  1  0  0  0  0
 42 94  1  0  0  0  0
 42 95  1  0  0  0  0
 42 96  1  0  0  0  0
 43 97  1  0  0  0  0
 43 98  1  0  0  0  0
 43 99  1  0  0  0  0
 44100  1  0  0  0  0
 44101  1  0  0  0  0
 44102  1  0  0  0  0
M  END
$$$$
