C16H16O11
APtclcactv06291803133D 0   0.00000     0.00000
 
 43 43  0  0  0  0  0  0  0  0999 V2000
    7.1374    1.7433    1.0617 C   0  0  0  0  0  0  0  0  0  0  0  0
    7.1707    0.4634    0.4271 O   0  0  0  0  0  0  0  0  0  0  0  0
    5.9757   -0.0834    0.0771 C   0  0  0  0  0  0  0  0  0  0  0  0
    5.9355   -1.3304   -0.5459 C   0  0  0  0  0  0  0  0  0  0  0  0
    4.7177   -1.8928   -0.9052 C   0  0  0  0  0  0  0  0  0  0  0  0
    3.5426   -1.2219   -0.6480 C   0  0  0  0  0  0  0  0  0  0  0  0
    3.5744    0.0300   -0.0226 C   0  0  0  0  0  0  0  0  0  0  0  0
    4.8022    0.5937    0.3439 C   0  0  0  0  0  0  0  0  0  0  0  0
    2.3222    0.7481    0.2530 C   0  0  0  0  0  0  0  0  0  0  0  0
    1.1381    0.2002   -0.0973 C   0  0  0  0  0  0  0  0  0  0  0  0
   -0.0699    0.8931    0.1686 C   0  0  0  0  0  0  0  0  0  0  0  0
   -0.0402    1.9809    0.7122 O   0  0  0  0  0  0  0  0  0  0  0  0
   -1.2526    0.3458   -0.1813 O   0  0  0  0  0  0  0  0  0  0  0  0
   -2.4296    1.0993    0.1168 C   0  0  0  0  0  0  0  0  0  0  0  0
   -2.7603    1.9964   -1.0481 C   0  0  0  0  0  0  0  0  0  0  0  0
   -2.1144    1.9265   -2.0668 O   0  0  0  0  0  0  0  0  0  0  0  0
   -3.7722    2.8732   -0.9538 O   0  0  0  0  0  0  0  0  0  0  0  0
   -3.5965    0.1431    0.3713 C   0  0  0  0  0  0  0  0  0  0  0  0
   -3.8389   -0.7092   -0.8760 C   0  0  0  0  0  0  0  0  0  0  0  0
   -4.9882   -1.6511   -0.6253 C   0  0  0  0  0  0  0  0  0  0  0  0
   -5.5553   -1.6417    0.4416 O   0  0  0  0  0  0  0  0  0  0  0  0
   -5.3820   -2.5005   -1.5872 O   0  0  0  0  0  0  0  0  0  0  0  0
   -3.2659   -0.7541    1.5362 C   0  0  0  0  0  0  0  0  0  0  0  0
   -3.9663   -0.7487    2.5207 O   0  0  0  0  0  0  0  0  0  0  0  0
   -2.1933   -1.5591    1.4801 O   0  0  0  0  0  0  0  0  0  0  0  0
   -4.7736    0.8966    0.6695 O   0  0  0  0  0  0  0  0  0  0  0  0
    7.0909   -1.9965   -0.8025 O   0  0  0  0  0  0  0  0  0  0  0  0
    8.1546    2.0635    1.2874 H   0  0  0  0  0  0  0  0  0  0  0  0
    6.6680    2.4671    0.3955 H   0  0  0  0  0  0  0  0  0  0  0  0
    6.5643    1.6756    1.9864 H   0  0  0  0  0  0  0  0  0  0  0  0
    4.6919   -2.8586   -1.3878 H   0  0  0  0  0  0  0  0  0  0  0  0
    2.5969   -1.6614   -0.9292 H   0  0  0  0  0  0  0  0  0  0  0  0
    4.8321    1.5591    0.8270 H   0  0  0  0  0  0  0  0  0  0  0  0
    2.3486    1.7139    0.7357 H   0  0  0  0  0  0  0  0  0  0  0  0
    1.1117   -0.7656   -0.5800 H   0  0  0  0  0  0  0  0  0  0  0  0
   -2.2570    1.7065    1.0054 H   0  0  0  0  0  0  0  0  0  0  0  0
   -3.9465    3.4273   -1.7270 H   0  0  0  0  0  0  0  0  0  0  0  0
   -4.0780   -0.0603   -1.7185 H   0  0  0  0  0  0  0  0  0  0  0  0
   -2.9411   -1.2839   -1.1034 H   0  0  0  0  0  0  0  0  0  0  0  0
   -6.1236   -3.0853   -1.3798 H   0  0  0  0  0  0  0  0  0  0  0  0
   -2.0217   -2.1163    2.2515 H   0  0  0  0  0  0  0  0  0  0  0  0
   -5.0458    1.4970   -0.0379 H   0  0  0  0  0  0  0  0  0  0  0  0
    7.3744   -2.5823   -0.0873 H   0  0  0  0  0  0  0  0  0  0  0  0
  1  2  1  0  0  0  0
  2  3  1  0  0  0  0
  3  4  2  0  0  0  0
  4  5  1  0  0  0  0
  5  6  2  0  0  0  0
  6  7  1  0  0  0  0
  7  8  2  0  0  0  0
  3  8  1  0  0  0  0
  7  9  1  0  0  0  0
  9 10  2  0  0  0  0
 10 11  1  0  0  0  0
 11 12  2  0  0  0  0
 11 13  1  0  0  0  0
 13 14  1  0  0  0  0
 14 15  1  0  0  0  0
 15 16  2  0  0  0  0
 15 17  1  0  0  0  0
 14 18  1  0  0  0  0
 18 19  1  0  0  0  0
 19 20  1  0  0  0  0
 20 21  2  0  0  0  0
 20 22  1  0  0  0  0
 18 23  1  0  0  0  0
 23 24  2  0  0  0  0
 23 25  1  0  0  0  0
 18 26  1  0  0  0  0
  4 27  1  0  0  0  0
  1 28  1  0  0  0  0
  1 29  1  0  0  0  0
  1 30  1  0  0  0  0
  5 31  1  0  0  0  0
  6 32  1  0  0  0  0
  8 33  1  0  0  0  0
  9 34  1  0  0  0  0
 10 35  1  0  0  0  0
 14 36  1  0  0  0  0
 17 37  1  0  0  0  0
 19 38  1  0  0  0  0
 19 39  1  0  0  0  0
 22 40  1  0  0  0  0
 25 41  1  0  0  0  0
 26 42  1  0  0  0  0
 27 43  1  0  0  0  0
M  END
$$$$
