C40H56O3
APtclcactv06291803103D 0   0.00000     0.00000
 
 99101  0  0  0  0  0  0  0  0999 V2000
  -10.8251   -1.1592   -1.8598 C   0  0  0  0  0  0  0  0  0  0  0  0
  -11.9204   -0.7466   -0.9104 C   0  0  0  0  0  0  0  0  0  0  0  0
  -11.6826    0.2558   -0.0812 C   0  0  0  0  0  0  0  0  0  0  0  0
  -12.6854    0.7740    0.9082 C   0  0  0  0  0  0  0  0  0  0  0  0
  -13.8008   -0.2528    1.1142 C   0  0  0  0  0  0  0  0  0  0  0  0
  -14.3183   -0.6929   -0.2607 C   0  0  0  0  0  0  0  0  0  0  0  0
  -13.2218   -1.4928   -0.9634 C   0  0  0  0  0  0  0  0  0  0  0  0
  -15.4801   -1.5088   -0.0977 O   0  0  0  0  0  0  0  0  0  0  0  0
  -11.9888    1.0411    2.2439 C   0  0  0  0  0  0  0  0  0  0  0  0
  -13.2879    2.0789    0.3837 C   0  0  0  0  0  0  0  0  0  0  0  0
  -10.4086    0.8757   -0.1293 C   0  0  0  0  0  0  0  0  0  0  0  0
   -9.2849    0.1349    0.0595 C   0  0  0  0  0  0  0  0  0  0  0  0
   -8.0191    0.7199   -0.1190 C   0  0  0  0  0  0  0  0  0  0  0  0
   -6.8906   -0.0241    0.0706 C   0  0  0  0  0  0  0  0  0  0  0  0
   -5.6285    0.5592   -0.1074 C   0  0  0  0  0  0  0  0  0  0  0  0
   -4.4900   -0.1914    0.0838 C   0  0  0  0  0  0  0  0  0  0  0  0
   -3.2294    0.3912   -0.0939 C   0  0  0  0  0  0  0  0  0  0  0  0
   -2.0901   -0.3599    0.0975 C   0  0  0  0  0  0  0  0  0  0  0  0
   -0.8300    0.2225   -0.0802 C   0  0  0  0  0  0  0  0  0  0  0  0
    0.3093   -0.5286    0.1112 C   0  0  0  0  0  0  0  0  0  0  0  0
    1.5699    0.0540   -0.0666 C   0  0  0  0  0  0  0  0  0  0  0  0
    2.7083   -0.6965    0.1246 C   0  0  0  0  0  0  0  0  0  0  0  0
    2.5974   -2.1451    0.5252 C   0  0  0  0  0  0  0  0  0  0  0  0
    3.9705   -0.1132   -0.0533 C   0  0  0  0  0  0  0  0  0  0  0  0
    5.0990   -0.8573    0.1363 C   0  0  0  0  0  0  0  0  0  0  0  0
    6.3648   -0.2723   -0.0422 C   0  0  0  0  0  0  0  0  0  0  0  0
    7.4885   -1.0131    0.1465 C   0  0  0  0  0  0  0  0  0  0  0  0
    7.3775   -2.4616    0.5471 C   0  0  0  0  0  0  0  0  0  0  0  0
    8.7649   -0.4232   -0.0334 C   0  0  0  0  0  0  0  0  0  0  0  0
    9.8699   -1.1517    0.1522 C   0  0  0  0  0  0  0  0  0  0  0  0
   11.2269   -0.5246   -0.0391 C   0  0  0  0  0  0  0  0  0  0  0  0
   11.8840    0.0220    1.2263 C   0  0  0  0  0  0  0  0  0  0  0  0
   12.3469    1.4613    0.9996 C   0  0  0  0  0  0  0  0  0  0  0  0
   13.2530    1.4948   -0.2363 C   0  0  0  0  0  0  0  0  0  0  0  0
   12.3823    1.3490   -1.4843 C   0  0  0  0  0  0  0  0  0  0  0  0
   11.5301    0.0924   -1.3957 C   0  0  0  0  0  0  0  0  0  0  0  0
   12.1124   -1.1375   -0.9894 O   0  0  0  0  0  0  0  0  0  0  0  0
   10.4243   -0.0102   -2.4480 C   0  0  0  0  0  0  0  0  0  0  0  0
   13.9542    2.7390   -0.2833 O   0  0  0  0  0  0  0  0  0  0  0  0
   10.8756   -0.0112    2.3764 C   0  0  0  0  0  0  0  0  0  0  0  0
   13.0899   -0.8476    1.5877 C   0  0  0  0  0  0  0  0  0  0  0  0
   -3.1185    1.8398   -0.4945 C   0  0  0  0  0  0  0  0  0  0  0  0
   -7.9082    2.1684   -0.5196 C   0  0  0  0  0  0  0  0  0  0  0  0
  -10.1505   -1.8522   -1.3571 H   0  0  0  0  0  0  0  0  0  0  0  0
  -11.2636   -1.6463   -2.7308 H   0  0  0  0  0  0  0  0  0  0  0  0
  -10.2691   -0.2774   -2.1782 H   0  0  0  0  0  0  0  0  0  0  0  0
  -13.4088   -1.1164    1.6515 H   0  0  0  0  0  0  0  0  0  0  0  0
  -14.6132    0.1984    1.6839 H   0  0  0  0  0  0  0  0  0  0  0  0
  -14.5650    0.1853   -0.8573 H   0  0  0  0  0  0  0  0  0  0  0  0
  -13.5058   -1.6598   -2.0024 H   0  0  0  0  0  0  0  0  0  0  0  0
  -13.1002   -2.4545   -0.4650 H   0  0  0  0  0  0  0  0  0  0  0  0
  -15.8601   -1.8227   -0.9296 H   0  0  0  0  0  0  0  0  0  0  0  0
  -11.2637    1.8456    2.1211 H   0  0  0  0  0  0  0  0  0  0  0  0
  -12.7300    1.3306    2.9888 H   0  0  0  0  0  0  0  0  0  0  0  0
  -11.4763    0.1373    2.5735 H   0  0  0  0  0  0  0  0  0  0  0  0
  -13.7801    1.8939   -0.5711 H   0  0  0  0  0  0  0  0  0  0  0  0
  -14.0165    2.4568    1.1009 H   0  0  0  0  0  0  0  0  0  0  0  0
  -12.4962    2.8157    0.2475 H   0  0  0  0  0  0  0  0  0  0  0  0
  -10.3309    1.9366   -0.3158 H   0  0  0  0  0  0  0  0  0  0  0  0
   -9.3644   -0.9032    0.3466 H   0  0  0  0  0  0  0  0  0  0  0  0
   -6.9701   -1.0622    0.3577 H   0  0  0  0  0  0  0  0  0  0  0  0
   -5.5490    1.5973   -0.3945 H   0  0  0  0  0  0  0  0  0  0  0  0
   -4.5695   -1.2295    0.3709 H   0  0  0  0  0  0  0  0  0  0  0  0
   -2.1696   -1.3980    0.3846 H   0  0  0  0  0  0  0  0  0  0  0  0
   -0.7505    1.2606   -0.3673 H   0  0  0  0  0  0  0  0  0  0  0  0
    0.2298   -1.5667    0.3982 H   0  0  0  0  0  0  0  0  0  0  0  0
    1.6494    1.0921   -0.3537 H   0  0  0  0  0  0  0  0  0  0  0  0
    2.5571   -2.7672   -0.3688 H   0  0  0  0  0  0  0  0  0  0  0  0
    3.4649   -2.4241    1.1233 H   0  0  0  0  0  0  0  0  0  0  0  0
    1.6900   -2.2916    1.1110 H   0  0  0  0  0  0  0  0  0  0  0  0
    4.0500    0.9249   -0.3404 H   0  0  0  0  0  0  0  0  0  0  0  0
    5.0195   -1.8954    0.4233 H   0  0  0  0  0  0  0  0  0  0  0  0
    6.4443    0.7658   -0.3293 H   0  0  0  0  0  0  0  0  0  0  0  0
    7.3373   -3.0838   -0.3470 H   0  0  0  0  0  0  0  0  0  0  0  0
    8.2451   -2.7406    1.1452 H   0  0  0  0  0  0  0  0  0  0  0  0
    6.4701   -2.6081    1.1329 H   0  0  0  0  0  0  0  0  0  0  0  0
    8.8444    0.6150   -0.3205 H   0  0  0  0  0  0  0  0  0  0  0  0
    9.7905   -2.1898    0.4393 H   0  0  0  0  0  0  0  0  0  0  0  0
   11.4808    2.1026    0.8359 H   0  0  0  0  0  0  0  0  0  0  0  0
   12.9029    1.8083    1.8705 H   0  0  0  0  0  0  0  0  0  0  0  0
   13.9660    0.6717   -0.1896 H   0  0  0  0  0  0  0  0  0  0  0  0
   11.7325    2.2196   -1.5731 H   0  0  0  0  0  0  0  0  0  0  0  0
   13.0225    1.2875   -2.3643 H   0  0  0  0  0  0  0  0  0  0  0  0
   10.7676    0.4374   -3.3807 H   0  0  0  0  0  0  0  0  0  0  0  0
   10.1794   -1.0588   -2.6168 H   0  0  0  0  0  0  0  0  0  0  0  0
    9.5379    0.5178   -2.0963 H   0  0  0  0  0  0  0  0  0  0  0  0
   14.5471    2.8279   -1.0421 H   0  0  0  0  0  0  0  0  0  0  0  0
   10.5535   -1.0384    2.5477 H   0  0  0  0  0  0  0  0  0  0  0  0
   11.3428    0.3786    3.2808 H   0  0  0  0  0  0  0  0  0  0  0  0
   10.0119    0.6024    2.1202 H   0  0  0  0  0  0  0  0  0  0  0  0
   13.8082   -0.8314    0.7680 H   0  0  0  0  0  0  0  0  0  0  0  0
   13.5605   -0.4590    2.4909 H   0  0  0  0  0  0  0  0  0  0  0  0
   12.7602   -1.8718    1.7617 H   0  0  0  0  0  0  0  0  0  0  0  0
   -3.0782    2.4619    0.3996 H   0  0  0  0  0  0  0  0  0  0  0  0
   -2.2110    1.9863   -1.0803 H   0  0  0  0  0  0  0  0  0  0  0  0
   -3.9860    2.1188   -1.0925 H   0  0  0  0  0  0  0  0  0  0  0  0
   -7.8679    2.7906    0.3745 H   0  0  0  0  0  0  0  0  0  0  0  0
   -7.0007    2.3149   -1.1054 H   0  0  0  0  0  0  0  0  0  0  0  0
   -8.7757    2.4475   -1.1176 H   0  0  0  0  0  0  0  0  0  0  0  0
  1  2  1  0  0  0  0
  2  3  2  0  0  0  0
  3  4  1  0  0  0  0
  4  5  1  0  0  0  0
  5  6  1  0  0  0  0
  6  7  1  0  0  0  0
  2  7  1  0  0  0  0
  6  8  1  0  0  0  0
  4  9  1  0  0  0  0
  4 10  1  0  0  0  0
  3 11  1  0  0  0  0
 11 12  2  0  0  0  0
 12 13  1  0  0  0  0
 13 14  2  0  0  0  0
 14 15  1  0  0  0  0
 15 16  2  0  0  0  0
 16 17  1  0  0  0  0
 17 18  2  0  0  0  0
 18 19  1  0  0  0  0
 19 20  2  0  0  0  0
 20 21  1  0  0  0  0
 21 22  2  0  0  0  0
 22 23  1  0  0  0  0
 22 24  1  0  0  0  0
 24 25  2  0  0  0  0
 25 26  1  0  0  0  0
 26 27  2  0  0  0  0
 27 28  1  0  0  0  0
 27 29  1  0  0  0  0
 29 30  2  0  0  0  0
 30 31  1  0  0  0  0
 31 32  1  0  0  0  0
 32 33  1  0  0  0  0
 33 34  1  0  0  0  0
 34 35  1  0  0  0  0
 35 36  1  0  0  0  0
 31 36  1  0  0  0  0
 36 37  1  0  0  0  0
 31 37  1  0  0  0  0
 36 38  1  0  0  0  0
 34 39  1  0  0  0  0
 32 40  1  0  0  0  0
 32 41  1  0  0  0  0
 17 42  1  0  0  0  0
 13 43  1  0  0  0  0
  1 44  1  0  0  0  0
  1 45  1  0  0  0  0
  1 46  1  0  0  0  0
  5 47  1  0  0  0  0
  5 48  1  0  0  0  0
  6 49  1  0  0  0  0
  7 50  1  0  0  0  0
  7 51  1  0  0  0  0
  8 52  1  0  0  0  0
  9 53  1  0  0  0  0
  9 54  1  0  0  0  0
  9 55  1  0  0  0  0
 10 56  1  0  0  0  0
 10 57  1  0  0  0  0
 10 58  1  0  0  0  0
 11 59  1  0  0  0  0
 12 60  1  0  0  0  0
 14 61  1  0  0  0  0
 15 62  1  0  0  0  0
 16 63  1  0  0  0  0
 18 64  1  0  0  0  0
 19 65  1  0  0  0  0
 20 66  1  0  0  0  0
 21 67  1  0  0  0  0
 23 68  1  0  0  0  0
 23 69  1  0  0  0  0
 23 70  1  0  0  0  0
 24 71  1  0  0  0  0
 25 72  1  0  0  0  0
 26 73  1  0  0  0  0
 28 74  1  0  0  0  0
 28 75  1  0  0  0  0
 28 76  1  0  0  0  0
 29 77  1  0  0  0  0
 30 78  1  0  0  0  0
 33 79  1  0  0  0  0
 33 80  1  0  0  0  0
 34 81  1  0  0  0  0
 35 82  1  0  0  0  0
 35 83  1  0  0  0  0
 38 84  1  0  0  0  0
 38 85  1  0  0  0  0
 38 86  1  0  0  0  0
 39 87  1  0  0  0  0
 40 88  1  0  0  0  0
 40 89  1  0  0  0  0
 40 90  1  0  0  0  0
 41 91  1  0  0  0  0
 41 92  1  0  0  0  0
 41 93  1  0  0  0  0
 42 94  1  0  0  0  0
 42 95  1  0  0  0  0
 42 96  1  0  0  0  0
 43 97  1  0  0  0  0
 43 98  1  0  0  0  0
 43 99  1  0  0  0  0
M  END
$$$$
