C24H38O12
APtclcactv06291803073D 0   0.00000     0.00000
 
 74 76  0  0  0  0  0  0  0  0999 V2000
    2.8240   -2.9362   -2.4918 C   0  0  0  0  0  0  0  0  0  0  0  0
    2.9549   -2.9209   -0.9906 C   0  0  0  0  0  0  0  0  0  0  0  0
    4.1729   -2.9157   -0.4630 C   0  0  0  0  0  0  0  0  0  0  0  0
    4.3565   -2.8909    0.9920 C   0  0  0  0  0  0  0  0  0  0  0  0
    5.4455   -2.6797    1.4832 O   0  0  0  0  0  0  0  0  0  0  0  0
    3.1401   -3.1374    1.8605 C   0  0  0  0  0  0  0  0  0  0  0  0
    1.9693   -2.3648    1.2361 C   0  0  0  0  0  0  0  0  0  0  0  0
    1.7025   -2.9063   -0.1654 C   0  0  0  0  0  0  0  0  0  0  0  0
    0.6693   -2.0417   -0.8408 C   0  0  0  0  0  0  0  0  0  0  0  0
   -0.4631   -2.5653   -1.2403 C   0  0  0  0  0  0  0  0  0  0  0  0
   -1.4962   -1.7008   -1.9157 C   0  0  0  0  0  0  0  0  0  0  0  0
   -1.7696   -2.2372   -3.3222 C   0  0  0  0  0  0  0  0  0  0  0  0
   -2.7056   -1.7213   -1.1547 O   0  0  0  0  0  0  0  0  0  0  0  0
   -3.4743   -0.5206   -1.2525 C   0  0  0  0  0  0  0  0  0  0  0  0
   -4.7980   -0.6995   -0.5045 C   0  0  0  0  0  0  0  0  0  0  0  0
   -4.5078   -0.9461    0.9792 C   0  0  0  0  0  0  0  0  0  0  0  0
   -3.6833    0.2224    1.5279 C   0  0  0  0  0  0  0  0  0  0  0  0
   -2.4026    0.3657    0.7014 C   0  0  0  0  0  0  0  0  0  0  0  0
   -2.7434    0.5618   -0.6725 O   0  0  0  0  0  0  0  0  0  0  0  0
   -1.6021    1.5683    1.2052 C   0  0  0  0  0  0  0  0  0  0  0  0
   -0.3537    1.6333    0.5130 O   0  0  0  0  0  0  0  0  0  0  0  0
    0.4753    2.7271    0.9109 C   0  0  0  0  0  0  0  0  0  0  0  0
    1.8401    2.6355    0.2011 C   0  0  0  0  0  0  0  0  0  0  0  0
    1.9509    3.9669   -0.5812 C   0  0  0  0  0  0  0  0  0  0  0  0
    0.9438    4.8717    0.1733 C   0  0  0  0  0  0  0  0  0  0  0  0
   -0.1302    3.9689    0.5142 O   0  0  0  0  0  0  0  0  0  0  0  0
    3.3685    4.5357   -0.4927 C   0  0  0  0  0  0  0  0  0  0  0  0
    3.4079    5.8171   -1.1240 O   0  0  0  0  0  0  0  0  0  0  0  0
    1.5577    3.7920   -1.9438 O   0  0  0  0  0  0  0  0  0  0  0  0
    2.8956    2.5285    1.1584 O   0  0  0  0  0  0  0  0  0  0  0  0
   -4.4458    1.4278    1.4399 O   0  0  0  0  0  0  0  0  0  0  0  0
   -5.7393   -1.0412    1.6978 O   0  0  0  0  0  0  0  0  0  0  0  0
   -5.5900    0.4815   -0.6463 O   0  0  0  0  0  0  0  0  0  0  0  0
    1.2015   -4.2408   -0.0646 O   0  0  0  0  0  0  0  0  0  0  0  0
    0.7198   -2.5419    2.1012 C   0  0  0  0  0  0  0  0  0  0  0  0
    2.3258   -0.8796    1.1465 C   0  0  0  0  0  0  0  0  0  0  0  0
    3.8163   -2.9408   -2.9430 H   0  0  0  0  0  0  0  0  0  0  0  0
    2.2805   -3.8293   -2.8001 H   0  0  0  0  0  0  0  0  0  0  0  0
    2.2807   -2.0494   -2.8182 H   0  0  0  0  0  0  0  0  0  0  0  0
    5.0367   -2.9301   -1.1110 H   0  0  0  0  0  0  0  0  0  0  0  0
    2.9109   -4.2028    1.8840 H   0  0  0  0  0  0  0  0  0  0  0  0
    3.3265   -2.7749    2.8714 H   0  0  0  0  0  0  0  0  0  0  0  0
    0.8625   -0.9905   -0.9955 H   0  0  0  0  0  0  0  0  0  0  0  0
   -0.6562   -3.6166   -1.0856 H   0  0  0  0  0  0  0  0  0  0  0  0
   -1.1263   -0.6776   -1.9825 H   0  0  0  0  0  0  0  0  0  0  0  0
   -2.5169   -1.6119   -3.8107 H   0  0  0  0  0  0  0  0  0  0  0  0
   -0.8471   -2.2216   -3.9027 H   0  0  0  0  0  0  0  0  0  0  0  0
   -2.1395   -3.2603   -3.2553 H   0  0  0  0  0  0  0  0  0  0  0  0
   -3.6760   -0.3025   -2.3012 H   0  0  0  0  0  0  0  0  0  0  0  0
   -5.3370   -1.5524   -0.9169 H   0  0  0  0  0  0  0  0  0  0  0  0
   -3.9460   -1.8733    1.0916 H   0  0  0  0  0  0  0  0  0  0  0  0
   -3.4252    0.0288    2.5691 H   0  0  0  0  0  0  0  0  0  0  0  0
   -1.8023   -0.5385    0.8016 H   0  0  0  0  0  0  0  0  0  0  0  0
   -2.1667    2.4827    1.0229 H   0  0  0  0  0  0  0  0  0  0  0  0
   -1.4195    1.4611    2.2745 H   0  0  0  0  0  0  0  0  0  0  0  0
    0.6177    2.7101    1.9914 H   0  0  0  0  0  0  0  0  0  0  0  0
    1.8577    1.7879   -0.4840 H   0  0  0  0  0  0  0  0  0  0  0  0
    1.3986    5.2845    1.0738 H   0  0  0  0  0  0  0  0  0  0  0  0
    0.5832    5.6694   -0.4761 H   0  0  0  0  0  0  0  0  0  0  0  0
    3.6545    4.6375    0.5542 H   0  0  0  0  0  0  0  0  0  0  0  0
    4.0625    3.8617   -0.9950 H   0  0  0  0  0  0  0  0  0  0  0  0
    4.2782    6.2381   -1.1055 H   0  0  0  0  0  0  0  0  0  0  0  0
    1.6101    4.5984   -2.4749 H   0  0  0  0  0  0  0  0  0  0  0  0
    2.8419    1.7407    1.7165 H   0  0  0  0  0  0  0  0  0  0  0  0
   -5.2749    1.4059    1.9371 H   0  0  0  0  0  0  0  0  0  0  0  0
   -6.3156   -1.7574    1.3975 H   0  0  0  0  0  0  0  0  0  0  0  0
   -5.8079    0.7012   -1.5625 H   0  0  0  0  0  0  0  0  0  0  0  0
    1.0076   -4.6536   -0.9174 H   0  0  0  0  0  0  0  0  0  0  0  0
    0.9141   -2.1586    3.1029 H   0  0  0  0  0  0  0  0  0  0  0  0
   -0.1105   -1.9930    1.6569 H   0  0  0  0  0  0  0  0  0  0  0  0
    0.4656   -3.6002    2.1600 H   0  0  0  0  0  0  0  0  0  0  0  0
    3.2138   -0.7559    0.5265 H   0  0  0  0  0  0  0  0  0  0  0  0
    1.4940   -0.3324    0.7031 H   0  0  0  0  0  0  0  0  0  0  0  0
    2.5238   -0.4925    2.1460 H   0  0  0  0  0  0  0  0  0  0  0  0
  1  2  1  0  0  0  0
  2  3  2  0  0  0  0
  3  4  1  0  0  0  0
  4  5  2  0  0  0  0
  4  6  1  0  0  0  0
  6  7  1  0  0  0  0
  7  8  1  0  0  0  0
  2  8  1  0  0  0  0
  8  9  1  0  0  0  0
  9 10  2  0  0  0  0
 10 11  1  0  0  0  0
 11 12  1  0  0  0  0
 11 13  1  0  0  0  0
 13 14  1  0  0  0  0
 14 15  1  0  0  0  0
 15 16  1  0  0  0  0
 16 17  1  0  0  0  0
 17 18  1  0  0  0  0
 18 19  1  0  0  0  0
 14 19  1  0  0  0  0
 18 20  1  0  0  0  0
 20 21  1  0  0  0  0
 21 22  1  0  0  0  0
 22 23  1  0  0  0  0
 23 24  1  0  0  0  0
 24 25  1  0  0  0  0
 25 26  1  0  0  0  0
 22 26  1  0  0  0  0
 24 27  1  0  0  0  0
 27 28  1  0  0  0  0
 24 29  1  0  0  0  0
 23 30  1  0  0  0  0
 17 31  1  0  0  0  0
 16 32  1  0  0  0  0
 15 33  1  0  0  0  0
  8 34  1  0  0  0  0
  7 35  1  0  0  0  0
  7 36  1  0  0  0  0
  1 37  1  0  0  0  0
  1 38  1  0  0  0  0
  1 39  1  0  0  0  0
  3 40  1  0  0  0  0
  6 41  1  0  0  0  0
  6 42  1  0  0  0  0
  9 43  1  0  0  0  0
 10 44  1  0  0  0  0
 11 45  1  0  0  0  0
 12 46  1  0  0  0  0
 12 47  1  0  0  0  0
 12 48  1  0  0  0  0
 14 49  1  0  0  0  0
 15 50  1  0  0  0  0
 16 51  1  0  0  0  0
 17 52  1  0  0  0  0
 18 53  1  0  0  0  0
 20 54  1  0  0  0  0
 20 55  1  0  0  0  0
 22 56  1  0  0  0  0
 23 57  1  0  0  0  0
 25 58  1  0  0  0  0
 25 59  1  0  0  0  0
 27 60  1  0  0  0  0
 27 61  1  0  0  0  0
 28 62  1  0  0  0  0
 29 63  1  0  0  0  0
 30 64  1  0  0  0  0
 31 65  1  0  0  0  0
 32 66  1  0  0  0  0
 33 67  1  0  0  0  0
 34 68  1  0  0  0  0
 35 69  1  0  0  0  0
 35 70  1  0  0  0  0
 35 71  1  0  0  0  0
 36 72  1  0  0  0  0
 36 73  1  0  0  0  0
 36 74  1  0  0  0  0
M  END
$$$$
