C12H22O11
APtclcactv06291803133D 0   0.00000     0.00000
 
 45 46  0  0  0  0  0  0  0  0999 V2000
   -1.1767   -3.1911    0.0685 C   0  0  0  0  0  0  0  0  0  0  0  0
   -2.3045   -2.3476    0.3102 O   0  0  0  0  0  0  0  0  0  0  0  0
   -2.5463   -1.3903   -0.7228 C   0  0  0  0  0  0  0  0  0  0  0  0
   -3.8409   -0.6306   -0.4221 C   0  0  0  0  0  0  0  0  0  0  0  0
   -3.6797    0.1364    0.8940 C   0  0  0  0  0  0  0  0  0  0  0  0
   -2.4703    1.0699    0.7834 C   0  0  0  0  0  0  0  0  0  0  0  0
   -1.2286    0.2445    0.4361 C   0  0  0  0  0  0  0  0  0  0  0  0
   -1.4568   -0.4674   -0.7818 O   0  0  0  0  0  0  0  0  0  0  0  0
   -0.1069    1.1153    0.2760 O   0  0  0  0  0  0  0  0  0  0  0  0
    1.1310    0.4350    0.0602 C   0  0  0  0  0  0  0  0  0  0  0  0
    2.0496    1.3073   -0.7979 C   0  0  0  0  0  0  0  0  0  0  0  0
    3.3750    0.5788   -1.0289 C   0  0  0  0  0  0  0  0  0  0  0  0
    4.0464    0.3020    0.3178 C   0  0  0  0  0  0  0  0  0  0  0  0
    3.1278   -0.5703    1.1758 C   0  0  0  0  0  0  0  0  0  0  0  0
    1.8024    0.1582    1.4069 C   0  0  0  0  0  0  0  0  0  0  0  0
    2.0493    1.3948    2.0791 O   0  0  0  0  0  0  0  0  0  0  0  0
    2.8809   -1.8069    0.5036 O   0  0  0  0  0  0  0  0  0  0  0  0
    5.2843   -0.3783    0.1020 O   0  0  0  0  0  0  0  0  0  0  0  0
    3.1281   -0.6578   -1.7011 O   0  0  0  0  0  0  0  0  0  0  0  0
    1.4225    1.5658   -2.0556 O   0  0  0  0  0  0  0  0  0  0  0  0
   -2.7046    2.0353   -0.2437 O   0  0  0  0  0  0  0  0  0  0  0  0
   -4.8567    0.9068    1.1456 O   0  0  0  0  0  0  0  0  0  0  0  0
   -4.1116    0.2899   -1.4811 O   0  0  0  0  0  0  0  0  0  0  0  0
   -0.2784   -2.5801   -0.0203 H   0  0  0  0  0  0  0  0  0  0  0  0
   -1.0607   -3.8891    0.8976 H   0  0  0  0  0  0  0  0  0  0  0  0
   -1.3305   -3.7475   -0.8561 H   0  0  0  0  0  0  0  0  0  0  0  0
   -2.6401   -1.9038   -1.6797 H   0  0  0  0  0  0  0  0  0  0  0  0
   -4.6658   -1.3375   -0.3330 H   0  0  0  0  0  0  0  0  0  0  0  0
   -3.5226   -0.5688    1.7101 H   0  0  0  0  0  0  0  0  0  0  0  0
   -2.3149    1.5790    1.7346 H   0  0  0  0  0  0  0  0  0  0  0  0
   -1.0269   -0.4644    1.2392 H   0  0  0  0  0  0  0  0  0  0  0  0
    0.9426   -0.5083   -0.4525 H   0  0  0  0  0  0  0  0  0  0  0  0
    2.2379    2.2505   -0.2851 H   0  0  0  0  0  0  0  0  0  0  0  0
    4.0294    1.2003   -1.6402 H   0  0  0  0  0  0  0  0  0  0  0  0
    4.2348    1.2453    0.8305 H   0  0  0  0  0  0  0  0  0  0  0  0
    3.6061   -0.7675    2.1352 H   0  0  0  0  0  0  0  0  0  0  0  0
    1.1480   -0.4633    2.0182 H   0  0  0  0  0  0  0  0  0  0  0  0
    2.4745    1.2954    2.9419 H   0  0  0  0  0  0  0  0  0  0  0  0
    3.6786   -2.3231    0.3240 H   0  0  0  0  0  0  0  0  0  0  0  0
    5.7656   -0.5864    0.9145 H   0  0  0  0  0  0  0  0  0  0  0  0
    3.9258   -1.1740   -1.8807 H   0  0  0  0  0  0  0  0  0  0  0  0
    1.9495    2.1147   -2.6524 H   0  0  0  0  0  0  0  0  0  0  0  0
   -1.9777    2.6606   -0.3690 H   0  0  0  0  0  0  0  0  0  0  0  0
   -5.6636    0.3791    1.2206 H   0  0  0  0  0  0  0  0  0  0  0  0
   -4.2206   -0.1274   -2.3466 H   0  0  0  0  0  0  0  0  0  0  0  0
  1  2  1  0  0  0  0
  2  3  1  0  0  0  0
  3  4  1  0  0  0  0
  4  5  1  0  0  0  0
  5  6  1  0  0  0  0
  6  7  1  0  0  0  0
  7  8  1  0  0  0  0
  3  8  1  0  0  0  0
  7  9  1  0  0  0  0
  9 10  1  0  0  0  0
 10 11  1  0  0  0  0
 11 12  1  0  0  0  0
 12 13  1  0  0  0  0
 13 14  1  0  0  0  0
 14 15  1  0  0  0  0
 10 15  1  0  0  0  0
 15 16  1  0  0  0  0
 14 17  1  0  0  0  0
 13 18  1  0  0  0  0
 12 19  1  0  0  0  0
 11 20  1  0  0  0  0
  6 21  1  0  0  0  0
  5 22  1  0  0  0  0
  4 23  1  0  0  0  0
  1 24  1  0  0  0  0
  1 25  1  0  0  0  0
  1 26  1  0  0  0  0
  3 27  1  0  0  0  0
  4 28  1  0  0  0  0
  5 29  1  0  0  0  0
  6 30  1  0  0  0  0
  7 31  1  0  0  0  0
 10 32  1  0  0  0  0
 11 33  1  0  0  0  0
 12 34  1  0  0  0  0
 13 35  1  0  0  0  0
 14 36  1  0  0  0  0
 15 37  1  0  0  0  0
 16 38  1  0  0  0  0
 17 39  1  0  0  0  0
 18 40  1  0  0  0  0
 19 41  1  0  0  0  0
 20 42  1  0  0  0  0
 21 43  1  0  0  0  0
 22 44  1  0  0  0  0
 23 45  1  0  0  0  0
M  END
$$$$
