C28H33O14
APtclcactv06291803093D 0   0.00000     0.00000
 
 75 79  0  0  0  0  0  0  0  0999 V2000
   -2.0259    1.9206    2.4974 C   0  0  0  0  0  0  0  0  0  0  0  0
   -3.2229    0.9817    2.3349 C   0  0  0  0  0  0  0  0  0  0  0  0
   -4.3085    1.6750    1.5060 C   0  0  0  0  0  0  0  0  0  0  0  0
   -5.4677    0.6986    1.2842 C   0  0  0  0  0  0  0  0  0  0  0  0
   -4.9365   -0.5661    0.6044 C   0  0  0  0  0  0  0  0  0  0  0  0
   -3.9092   -1.1440    1.4124 O   0  0  0  0  0  0  0  0  0  0  0  0
   -2.7784   -0.2939    1.6145 C   0  0  0  0  0  0  0  0  0  0  0  0
   -2.2068    0.0474    0.3501 O   0  0  0  0  0  0  0  0  0  0  0  0
   -1.6564   -1.0649   -0.3583 C   0  0  0  0  0  0  0  0  0  0  0  0
   -1.7640   -0.8158   -1.8658 C   0  0  0  0  0  0  0  0  0  0  0  0
   -1.1016   -1.9775   -2.6128 C   0  0  0  0  0  0  0  0  0  0  0  0
    0.3510   -2.1106   -2.1481 C   0  0  0  0  0  0  0  0  0  0  0  0
    0.3809   -2.3096   -0.7333 O   0  0  0  0  0  0  0  0  0  0  0  0
   -0.1824   -1.2333    0.0193 C   0  0  0  0  0  0  0  0  0  0  0  0
    0.5251   -0.0264   -0.2724 O   0  0  0  0  0  0  0  0  0  0  0  0
    1.8311    0.0288    0.1005 C   0  0  0  0  0  0  0  0  0  0  0  0
    2.6081    1.1754   -0.1448 C   0  0  0  0  0  0  0  0  0  0  0  0
    3.7719    1.2572    0.1739 O   0  3  0  0  0  0  0  0  0  0  0  0
    4.4064    0.3817    0.7340 C   0  0  0  0  0  0  0  0  0  0  0  0
    5.7567    0.5755    1.0628 C   0  0  0  0  0  0  0  0  0  0  0  0
    6.4593   -0.4258    1.6968 C   0  0  0  0  0  0  0  0  0  0  0  0
    5.8487   -1.6391    2.0204 C   0  0  0  0  0  0  0  0  0  0  0  0
    4.5349   -1.8592    1.7132 C   0  0  0  0  0  0  0  0  0  0  0  0
    3.7940   -0.8531    1.0667 C   0  0  0  0  0  0  0  0  0  0  0  0
    2.4348   -1.0346    0.7361 C   0  0  0  0  0  0  0  0  0  0  0  0
    3.9485   -3.0419    2.0304 O   0  0  0  0  0  0  0  0  0  0  0  0
    7.7659   -0.2300    2.0115 O   0  0  0  0  0  0  0  0  0  0  0  0
    1.9756    2.3290   -0.8210 C   0  0  0  0  0  0  0  0  0  0  0  0
    2.2699    3.6297   -0.4081 C   0  0  0  0  0  0  0  0  0  0  0  0
    1.6792    4.7018   -1.0407 C   0  0  0  0  0  0  0  0  0  0  0  0
    0.7917    4.4896   -2.0883 C   0  0  0  0  0  0  0  0  0  0  0  0
    0.4964    3.1966   -2.5019 C   0  0  0  0  0  0  0  0  0  0  0  0
    1.0874    2.1198   -1.8775 C   0  0  0  0  0  0  0  0  0  0  0  0
    0.2111    5.5486   -2.7091 O   0  0  0  0  0  0  0  0  0  0  0  0
    1.0023   -3.3066   -2.8455 C   0  0  0  0  0  0  0  0  0  0  0  0
    2.3882   -3.3616   -2.5019 O   0  0  0  0  0  0  0  0  0  0  0  0
   -1.8056   -3.1890   -2.3322 O   0  0  0  0  0  0  0  0  0  0  0  0
   -3.1407   -0.7304   -2.2392 O   0  0  0  0  0  0  0  0  0  0  0  0
   -6.0774   -1.5711    0.4337 C   0  0  0  0  0  0  0  0  0  0  0  0
   -5.6094   -2.7022   -0.3038 O   0  0  0  0  0  0  0  0  0  0  0  0
   -6.0503    0.3552    2.5431 O   0  0  0  0  0  0  0  0  0  0  0  0
   -4.7815    2.8275    2.2060 O   0  0  0  0  0  0  0  0  0  0  0  0
   -2.3444    2.8308    3.0054 H   0  0  0  0  0  0  0  0  0  0  0  0
   -1.2539    1.4264    3.0873 H   0  0  0  0  0  0  0  0  0  0  0  0
   -1.6265    2.1735    1.5153 H   0  0  0  0  0  0  0  0  0  0  0  0
   -3.6216    0.7265    3.3167 H   0  0  0  0  0  0  0  0  0  0  0  0
   -3.8957    1.9756    0.5430 H   0  0  0  0  0  0  0  0  0  0  0  0
   -6.2204    1.1651    0.6486 H   0  0  0  0  0  0  0  0  0  0  0  0
   -4.5287   -0.3093   -0.3733 H   0  0  0  0  0  0  0  0  0  0  0  0
   -2.0365   -0.8139    2.2205 H   0  0  0  0  0  0  0  0  0  0  0  0
   -2.2056   -1.9700   -0.0986 H   0  0  0  0  0  0  0  0  0  0  0  0
   -1.2579    0.1160   -2.1184 H   0  0  0  0  0  0  0  0  0  0  0  0
   -1.1246   -1.7816   -3.6848 H   0  0  0  0  0  0  0  0  0  0  0  0
    0.8976   -1.2015   -2.3989 H   0  0  0  0  0  0  0  0  0  0  0  0
   -0.1027   -1.4534    1.0838 H   0  0  0  0  0  0  0  0  0  0  0  0
    6.2445    1.5078    0.8190 H   0  0  0  0  0  0  0  0  0  0  0  0
    6.4190   -2.4100    2.5171 H   0  0  0  0  0  0  0  0  0  0  0  0
    1.9038   -1.9476    0.9621 H   0  0  0  0  0  0  0  0  0  0  0  0
    3.5402   -3.0559    2.9068 H   0  0  0  0  0  0  0  0  0  0  0  0
    7.9060    0.1562    2.8869 H   0  0  0  0  0  0  0  0  0  0  0  0
    2.9595    3.7954    0.4064 H   0  0  0  0  0  0  0  0  0  0  0  0
    1.9061    5.7083   -0.7216 H   0  0  0  0  0  0  0  0  0  0  0  0
   -0.1943    3.0355   -3.3164 H   0  0  0  0  0  0  0  0  0  0  0  0
    0.8573    1.1150   -2.1996 H   0  0  0  0  0  0  0  0  0  0  0  0
    0.7134    5.8862   -3.4632 H   0  0  0  0  0  0  0  0  0  0  0  0
    0.5116   -4.2256   -2.5247 H   0  0  0  0  0  0  0  0  0  0  0  0
    0.8996   -3.1978   -3.9252 H   0  0  0  0  0  0  0  0  0  0  0  0
    2.8656   -4.0972   -2.9095 H   0  0  0  0  0  0  0  0  0  0  0  0
   -1.4397   -3.9677   -2.7736 H   0  0  0  0  0  0  0  0  0  0  0  0
   -3.2834   -0.5732   -3.1826 H   0  0  0  0  0  0  0  0  0  0  0  0
   -6.4256   -1.8956    1.4143 H   0  0  0  0  0  0  0  0  0  0  0  0
   -6.8989   -1.1001   -0.1060 H   0  0  0  0  0  0  0  0  0  0  0  0
   -6.2816   -3.3818   -0.4502 H   0  0  0  0  0  0  0  0  0  0  0  0
   -6.7923   -0.2615    2.4780 H   0  0  0  0  0  0  0  0  0  0  0  0
   -5.4722    3.3161    1.7378 H   0  0  0  0  0  0  0  0  0  0  0  0
  1  2  1  0  0  0  0
  2  3  1  0  0  0  0
  3  4  1  0  0  0  0
  4  5  1  0  0  0  0
  5  6  1  0  0  0  0
  6  7  1  0  0  0  0
  2  7  1  0  0  0  0
  7  8  1  0  0  0  0
  8  9  1  0  0  0  0
  9 10  1  0  0  0  0
 10 11  1  0  0  0  0
 11 12  1  0  0  0  0
 12 13  1  0  0  0  0
 13 14  1  0  0  0  0
  9 14  1  0  0  0  0
 14 15  1  0  0  0  0
 15 16  1  0  0  0  0
 16 17  2  0  0  0  0
 17 18  1  0  0  0  0
 18 19  2  0  0  0  0
 19 20  1  0  0  0  0
 20 21  2  0  0  0  0
 21 22  1  0  0  0  0
 22 23  2  0  0  0  0
 23 24  1  0  0  0  0
 19 24  1  0  0  0  0
 24 25  2  0  0  0  0
 16 25  1  0  0  0  0
 23 26  1  0  0  0  0
 21 27  1  0  0  0  0
 17 28  1  0  0  0  0
 28 29  2  0  0  0  0
 29 30  1  0  0  0  0
 30 31  2  0  0  0  0
 31 32  1  0  0  0  0
 32 33  2  0  0  0  0
 28 33  1  0  0  0  0
 31 34  1  0  0  0  0
 12 35  1  0  0  0  0
 35 36  1  0  0  0  0
 11 37  1  0  0  0  0
 10 38  1  0  0  0  0
  5 39  1  0  0  0  0
 39 40  1  0  0  0  0
  4 41  1  0  0  0  0
  3 42  1  0  0  0  0
  1 43  1  0  0  0  0
  1 44  1  0  0  0  0
  1 45  1  0  0  0  0
  2 46  1  0  0  0  0
  3 47  1  0  0  0  0
  4 48  1  0  0  0  0
  5 49  1  0  0  0  0
  7 50  1  0  0  0  0
  9 51  1  0  0  0  0
 10 52  1  0  0  0  0
 11 53  1  0  0  0  0
 12 54  1  0  0  0  0
 14 55  1  0  0  0  0
 20 56  1  0  0  0  0
 22 57  1  0  0  0  0
 25 58  1  0  0  0  0
 26 59  1  0  0  0  0
 27 60  1  0  0  0  0
 29 61  1  0  0  0  0
 30 62  1  0  0  0  0
 32 63  1  0  0  0  0
 33 64  1  0  0  0  0
 34 65  1  0  0  0  0
 35 66  1  0  0  0  0
 35 67  1  0  0  0  0
 36 68  1  0  0  0  0
 37 69  1  0  0  0  0
 38 70  1  0  0  0  0
 39 71  1  0  0  0  0
 39 72  1  0  0  0  0
 40 73  1  0  0  0  0
 41 74  1  0  0  0  0
 42 75  1  0  0  0  0
M  CHG  1  18   1
M  END
$$$$
