C19H24O7
APtclcactv06291803103D 0   0.00000     0.00000
 
 50 54  0  0  0  0  0  0  0  0999 V2000
   -3.3009    1.4936   -0.9302 C   0  0  0  0  0  0  0  0  0  0  0  0
   -2.4729    0.3217   -0.3860 C   0  0  0  0  0  0  0  0  0  0  0  0
   -0.9999    0.5510   -0.5332 C   0  0  0  0  0  0  0  0  0  0  0  0
   -0.0417    1.2847    0.3634 C   0  0  0  0  0  0  0  0  0  0  0  0
    1.2836    0.5534    0.1125 C   0  0  0  0  0  0  0  0  0  0  0  0
    1.9786    0.2222    1.4482 C   0  0  0  0  0  0  0  0  0  0  0  0
    3.3192   -0.3452    0.8974 C   0  0  0  0  0  0  0  0  0  0  0  0
    3.0031   -1.7846    0.5009 C   0  0  0  0  0  0  0  0  0  0  0  0
    1.8863   -1.8788   -0.5112 C   0  0  0  0  0  0  0  0  0  0  0  0
    0.9382   -0.7499   -0.6425 C   0  0  0  0  0  0  0  0  0  0  0  0
   -0.5240   -0.9502   -0.3602 C   0  0  0  0  0  0  0  0  0  0  0  0
   -0.7454   -1.3484    1.0993 C   0  0  0  0  0  0  0  0  0  0  0  0
   -2.2283   -1.3744    1.4515 C   0  0  0  0  0  0  0  0  0  0  0  0
   -2.8961   -0.0675    1.0271 C   0  0  0  0  0  0  0  0  0  0  0  0
   -2.5691    0.9750    1.9501 O   0  0  0  0  0  0  0  0  0  0  0  0
   -2.8689   -2.4945    0.8438 O   0  0  0  0  0  0  0  0  0  0  0  0
   -1.4360   -1.6247   -1.2241 O   0  0  0  0  0  0  0  0  0  0  0  0
   -2.6098   -0.9320   -1.2766 C   0  0  0  0  0  0  0  0  0  0  0  0
   -3.5891   -1.2390   -1.9114 O   0  0  0  0  0  0  0  0  0  0  0  0
    4.1752   -2.3912   -0.0415 O   0  0  0  0  0  0  0  0  0  0  0  0
    3.6359    0.5006   -0.3205 C   0  0  0  0  0  0  0  0  0  0  0  0
    4.7779    0.5635   -0.9579 C   0  0  0  0  0  0  0  0  0  0  0  0
    2.3680    1.2838   -0.6700 C   0  0  0  0  0  0  0  0  0  0  0  0
    0.0308    2.7384   -0.0191 C   0  0  0  0  0  0  0  0  0  0  0  0
   -0.1038    3.0667   -1.1741 O   0  0  0  0  0  0  0  0  0  0  0  0
    0.2450    3.6704    0.9228 O   0  0  0  0  0  0  0  0  0  0  0  0
   -3.0844    1.6304   -1.9897 H   0  0  0  0  0  0  0  0  0  0  0  0
   -4.3618    1.2799   -0.8008 H   0  0  0  0  0  0  0  0  0  0  0  0
   -3.0445    2.4030   -0.3866 H   0  0  0  0  0  0  0  0  0  0  0  0
   -0.7987    0.8523   -1.5688 H   0  0  0  0  0  0  0  0  0  0  0  0
   -0.3343    1.1875    1.4103 H   0  0  0  0  0  0  0  0  0  0  0  0
    2.1479    1.1230    2.0412 H   0  0  0  0  0  0  0  0  0  0  0  0
    1.4430   -0.5295    2.0230 H   0  0  0  0  0  0  0  0  0  0  0  0
    4.1132   -0.2982    1.6393 H   0  0  0  0  0  0  0  0  0  0  0  0
    2.7073   -2.3339    1.3958 H   0  0  0  0  0  0  0  0  0  0  0  0
    2.3465   -2.0325   -1.4905 H   0  0  0  0  0  0  0  0  0  0  0  0
    1.3077   -2.7745   -0.2855 H   0  0  0  0  0  0  0  0  0  0  0  0
    0.9782   -0.4728   -1.7109 H   0  0  0  0  0  0  0  0  0  0  0  0
   -0.3206   -2.3408    1.2696 H   0  0  0  0  0  0  0  0  0  0  0  0
   -0.2468   -0.6378    1.7583 H   0  0  0  0  0  0  0  0  0  0  0  0
   -2.3230   -1.4770    2.5432 H   0  0  0  0  0  0  0  0  0  0  0  0
   -3.9876   -0.2070    1.0443 H   0  0  0  0  0  0  0  0  0  0  0  0
   -2.8514    0.7991    2.8581 H   0  0  0  0  0  0  0  0  0  0  0  0
   -3.8145   -2.5587    1.0357 H   0  0  0  0  0  0  0  0  0  0  0  0
    4.0511   -3.3098   -0.3168 H   0  0  0  0  0  0  0  0  0  0  0  0
    5.6165   -0.0290   -0.6231 H   0  0  0  0  0  0  0  0  0  0  0  0
    4.8813    1.2080   -1.8183 H   0  0  0  0  0  0  0  0  0  0  0  0
    2.1711    1.2307   -1.7372 H   0  0  0  0  0  0  0  0  0  0  0  0
    2.4867    2.3114   -0.3378 H   0  0  0  0  0  0  0  0  0  0  0  0
    0.2836    4.5909    0.6290 H   0  0  0  0  0  0  0  0  0  0  0  0
  1  2  1  0  0  0  0
  2  3  1  0  0  0  0
  3  4  1  0  0  0  0
  4  5  1  0  0  0  0
  5  6  1  0  0  0  0
  6  7  1  0  0  0  0
  7  8  1  0  0  0  0
  8  9  1  0  0  0  0
  9 10  1  0  0  0  0
  5 10  1  0  0  0  0
 10 11  1  0  0  0  0
  3 11  1  0  0  0  0
 11 12  1  0  0  0  0
 12 13  1  0  0  0  0
 13 14  1  0  0  0  0
  2 14  1  0  0  0  0
 14 15  1  0  0  0  0
 13 16  1  0  0  0  0
 11 17  1  0  0  0  0
 17 18  1  0  0  0  0
  2 18  1  0  0  0  0
 18 19  2  0  0  0  0
  8 20  1  0  0  0  0
  7 21  1  0  0  0  0
 21 22  2  0  0  0  0
 21 23  1  0  0  0  0
  5 23  1  0  0  0  0
  4 24  1  0  0  0  0
 24 25  2  0  0  0  0
 24 26  1  0  0  0  0
  1 27  1  0  0  0  0
  1 28  1  0  0  0  0
  1 29  1  0  0  0  0
  3 30  1  0  0  0  0
  4 31  1  0  0  0  0
  6 32  1  0  0  0  0
  6 33  1  0  0  0  0
  7 34  1  0  0  0  0
  8 35  1  0  0  0  0
  9 36  1  0  0  0  0
  9 37  1  0  0  0  0
 10 38  1  0  0  0  0
 12 39  1  0  0  0  0
 12 40  1  0  0  0  0
 13 41  1  0  0  0  0
 14 42  1  0  0  0  0
 15 43  1  0  0  0  0
 16 44  1  0  0  0  0
 20 45  1  0  0  0  0
 22 46  1  0  0  0  0
 22 47  1  0  0  0  0
 23 48  1  0  0  0  0
 23 49  1  0  0  0  0
 26 50  1  0  0  0  0
M  END
$$$$
