C18H24O7
APtclcactv06291803073D 0   0.00000     0.00000
 
 49 50  0  0  0  0  0  0  0  0999 V2000
    6.1904    0.5786   -0.7172 C   0  0  0  0  0  0  0  0  0  0  0  0
    4.8652    0.1346   -0.0947 C   0  0  0  0  0  0  0  0  0  0  0  0
    3.8566    1.2816   -0.1689 C   0  0  0  0  0  0  0  0  0  0  0  0
    2.4818    0.7932    0.2058 C   0  0  0  0  0  0  0  0  0  0  0  0
    1.5359    1.6848    0.6287 C   0  0  0  0  0  0  0  0  0  0  0  0
    0.2610    1.2480    0.9748 C   0  0  0  0  0  0  0  0  0  0  0  0
   -0.0671   -0.0974    0.8944 C   0  0  0  0  0  0  0  0  0  0  0  0
    0.8816   -1.0129    0.4680 C   0  0  0  0  0  0  0  0  0  0  0  0
    2.1646   -0.5665    0.1239 C   0  0  0  0  0  0  0  0  0  0  0  0
    3.1927   -1.5263   -0.3219 C   0  0  0  0  0  0  0  0  0  0  0  0
    3.0167   -2.7262   -0.2410 O   0  0  0  0  0  0  0  0  0  0  0  0
    4.3437   -1.0123   -0.8270 O   0  0  0  0  0  0  0  0  0  0  0  0
    0.5711   -2.3307    0.3848 O   0  0  0  0  0  0  0  0  0  0  0  0
   -1.4507   -0.5619    1.2699 C   0  0  0  0  0  0  0  0  0  0  0  0
   -2.3518   -0.5320    0.0338 C   0  0  0  0  0  0  0  0  0  0  0  0
   -3.7197   -1.1202    0.3854 C   0  0  0  0  0  0  0  0  0  0  0  0
   -4.3588   -0.2928    1.5025 C   0  0  0  0  0  0  0  0  0  0  0  0
   -4.6208   -1.0904   -0.8507 C   0  0  0  0  0  0  0  0  0  0  0  0
   -3.5589   -2.4704    0.8251 O   0  0  0  0  0  0  0  0  0  0  0  0
   -2.5152    0.8398   -0.4130 O   0  0  0  0  0  0  0  0  0  0  0  0
   -2.7092    1.0338   -1.7270 C   0  0  0  0  0  0  0  0  0  0  0  0
   -2.7414    0.0886   -2.4789 O   0  0  0  0  0  0  0  0  0  0  0  0
   -2.8869    2.4305   -2.2643 C   0  0  0  0  0  0  0  0  0  0  0  0
   -0.6677    2.1442    1.3943 O   0  0  0  0  0  0  0  0  0  0  0  0
   -0.2660    3.5142    1.4552 C   0  0  0  0  0  0  0  0  0  0  0  0
    6.5781    1.4388   -0.1714 H   0  0  0  0  0  0  0  0  0  0  0  0
    6.9089   -0.2393   -0.6641 H   0  0  0  0  0  0  0  0  0  0  0  0
    6.0284    0.8528   -1.7597 H   0  0  0  0  0  0  0  0  0  0  0  0
    5.0269   -0.1410    0.9474 H   0  0  0  0  0  0  0  0  0  0  0  0
    4.1583    2.0724    0.5180 H   0  0  0  0  0  0  0  0  0  0  0  0
    3.8346    1.6778   -1.1841 H   0  0  0  0  0  0  0  0  0  0  0  0
    1.7798    2.7348    0.6950 H   0  0  0  0  0  0  0  0  0  0  0  0
    0.2167   -2.5978   -0.4744 H   0  0  0  0  0  0  0  0  0  0  0  0
   -1.3996   -1.5792    1.6578 H   0  0  0  0  0  0  0  0  0  0  0  0
   -1.8606    0.0983    2.0343 H   0  0  0  0  0  0  0  0  0  0  0  0
   -1.8965   -1.1215   -0.7620 H   0  0  0  0  0  0  0  0  0  0  0  0
   -4.4814    0.7371    1.1671 H   0  0  0  0  0  0  0  0  0  0  0  0
   -5.3333   -0.7118    1.7530 H   0  0  0  0  0  0  0  0  0  0  0  0
   -3.7168   -0.3140    2.3831 H   0  0  0  0  0  0  0  0  0  0  0  0
   -4.1655   -1.6799   -1.6465 H   0  0  0  0  0  0  0  0  0  0  0  0
   -5.5953   -1.5094   -0.6002 H   0  0  0  0  0  0  0  0  0  0  0  0
   -4.7435   -0.0605   -1.1861 H   0  0  0  0  0  0  0  0  0  0  0  0
   -3.1584   -3.0536    0.1660 H   0  0  0  0  0  0  0  0  0  0  0  0
   -1.9995    3.0220   -2.0390 H   0  0  0  0  0  0  0  0  0  0  0  0
   -3.0313    2.3888   -3.3439 H   0  0  0  0  0  0  0  0  0  0  0  0
   -3.7583    2.8908   -1.7987 H   0  0  0  0  0  0  0  0  0  0  0  0
    0.0364    3.8486    0.4628 H   0  0  0  0  0  0  0  0  0  0  0  0
   -1.1004    4.1222    1.8049 H   0  0  0  0  0  0  0  0  0  0  0  0
    0.5722    3.6168    2.1443 H   0  0  0  0  0  0  0  0  0  0  0  0
  1  2  1  0  0  0  0
  2  3  1  0  0  0  0
  3  4  1  0  0  0  0
  4  5  2  0  0  0  0
  5  6  1  0  0  0  0
  6  7  2  0  0  0  0
  7  8  1  0  0  0  0
  8  9  2  0  0  0  0
  4  9  1  0  0  0  0
  9 10  1  0  0  0  0
 10 11  2  0  0  0  0
 10 12  1  0  0  0  0
  2 12  1  0  0  0  0
  8 13  1  0  0  0  0
  7 14  1  0  0  0  0
 14 15  1  0  0  0  0
 15 16  1  0  0  0  0
 16 17  1  0  0  0  0
 16 18  1  0  0  0  0
 16 19  1  0  0  0  0
 15 20  1  0  0  0  0
 20 21  1  0  0  0  0
 21 22  2  0  0  0  0
 21 23  1  0  0  0  0
  6 24  1  0  0  0  0
 24 25  1  0  0  0  0
  1 26  1  0  0  0  0
  1 27  1  0  0  0  0
  1 28  1  0  0  0  0
  2 29  1  0  0  0  0
  3 30  1  0  0  0  0
  3 31  1  0  0  0  0
  5 32  1  0  0  0  0
 13 33  1  0  0  0  0
 14 34  1  0  0  0  0
 14 35  1  0  0  0  0
 15 36  1  0  0  0  0
 17 37  1  0  0  0  0
 17 38  1  0  0  0  0
 17 39  1  0  0  0  0
 18 40  1  0  0  0  0
 18 41  1  0  0  0  0
 18 42  1  0  0  0  0
 19 43  1  0  0  0  0
 23 44  1  0  0  0  0
 23 45  1  0  0  0  0
 23 46  1  0  0  0  0
 25 47  1  0  0  0  0
 25 48  1  0  0  0  0
 25 49  1  0  0  0  0
M  END
$$$$
