C21H21O10
APtclcactv06291803113D 0   0.00000     0.00000
 
 52 55  0  0  0  0  0  0  0  0999 V2000
   -5.2726   -0.9794   -2.1514 C   0  0  0  0  0  0  0  0  0  0  0  0
   -5.0123   -2.1104   -1.3176 O   0  0  0  0  0  0  0  0  0  0  0  0
   -3.9313   -2.0357   -0.4958 C   0  0  0  0  0  0  0  0  0  0  0  0
   -3.6193   -3.1030    0.3440 C   0  0  0  0  0  0  0  0  0  0  0  0
   -2.5172   -3.0294    1.1839 C   0  0  0  0  0  0  0  0  0  0  0  0
   -1.7261   -1.9002    1.1906 C   0  0  0  0  0  0  0  0  0  0  0  0
   -2.0330   -0.8278    0.3515 C   0  0  0  0  0  0  0  0  0  0  0  0
   -3.1385   -0.9034   -0.4974 C   0  0  0  0  0  0  0  0  0  0  0  0
   -1.1854    0.3845    0.3581 C   0  0  0  0  0  0  0  0  0  0  0  0
    0.2097    0.2310    0.4517 C   0  0  0  0  0  0  0  0  0  0  0  0
    0.9844    1.3708    0.4560 C   0  0  0  0  0  0  0  0  0  0  0  0
    0.2762    2.5872    0.3643 C   0  0  0  0  0  0  0  0  0  0  0  0
    0.9411    3.8270    0.3573 C   0  0  0  0  0  0  0  0  0  0  0  0
    0.2158    4.9822    0.2664 C   0  0  0  0  0  0  0  0  0  0  0  0
   -1.1773    4.9404    0.1812 C   0  0  0  0  0  0  0  0  0  0  0  0
   -1.8529    3.7397    0.1859 C   0  0  0  0  0  0  0  0  0  0  0  0
   -1.1381    2.5356    0.2775 C   0  0  0  0  0  0  0  0  0  0  0  0
   -1.7204    1.4662    0.2779 O   0  3  0  0  0  0  0  0  0  0  0  0
   -1.8769    6.1010    0.0926 O   0  0  0  0  0  0  0  0  0  0  0  0
    2.2953    3.8760    0.4408 O   0  0  0  0  0  0  0  0  0  0  0  0
    0.7757   -1.0020    0.5356 O   0  0  0  0  0  0  0  0  0  0  0  0
    2.2007   -1.0569    0.6272 C   0  0  0  0  0  0  0  0  0  0  0  0
    2.6560   -2.5167    0.8400 C   0  0  0  0  0  0  0  0  0  0  0  0
    3.9323   -2.5957   -0.0413 C   0  0  0  0  0  0  0  0  0  0  0  0
    3.5439   -1.6513   -1.2067 C   0  0  0  0  0  0  0  0  0  0  0  0
    2.7844   -0.5956   -0.5967 O   0  0  0  0  0  0  0  0  0  0  0  0
    4.7997   -1.0856   -1.8729 C   0  0  0  0  0  0  0  0  0  0  0  0
    4.4258   -0.3118   -3.0146 O   0  0  0  0  0  0  0  0  0  0  0  0
    5.0749   -2.1033    0.6616 O   0  0  0  0  0  0  0  0  0  0  0  0
    2.9706   -2.7562    2.2132 O   0  0  0  0  0  0  0  0  0  0  0  0
   -4.3962   -4.2179    0.3407 O   0  0  0  0  0  0  0  0  0  0  0  0
   -4.4184   -0.8063   -2.8060 H   0  0  0  0  0  0  0  0  0  0  0  0
   -6.1602   -1.1695   -2.7548 H   0  0  0  0  0  0  0  0  0  0  0  0
   -5.4378   -0.0997   -1.5293 H   0  0  0  0  0  0  0  0  0  0  0  0
   -2.2788   -3.8583    1.8340 H   0  0  0  0  0  0  0  0  0  0  0  0
   -0.8691   -1.8452    1.8456 H   0  0  0  0  0  0  0  0  0  0  0  0
   -3.3787   -0.0757   -1.1483 H   0  0  0  0  0  0  0  0  0  0  0  0
    2.0616    1.3351    0.5254 H   0  0  0  0  0  0  0  0  0  0  0  0
    0.7244    5.9349    0.2610 H   0  0  0  0  0  0  0  0  0  0  0  0
   -2.9308    3.7251    0.1189 H   0  0  0  0  0  0  0  0  0  0  0  0
   -2.0246    6.4031   -0.8140 H   0  0  0  0  0  0  0  0  0  0  0  0
    2.7432    3.8554   -0.4160 H   0  0  0  0  0  0  0  0  0  0  0  0
    2.5419   -0.4384    1.4574 H   0  0  0  0  0  0  0  0  0  0  0  0
    1.8971   -3.2151    0.4872 H   0  0  0  0  0  0  0  0  0  0  0  0
    4.1008   -3.6116   -0.3984 H   0  0  0  0  0  0  0  0  0  0  0  0
    2.9339   -2.1828   -1.9371 H   0  0  0  0  0  0  0  0  0  0  0  0
    5.3333   -0.4526   -1.1639 H   0  0  0  0  0  0  0  0  0  0  0  0
    5.4459   -1.9058   -2.1856 H   0  0  0  0  0  0  0  0  0  0  0  0
    5.1737    0.0784   -3.4873 H   0  0  0  0  0  0  0  0  0  0  0  0
    5.2897   -2.6024    1.4616 H   0  0  0  0  0  0  0  0  0  0  0  0
    2.2240   -2.6321    2.8152 H   0  0  0  0  0  0  0  0  0  0  0  0
   -4.1151   -4.8913   -0.2938 H   0  0  0  0  0  0  0  0  0  0  0  0
  1  2  1  0  0  0  0
  2  3  1  0  0  0  0
  3  4  2  0  0  0  0
  4  5  1  0  0  0  0
  5  6  2  0  0  0  0
  6  7  1  0  0  0  0
  7  8  2  0  0  0  0
  3  8  1  0  0  0  0
  7  9  1  0  0  0  0
  9 10  2  0  0  0  0
 10 11  1  0  0  0  0
 11 12  2  0  0  0  0
 12 13  1  0  0  0  0
 13 14  2  0  0  0  0
 14 15  1  0  0  0  0
 15 16  2  0  0  0  0
 16 17  1  0  0  0  0
 12 17  1  0  0  0  0
 17 18  2  0  0  0  0
  9 18  1  0  0  0  0
 15 19  1  0  0  0  0
 13 20  1  0  0  0  0
 10 21  1  0  0  0  0
 21 22  1  0  0  0  0
 22 23  1  0  0  0  0
 23 24  1  0  0  0  0
 24 25  1  0  0  0  0
 25 26  1  0  0  0  0
 22 26  1  0  0  0  0
 25 27  1  0  0  0  0
 27 28  1  0  0  0  0
 24 29  1  0  0  0  0
 23 30  1  0  0  0  0
  4 31  1  0  0  0  0
  1 32  1  0  0  0  0
  1 33  1  0  0  0  0
  1 34  1  0  0  0  0
  5 35  1  0  0  0  0
  6 36  1  0  0  0  0
  8 37  1  0  0  0  0
 11 38  1  0  0  0  0
 14 39  1  0  0  0  0
 16 40  1  0  0  0  0
 19 41  1  0  0  0  0
 20 42  1  0  0  0  0
 22 43  1  0  0  0  0
 23 44  1  0  0  0  0
 24 45  1  0  0  0  0
 25 46  1  0  0  0  0
 27 47  1  0  0  0  0
 27 48  1  0  0  0  0
 28 49  1  0  0  0  0
 29 50  1  0  0  0  0
 30 51  1  0  0  0  0
 31 52  1  0  0  0  0
M  CHG  1  18   1
M  END
$$$$
