C32H44O14
APtclcactv06291803123D 0   0.00000     0.00000
 
 90 91  0  0  0  0  0  0  0  0999 V2000
   -8.6271    1.1707    1.0854 C   0  0  0  0  0  0  0  0  0  0  0  0
   -8.7980   -0.0579    0.2296 C   0  0  0  0  0  0  0  0  0  0  0  0
   -7.7041   -0.8253   -0.0987 C   0  0  0  0  0  0  0  0  0  0  0  0
   -6.4304   -0.4643    0.3630 C   0  0  0  0  0  0  0  0  0  0  0  0
   -5.3363   -1.2318    0.0346 C   0  0  0  0  0  0  0  0  0  0  0  0
   -4.0626   -0.8708    0.4963 C   0  0  0  0  0  0  0  0  0  0  0  0
   -2.9688   -1.6382    0.1679 C   0  0  0  0  0  0  0  0  0  0  0  0
   -3.1397   -2.8668   -0.6879 C   0  0  0  0  0  0  0  0  0  0  0  0
   -1.6945   -1.2770    0.6298 C   0  0  0  0  0  0  0  0  0  0  0  0
   -0.6089   -2.0386    0.3040 C   0  0  0  0  0  0  0  0  0  0  0  0
    0.6669   -1.6769    0.7665 C   0  0  0  0  0  0  0  0  0  0  0  0
    1.7501   -2.4368    0.4414 C   0  0  0  0  0  0  0  0  0  0  0  0
    1.5792   -3.6654   -0.4145 C   0  0  0  0  0  0  0  0  0  0  0  0
    3.0332   -2.0731    0.9065 C   0  0  0  0  0  0  0  0  0  0  0  0
    3.1713   -1.0808    1.5977 O   0  0  0  0  0  0  0  0  0  0  0  0
    4.1066   -2.8262    0.5843 O   0  0  0  0  0  0  0  0  0  0  0  0
    5.3736   -2.3994    1.0890 C   0  0  0  0  0  0  0  0  0  0  0  0
    6.4418   -3.4352    0.7289 C   0  0  0  0  0  0  0  0  0  0  0  0
    6.5567   -3.5298   -0.7956 C   0  0  0  0  0  0  0  0  0  0  0  0
    6.8788   -2.1424   -1.3594 C   0  0  0  0  0  0  0  0  0  0  0  0
    5.7937   -1.1565   -0.9186 C   0  0  0  0  0  0  0  0  0  0  0  0
    5.7182   -1.1400    0.5083 O   0  0  0  0  0  0  0  0  0  0  0  0
    6.1397    0.2442   -1.4275 C   0  0  0  0  0  0  0  0  0  0  0  0
    5.0715    1.1412   -1.1171 O   0  0  0  0  0  0  0  0  0  0  0  0
    5.2952    2.4840   -1.5517 C   0  0  0  0  0  0  0  0  0  0  0  0
    4.0440    3.3235   -1.2806 C   0  0  0  0  0  0  0  0  0  0  0  0
    3.7807    3.3609    0.2279 C   0  0  0  0  0  0  0  0  0  0  0  0
    5.0189    3.9172    0.9375 C   0  0  0  0  0  0  0  0  0  0  0  0
    6.2325    3.0548    0.5808 C   0  0  0  0  0  0  0  0  0  0  0  0
    6.4025    3.0377   -0.8380 O   0  0  0  0  0  0  0  0  0  0  0  0
    7.4846    3.6392    1.2378 C   0  0  0  0  0  0  0  0  0  0  0  0
    8.5953    2.7716    1.0018 O   0  0  0  0  0  0  0  0  0  0  0  0
    5.2481    5.2626    0.5139 O   0  0  0  0  0  0  0  0  0  0  0  0
    2.6574    4.2025    0.4963 O   0  0  0  0  0  0  0  0  0  0  0  0
    4.2473    4.6532   -1.7630 O   0  0  0  0  0  0  0  0  0  0  0  0
    8.1474   -1.7087   -0.8649 O   0  0  0  0  0  0  0  0  0  0  0  0
    7.6025   -4.4405   -1.1406 O   0  0  0  0  0  0  0  0  0  0  0  0
    7.6989   -3.0357    1.2787 O   0  0  0  0  0  0  0  0  0  0  0  0
  -10.0723   -0.4191   -0.2323 C   0  0  0  0  0  0  0  0  0  0  0  0
  -11.1578    0.3425    0.0935 C   0  0  0  0  0  0  0  0  0  0  0  0
  -12.4337   -0.0192   -0.3690 C   0  0  0  0  0  0  0  0  0  0  0  0
  -13.5169    0.7407   -0.0438 C   0  0  0  0  0  0  0  0  0  0  0  0
  -13.3460    1.9693    0.8120 C   0  0  0  0  0  0  0  0  0  0  0  0
  -14.8000    0.3770   -0.5089 C   0  0  0  0  0  0  0  0  0  0  0  0
  -14.9381   -0.6153   -1.2002 O   0  0  0  0  0  0  0  0  0  0  0  0
  -15.8734    1.1300   -0.1867 O   0  0  0  0  0  0  0  0  0  0  0  0
   -8.4408    2.0347    0.4476 H   0  0  0  0  0  0  0  0  0  0  0  0
   -9.5336    1.3372    1.6673 H   0  0  0  0  0  0  0  0  0  0  0  0
   -7.7831    1.0287    1.7604 H   0  0  0  0  0  0  0  0  0  0  0  0
   -7.8267   -1.7058   -0.7121 H   0  0  0  0  0  0  0  0  0  0  0  0
   -6.3079    0.4162    0.9763 H   0  0  0  0  0  0  0  0  0  0  0  0
   -5.4589   -2.1123   -0.5788 H   0  0  0  0  0  0  0  0  0  0  0  0
   -3.9401    0.0097    1.1096 H   0  0  0  0  0  0  0  0  0  0  0  0
   -3.0359   -2.5951   -1.7384 H   0  0  0  0  0  0  0  0  0  0  0  0
   -2.3782   -3.6012   -0.4256 H   0  0  0  0  0  0  0  0  0  0  0  0
   -4.1287   -3.2927   -0.5188 H   0  0  0  0  0  0  0  0  0  0  0  0
   -1.5720   -0.3965    1.2432 H   0  0  0  0  0  0  0  0  0  0  0  0
   -0.7315   -2.9190   -0.3093 H   0  0  0  0  0  0  0  0  0  0  0  0
    0.7895   -0.7964    1.3798 H   0  0  0  0  0  0  0  0  0  0  0  0
    1.6830   -3.3937   -1.4649 H   0  0  0  0  0  0  0  0  0  0  0  0
    2.3407   -4.3998   -0.1521 H   0  0  0  0  0  0  0  0  0  0  0  0
    0.5902   -4.0913   -0.2453 H   0  0  0  0  0  0  0  0  0  0  0  0
    5.3173   -2.2970    2.1727 H   0  0  0  0  0  0  0  0  0  0  0  0
    6.1583   -4.4067    1.1338 H   0  0  0  0  0  0  0  0  0  0  0  0
    5.6127   -3.8821   -1.2113 H   0  0  0  0  0  0  0  0  0  0  0  0
    6.9078   -2.1893   -2.4480 H   0  0  0  0  0  0  0  0  0  0  0  0
    4.8328   -1.4658   -1.3299 H   0  0  0  0  0  0  0  0  0  0  0  0
    7.0552    0.5895   -0.9472 H   0  0  0  0  0  0  0  0  0  0  0  0
    6.2856    0.2128   -2.5073 H   0  0  0  0  0  0  0  0  0  0  0  0
    5.5119    2.4890   -2.6199 H   0  0  0  0  0  0  0  0  0  0  0  0
    3.1890    2.8775   -1.7887 H   0  0  0  0  0  0  0  0  0  0  0  0
    3.5765    2.3524    0.5875 H   0  0  0  0  0  0  0  0  0  0  0  0
    4.8611    3.8957    2.0158 H   0  0  0  0  0  0  0  0  0  0  0  0
    6.0741    2.0380    0.9402 H   0  0  0  0  0  0  0  0  0  0  0  0
    7.6935    4.6208    0.8125 H   0  0  0  0  0  0  0  0  0  0  0  0
    7.3204    3.7356    2.3110 H   0  0  0  0  0  0  0  0  0  0  0  0
    9.4251    3.0804    1.3908 H   0  0  0  0  0  0  0  0  0  0  0  0
    4.5159    5.8650    0.7042 H   0  0  0  0  0  0  0  0  0  0  0  0
    1.8384    3.9128    0.0715 H   0  0  0  0  0  0  0  0  0  0  0  0
    4.4246    4.7044   -2.7123 H   0  0  0  0  0  0  0  0  0  0  0  0
    8.8822   -2.2905   -1.1030 H   0  0  0  0  0  0  0  0  0  0  0  0
    7.4670   -5.3387   -0.8091 H   0  0  0  0  0  0  0  0  0  0  0  0
    7.6977   -2.9508    2.2419 H   0  0  0  0  0  0  0  0  0  0  0  0
  -10.1948   -1.2996   -0.8456 H   0  0  0  0  0  0  0  0  0  0  0  0
  -11.0353    1.2229    0.7069 H   0  0  0  0  0  0  0  0  0  0  0  0
  -12.5562   -0.8997   -0.9823 H   0  0  0  0  0  0  0  0  0  0  0  0
  -13.1597    2.8333    0.1742 H   0  0  0  0  0  0  0  0  0  0  0  0
  -14.2525    2.1358    1.3938 H   0  0  0  0  0  0  0  0  0  0  0  0
  -12.5020    1.8273    1.4870 H   0  0  0  0  0  0  0  0  0  0  0  0
  -16.7073    0.8023   -0.5505 H   0  0  0  0  0  0  0  0  0  0  0  0
  1  2  1  0  0  0  0
  2  3  2  0  0  0  0
  3  4  1  0  0  0  0
  4  5  2  0  0  0  0
  5  6  1  0  0  0  0
  6  7  2  0  0  0  0
  7  8  1  0  0  0  0
  7  9  1  0  0  0  0
  9 10  2  0  0  0  0
 10 11  1  0  0  0  0
 11 12  2  0  0  0  0
 12 13  1  0  0  0  0
 12 14  1  0  0  0  0
 14 15  2  0  0  0  0
 14 16  1  0  0  0  0
 16 17  1  0  0  0  0
 17 18  1  0  0  0  0
 18 19  1  0  0  0  0
 19 20  1  0  0  0  0
 20 21  1  0  0  0  0
 21 22  1  0  0  0  0
 17 22  1  0  0  0  0
 21 23  1  0  0  0  0
 23 24  1  0  0  0  0
 24 25  1  0  0  0  0
 25 26  1  0  0  0  0
 26 27  1  0  0  0  0
 27 28  1  0  0  0  0
 28 29  1  0  0  0  0
 29 30  1  0  0  0  0
 25 30  1  0  0  0  0
 29 31  1  0  0  0  0
 31 32  1  0  0  0  0
 28 33  1  0  0  0  0
 27 34  1  0  0  0  0
 26 35  1  0  0  0  0
 20 36  1  0  0  0  0
 19 37  1  0  0  0  0
 18 38  1  0  0  0  0
  2 39  1  0  0  0  0
 39 40  2  0  0  0  0
 40 41  1  0  0  0  0
 41 42  2  0  0  0  0
 42 43  1  0  0  0  0
 42 44  1  0  0  0  0
 44 45  2  0  0  0  0
 44 46  1  0  0  0  0
  1 47  1  0  0  0  0
  1 48  1  0  0  0  0
  1 49  1  0  0  0  0
  3 50  1  0  0  0  0
  4 51  1  0  0  0  0
  5 52  1  0  0  0  0
  6 53  1  0  0  0  0
  8 54  1  0  0  0  0
  8 55  1  0  0  0  0
  8 56  1  0  0  0  0
  9 57  1  0  0  0  0
 10 58  1  0  0  0  0
 11 59  1  0  0  0  0
 13 60  1  0  0  0  0
 13 61  1  0  0  0  0
 13 62  1  0  0  0  0
 17 63  1  0  0  0  0
 18 64  1  0  0  0  0
 19 65  1  0  0  0  0
 20 66  1  0  0  0  0
 21 67  1  0  0  0  0
 23 68  1  0  0  0  0
 23 69  1  0  0  0  0
 25 70  1  0  0  0  0
 26 71  1  0  0  0  0
 27 72  1  0  0  0  0
 28 73  1  0  0  0  0
 29 74  1  0  0  0  0
 31 75  1  0  0  0  0
 31 76  1  0  0  0  0
 32 77  1  0  0  0  0
 33 78  1  0  0  0  0
 34 79  1  0  0  0  0
 35 80  1  0  0  0  0
 36 81  1  0  0  0  0
 37 82  1  0  0  0  0
 38 83  1  0  0  0  0
 39 84  1  0  0  0  0
 40 85  1  0  0  0  0
 41 86  1  0  0  0  0
 43 87  1  0  0  0  0
 43 88  1  0  0  0  0
 43 89  1  0  0  0  0
 46 90  1  0  0  0  0
M  END
$$$$
