C40H56O3
APtclcactv06281817103D 0   0.00000     0.00000
 
 99101  0  0  0  0  0  0  0  0999 V2000
  -10.7596    2.1128    0.7650 C   0  0  0  0  0  0  0  0  0  0  0  0
  -11.8540    1.2754    0.1551 C   0  0  0  0  0  0  0  0  0  0  0  0
  -11.6505   -0.0257    0.0348 C   0  0  0  0  0  0  0  0  0  0  0  0
  -12.6573   -0.9760   -0.5453 C   0  0  0  0  0  0  0  0  0  0  0  0
  -13.7135   -0.2043   -1.3389 C   0  0  0  0  0  0  0  0  0  0  0  0
  -14.2370    0.9430   -0.4662 C   0  0  0  0  0  0  0  0  0  0  0  0
  -13.1160    1.9643   -0.2762 C   0  0  0  0  0  0  0  0  0  0  0  0
  -15.3513    1.5651   -1.1090 O   0  0  0  0  0  0  0  0  0  0  0  0
  -11.9467   -1.9634   -1.4733 C   0  0  0  0  0  0  0  0  0  0  0  0
  -13.3374   -1.7480    0.5871 C   0  0  0  0  0  0  0  0  0  0  0  0
  -10.4115   -0.5527    0.4785 C   0  0  0  0  0  0  0  0  0  0  0  0
   -9.2475   -0.0788   -0.0382 C   0  0  0  0  0  0  0  0  0  0  0  0
   -8.0174   -0.5047    0.4933 C   0  0  0  0  0  0  0  0  0  0  0  0
   -6.8485   -0.0288   -0.0257 C   0  0  0  0  0  0  0  0  0  0  0  0
   -5.6218   -0.4535    0.5044 C   0  0  0  0  0  0  0  0  0  0  0  0
   -4.4429    0.0265   -0.0190 C   0  0  0  0  0  0  0  0  0  0  0  0
   -3.2174   -0.3978    0.5105 C   0  0  0  0  0  0  0  0  0  0  0  0
   -2.0379    0.0824   -0.0132 C   0  0  0  0  0  0  0  0  0  0  0  0
   -0.8125   -0.3419    0.5163 C   0  0  0  0  0  0  0  0  0  0  0  0
    0.3665    0.1381   -0.0071 C   0  0  0  0  0  0  0  0  0  0  0  0
    1.5932   -0.2866    0.5230 C   0  0  0  0  0  0  0  0  0  0  0  0
    2.7620    0.1893    0.0040 C   0  0  0  0  0  0  0  0  0  0  0  0
    2.7345    1.1713   -1.1388 C   0  0  0  0  0  0  0  0  0  0  0  0
    3.9922   -0.2365    0.5355 C   0  0  0  0  0  0  0  0  0  0  0  0
    5.1561    0.2373    0.0188 C   0  0  0  0  0  0  0  0  0  0  0  0
    6.3964   -0.1921    0.5547 C   0  0  0  0  0  0  0  0  0  0  0  0
    7.5412    0.2740    0.0464 C   0  0  0  0  0  0  0  0  0  0  0  0
    7.5137    1.2560   -1.0964 C   0  0  0  0  0  0  0  0  0  0  0  0
    8.8596   -0.1824    0.6161 C   0  0  0  0  0  0  0  0  0  0  0  0
    9.6341   -0.9713   -0.4211 C   0  0  0  0  0  0  0  0  0  0  0  0
   10.8709   -0.5898   -0.3733 C   0  0  0  0  0  0  0  0  0  0  0  0
   12.0660   -1.0013   -1.2027 C   0  0  0  0  0  0  0  0  0  0  0  0
   13.3065   -0.5274   -0.4349 C   0  0  0  0  0  0  0  0  0  0  0  0
   13.2984    0.9741   -0.2043 C   0  0  0  0  0  0  0  0  0  0  0  0
   11.9241    1.5501    0.1120 C   0  0  0  0  0  0  0  0  0  0  0  0
   11.0194    0.4723    0.7116 C   0  0  0  0  0  0  0  0  0  0  0  0
    9.6887    0.9575    0.9327 O   0  0  0  0  0  0  0  0  0  0  0  0
   11.6295   -0.1155    1.9857 C   0  0  0  0  0  0  0  0  0  0  0  0
   14.1768    1.2716    0.8829 O   0  0  0  0  0  0  0  0  0  0  0  0
   12.0962   -2.5227   -1.3620 C   0  0  0  0  0  0  0  0  0  0  0  0
   12.0093   -0.3287   -2.5758 C   0  0  0  0  0  0  0  0  0  0  0  0
   -3.1899   -1.3798    1.6533 C   0  0  0  0  0  0  0  0  0  0  0  0
   -7.9899   -1.4867    1.6361 C   0  0  0  0  0  0  0  0  0  0  0  0
  -10.0394    2.3870   -0.0059 H   0  0  0  0  0  0  0  0  0  0  0  0
  -11.1910    3.0159    1.1969 H   0  0  0  0  0  0  0  0  0  0  0  0
  -10.2569    1.5414    1.5452 H   0  0  0  0  0  0  0  0  0  0  0  0
  -13.2660    0.2009   -2.2465 H   0  0  0  0  0  0  0  0  0  0  0  0
  -14.5357   -0.8710   -1.5989 H   0  0  0  0  0  0  0  0  0  0  0  0
  -14.5415    0.5543    0.5055 H   0  0  0  0  0  0  0  0  0  0  0  0
  -13.4133    2.6906    0.4803 H   0  0  0  0  0  0  0  0  0  0  0  0
  -12.9343    2.4810   -1.2186 H   0  0  0  0  0  0  0  0  0  0  0  0
  -15.7325    2.3008   -0.6105 H   0  0  0  0  0  0  0  0  0  0  0  0
  -11.2670   -2.5850   -0.8905 H   0  0  0  0  0  0  0  0  0  0  0  0
  -12.6857   -2.5957   -1.9653 H   0  0  0  0  0  0  0  0  0  0  0  0
  -11.3813   -1.4129   -2.2252 H   0  0  0  0  0  0  0  0  0  0  0  0
  -13.8399   -1.0473    1.2539 H   0  0  0  0  0  0  0  0  0  0  0  0
  -14.0689   -2.4388    0.1677 H   0  0  0  0  0  0  0  0  0  0  0  0
  -12.5879   -2.3080    1.1464 H   0  0  0  0  0  0  0  0  0  0  0  0
  -10.3926   -1.3308    1.2273 H   0  0  0  0  0  0  0  0  0  0  0  0
   -9.2672    0.6249   -0.8572 H   0  0  0  0  0  0  0  0  0  0  0  0
   -6.8682    0.6749   -0.8447 H   0  0  0  0  0  0  0  0  0  0  0  0
   -5.6021   -1.1573    1.3234 H   0  0  0  0  0  0  0  0  0  0  0  0
   -4.4626    0.7302   -0.8380 H   0  0  0  0  0  0  0  0  0  0  0  0
   -2.0577    0.7862   -0.8322 H   0  0  0  0  0  0  0  0  0  0  0  0
   -0.7927   -1.0456    1.3353 H   0  0  0  0  0  0  0  0  0  0  0  0
    0.3467    0.8419   -0.8261 H   0  0  0  0  0  0  0  0  0  0  0  0
    1.6129   -0.9903    1.3420 H   0  0  0  0  0  0  0  0  0  0  0  0
    2.7081    2.1871   -0.7444 H   0  0  0  0  0  0  0  0  0  0  0  0
    3.6274    1.0421   -1.7504 H   0  0  0  0  0  0  0  0  0  0  0  0
    1.8481    0.9950   -1.7481 H   0  0  0  0  0  0  0  0  0  0  0  0
    4.0119   -0.9403    1.3545 H   0  0  0  0  0  0  0  0  0  0  0  0
    5.1364    0.9411   -0.8002 H   0  0  0  0  0  0  0  0  0  0  0  0
    6.4161   -0.8958    1.3737 H   0  0  0  0  0  0  0  0  0  0  0  0
    7.4873    2.2718   -0.7020 H   0  0  0  0  0  0  0  0  0  0  0  0
    8.4066    1.1268   -1.7080 H   0  0  0  0  0  0  0  0  0  0  0  0
    6.6273    1.0797   -1.7057 H   0  0  0  0  0  0  0  0  0  0  0  0
    8.6952   -0.7896    1.5063 H   0  0  0  0  0  0  0  0  0  0  0  0
    9.2262   -1.7205   -1.0834 H   0  0  0  0  0  0  0  0  0  0  0  0
   13.3403   -1.0334    0.5300 H   0  0  0  0  0  0  0  0  0  0  0  0
   14.1977   -0.7933   -1.0034 H   0  0  0  0  0  0  0  0  0  0  0  0
   13.6819    1.4642   -1.0992 H   0  0  0  0  0  0  0  0  0  0  0  0
   12.0312    2.3682    0.8243 H   0  0  0  0  0  0  0  0  0  0  0  0
   11.4730    1.9305   -0.8045 H   0  0  0  0  0  0  0  0  0  0  0  0
   11.6362    0.6429    2.7686 H   0  0  0  0  0  0  0  0  0  0  0  0
   11.0362   -0.9696    2.3121 H   0  0  0  0  0  0  0  0  0  0  0  0
   12.6509   -0.4384    1.7839 H   0  0  0  0  0  0  0  0  0  0  0  0
   14.2315    2.2127    1.0982 H   0  0  0  0  0  0  0  0  0  0  0  0
   11.1845   -2.8542   -1.8590 H   0  0  0  0  0  0  0  0  0  0  0  0
   12.9609   -2.8083   -1.9610 H   0  0  0  0  0  0  0  0  0  0  0  0
   12.1647   -2.9896   -0.3795 H   0  0  0  0  0  0  0  0  0  0  0  0
   12.0164    0.7540   -2.4505 H   0  0  0  0  0  0  0  0  0  0  0  0
   12.8747   -0.6320   -3.1650 H   0  0  0  0  0  0  0  0  0  0  0  0
   11.0963   -0.6290   -3.0900 H   0  0  0  0  0  0  0  0  0  0  0  0
   -3.1635   -2.3956    1.2589 H   0  0  0  0  0  0  0  0  0  0  0  0
   -2.3035   -1.2035    2.2626 H   0  0  0  0  0  0  0  0  0  0  0  0
   -4.0828   -1.2506    2.2649 H   0  0  0  0  0  0  0  0  0  0  0  0
   -7.9635   -2.5025    1.2417 H   0  0  0  0  0  0  0  0  0  0  0  0
   -7.1034   -1.3104    2.2454 H   0  0  0  0  0  0  0  0  0  0  0  0
   -8.8828   -1.3575    2.2477 H   0  0  0  0  0  0  0  0  0  0  0  0
  1  2  1  0  0  0  0
  2  3  2  0  0  0  0
  3  4  1  0  0  0  0
  4  5  1  0  0  0  0
  5  6  1  0  0  0  0
  6  7  1  0  0  0  0
  2  7  1  0  0  0  0
  6  8  1  0  0  0  0
  4  9  1  0  0  0  0
  4 10  1  0  0  0  0
  3 11  1  0  0  0  0
 11 12  2  0  0  0  0
 12 13  1  0  0  0  0
 13 14  2  0  0  0  0
 14 15  1  0  0  0  0
 15 16  2  0  0  0  0
 16 17  1  0  0  0  0
 17 18  2  0  0  0  0
 18 19  1  0  0  0  0
 19 20  2  0  0  0  0
 20 21  1  0  0  0  0
 21 22  2  0  0  0  0
 22 23  1  0  0  0  0
 22 24  1  0  0  0  0
 24 25  2  0  0  0  0
 25 26  1  0  0  0  0
 26 27  2  0  0  0  0
 27 28  1  0  0  0  0
 27 29  1  0  0  0  0
 29 30  1  0  0  0  0
 30 31  2  0  0  0  0
 31 32  1  0  0  0  0
 32 33  1  0  0  0  0
 33 34  1  0  0  0  0
 34 35  1  0  0  0  0
 35 36  1  0  0  0  0
 31 36  1  0  0  0  0
 36 37  1  0  0  0  0
 29 37  1  0  0  0  0
 36 38  1  0  0  0  0
 34 39  1  0  0  0  0
 32 40  1  0  0  0  0
 32 41  1  0  0  0  0
 17 42  1  0  0  0  0
 13 43  1  0  0  0  0
  1 44  1  0  0  0  0
  1 45  1  0  0  0  0
  1 46  1  0  0  0  0
  5 47  1  0  0  0  0
  5 48  1  0  0  0  0
  6 49  1  0  0  0  0
  7 50  1  0  0  0  0
  7 51  1  0  0  0  0
  8 52  1  0  0  0  0
  9 53  1  0  0  0  0
  9 54  1  0  0  0  0
  9 55  1  0  0  0  0
 10 56  1  0  0  0  0
 10 57  1  0  0  0  0
 10 58  1  0  0  0  0
 11 59  1  0  0  0  0
 12 60  1  0  0  0  0
 14 61  1  0  0  0  0
 15 62  1  0  0  0  0
 16 63  1  0  0  0  0
 18 64  1  0  0  0  0
 19 65  1  0  0  0  0
 20 66  1  0  0  0  0
 21 67  1  0  0  0  0
 23 68  1  0  0  0  0
 23 69  1  0  0  0  0
 23 70  1  0  0  0  0
 24 71  1  0  0  0  0
 25 72  1  0  0  0  0
 26 73  1  0  0  0  0
 28 74  1  0  0  0  0
 28 75  1  0  0  0  0
 28 76  1  0  0  0  0
 29 77  1  0  0  0  0
 30 78  1  0  0  0  0
 33 79  1  0  0  0  0
 33 80  1  0  0  0  0
 34 81  1  0  0  0  0
 35 82  1  0  0  0  0
 35 83  1  0  0  0  0
 38 84  1  0  0  0  0
 38 85  1  0  0  0  0
 38 86  1  0  0  0  0
 39 87  1  0  0  0  0
 40 88  1  0  0  0  0
 40 89  1  0  0  0  0
 40 90  1  0  0  0  0
 41 91  1  0  0  0  0
 41 92  1  0  0  0  0
 41 93  1  0  0  0  0
 42 94  1  0  0  0  0
 42 95  1  0  0  0  0
 42 96  1  0  0  0  0
 43 97  1  0  0  0  0
 43 98  1  0  0  0  0
 43 99  1  0  0  0  0
M  END
$$$$
