C33H56O14
APtclcactv06291803143D 0   0.00000     0.00000
 
103104  0  0  0  0  0  0  0  0999 V2000
   17.2771    2.7983    3.0412 C   0  0  0  0  0  0  0  0  0  0  0  0
   15.8193    3.2508    2.9367 C   0  0  0  0  0  0  0  0  0  0  0  0
   15.3577    3.1319    1.5071 C   0  0  0  0  0  0  0  0  0  0  0  0
   14.2880    2.4322    1.2202 C   0  0  0  0  0  0  0  0  0  0  0  0
   13.8264    2.3133   -0.2095 C   0  0  0  0  0  0  0  0  0  0  0  0
   13.7060    0.8573   -0.5791 C   0  0  0  0  0  0  0  0  0  0  0  0
   12.5763    0.3930   -1.0525 C   0  0  0  0  0  0  0  0  0  0  0  0
   12.4559   -1.0630   -1.4221 C   0  0  0  0  0  0  0  0  0  0  0  0
   11.2894   -1.6728   -0.6883 C   0  0  0  0  0  0  0  0  0  0  0  0
   10.3438   -2.2861   -1.3560 C   0  0  0  0  0  0  0  0  0  0  0  0
    9.1773   -2.8959   -0.6222 C   0  0  0  0  0  0  0  0  0  0  0  0
    7.8703   -2.3384   -1.1894 C   0  0  0  0  0  0  0  0  0  0  0  0
    6.6859   -2.9575   -0.4444 C   0  0  0  0  0  0  0  0  0  0  0  0
    5.3789   -2.4000   -1.0116 C   0  0  0  0  0  0  0  0  0  0  0  0
    4.1946   -3.0190   -0.2666 C   0  0  0  0  0  0  0  0  0  0  0  0
    2.8875   -2.4615   -0.8338 C   0  0  0  0  0  0  0  0  0  0  0  0
    1.7032   -3.0806   -0.0888 C   0  0  0  0  0  0  0  0  0  0  0  0
    0.4158   -2.5315   -0.6474 C   0  0  0  0  0  0  0  0  0  0  0  0
    0.4427   -1.7275   -1.5489 O   0  0  0  0  0  0  0  0  0  0  0  0
   -0.7609   -2.9356   -0.1435 O   0  0  0  0  0  0  0  0  0  0  0  0
   -1.9602   -2.3648   -0.7302 C   0  0  0  0  0  0  0  0  0  0  0  0
   -3.1935   -2.9407   -0.0315 C   0  0  0  0  0  0  0  0  0  0  0  0
   -4.4503   -2.2485   -0.5628 C   0  0  0  0  0  0  0  0  0  0  0  0
   -5.5899   -2.7019    0.1706 O   0  0  0  0  0  0  0  0  0  0  0  0
   -6.8228   -2.1135   -0.2488 C   0  0  0  0  0  0  0  0  0  0  0  0
   -7.9823   -2.7594    0.5140 C   0  0  0  0  0  0  0  0  0  0  0  0
   -7.8183   -2.4778    2.0108 C   0  0  0  0  0  0  0  0  0  0  0  0
   -7.7504   -0.9633    2.2297 C   0  0  0  0  0  0  0  0  0  0  0  0
   -6.5998   -0.3868    1.4006 C   0  0  0  0  0  0  0  0  0  0  0  0
   -6.7981   -0.7108    0.0230 O   0  0  0  0  0  0  0  0  0  0  0  0
   -6.5628    1.1337    1.5670 C   0  0  0  0  0  0  0  0  0  0  0  0
   -5.4207    1.6596    0.8880 O   0  0  0  0  0  0  0  0  0  0  0  0
   -5.2916    3.0796    0.9817 C   0  0  0  0  0  0  0  0  0  0  0  0
   -3.9770    3.5169    0.3302 C   0  0  0  0  0  0  0  0  0  0  0  0
   -4.0063    3.1499   -1.1567 C   0  0  0  0  0  0  0  0  0  0  0  0
   -5.2258    3.8077   -1.8097 C   0  0  0  0  0  0  0  0  0  0  0  0
   -6.4921    3.3592   -1.0756 C   0  0  0  0  0  0  0  0  0  0  0  0
   -6.3864    3.7032    0.3074 O   0  0  0  0  0  0  0  0  0  0  0  0
   -7.7093    4.0588   -1.6838 C   0  0  0  0  0  0  0  0  0  0  0  0
   -8.9009    3.5540   -1.0778 O   0  0  0  0  0  0  0  0  0  0  0  0
   -5.1035    5.2290   -1.7264 O   0  0  0  0  0  0  0  0  0  0  0  0
   -2.8139    3.6199   -1.7886 O   0  0  0  0  0  0  0  0  0  0  0  0
   -3.8217    4.9305    0.4702 O   0  0  0  0  0  0  0  0  0  0  0  0
   -8.9815   -0.3656    1.8185 O   0  0  0  0  0  0  0  0  0  0  0  0
   -8.9349   -3.0142    2.7232 O   0  0  0  0  0  0  0  0  0  0  0  0
   -9.2196   -2.2093    0.0574 O   0  0  0  0  0  0  0  0  0  0  0  0
   -3.2765   -4.3435   -0.2910 O   0  0  0  0  0  0  0  0  0  0  0  0
   17.8994    3.4276    2.4050 H   0  0  0  0  0  0  0  0  0  0  0  0
   17.6110    2.8842    4.0752 H   0  0  0  0  0  0  0  0  0  0  0  0
   17.3595    1.7606    2.7179 H   0  0  0  0  0  0  0  0  0  0  0  0
   15.1970    2.6215    3.5729 H   0  0  0  0  0  0  0  0  0  0  0  0
   15.7369    4.2885    3.2600 H   0  0  0  0  0  0  0  0  0  0  0  0
   15.9087    3.6236    0.7190 H   0  0  0  0  0  0  0  0  0  0  0  0
   13.7370    1.9405    2.0082 H   0  0  0  0  0  0  0  0  0  0  0  0
   12.8560    2.7975   -0.3194 H   0  0  0  0  0  0  0  0  0  0  0  0
   14.5499    2.7963   -0.8662 H   0  0  0  0  0  0  0  0  0  0  0  0
   14.5512    0.1967   -0.4536 H   0  0  0  0  0  0  0  0  0  0  0  0
   11.7312    1.0536   -1.1780 H   0  0  0  0  0  0  0  0  0  0  0  0
   12.2965   -1.1531   -2.4966 H   0  0  0  0  0  0  0  0  0  0  0  0
   13.3721   -1.5850   -1.1457 H   0  0  0  0  0  0  0  0  0  0  0  0
   11.2330   -1.6042    0.3880 H   0  0  0  0  0  0  0  0  0  0  0  0
   10.4003   -2.3548   -2.4324 H   0  0  0  0  0  0  0  0  0  0  0  0
    9.1951   -3.9785   -0.7474 H   0  0  0  0  0  0  0  0  0  0  0  0
    9.2469   -2.6515    0.4377 H   0  0  0  0  0  0  0  0  0  0  0  0
    7.8524   -1.2557   -1.0643 H   0  0  0  0  0  0  0  0  0  0  0  0
    7.8006   -2.5828   -2.2494 H   0  0  0  0  0  0  0  0  0  0  0  0
    6.7038   -4.0401   -0.5696 H   0  0  0  0  0  0  0  0  0  0  0  0
    6.7555   -2.7130    0.6156 H   0  0  0  0  0  0  0  0  0  0  0  0
    5.3610   -1.3173   -0.8864 H   0  0  0  0  0  0  0  0  0  0  0  0
    5.3093   -2.6444   -2.0715 H   0  0  0  0  0  0  0  0  0  0  0  0
    4.2124   -4.1017   -0.3917 H   0  0  0  0  0  0  0  0  0  0  0  0
    4.2642   -2.7746    0.7934 H   0  0  0  0  0  0  0  0  0  0  0  0
    2.8697   -1.3789   -0.7086 H   0  0  0  0  0  0  0  0  0  0  0  0
    2.8179   -2.7060   -1.8937 H   0  0  0  0  0  0  0  0  0  0  0  0
    1.7210   -4.1633   -0.2139 H   0  0  0  0  0  0  0  0  0  0  0  0
    1.7728   -2.8362    0.9712 H   0  0  0  0  0  0  0  0  0  0  0  0
   -1.9451   -1.2820   -0.6068 H   0  0  0  0  0  0  0  0  0  0  0  0
   -1.9969   -2.6090   -1.7919 H   0  0  0  0  0  0  0  0  0  0  0  0
   -3.1135   -2.7740    1.0427 H   0  0  0  0  0  0  0  0  0  0  0  0
   -4.3482   -1.1697   -0.4452 H   0  0  0  0  0  0  0  0  0  0  0  0
   -4.5786   -2.4885   -1.6183 H   0  0  0  0  0  0  0  0  0  0  0  0
   -6.9570   -2.2744   -1.3185 H   0  0  0  0  0  0  0  0  0  0  0  0
   -7.9761   -3.8359    0.3431 H   0  0  0  0  0  0  0  0  0  0  0  0
   -6.8988   -2.9398    2.3701 H   0  0  0  0  0  0  0  0  0  0  0  0
   -7.5782   -0.7553    3.2858 H   0  0  0  0  0  0  0  0  0  0  0  0
   -5.6565   -0.8130    1.7421 H   0  0  0  0  0  0  0  0  0  0  0  0
   -7.4688    1.5676    1.1438 H   0  0  0  0  0  0  0  0  0  0  0  0
   -6.5018    1.3819    2.6266 H   0  0  0  0  0  0  0  0  0  0  0  0
   -5.2938    3.3764    2.0305 H   0  0  0  0  0  0  0  0  0  0  0  0
   -3.1435    3.0082    0.8146 H   0  0  0  0  0  0  0  0  0  0  0  0
   -4.0749    2.0673   -1.2638 H   0  0  0  0  0  0  0  0  0  0  0  0
   -5.2853    3.5070   -2.8557 H   0  0  0  0  0  0  0  0  0  0  0  0
   -6.6063    2.2797   -1.1740 H   0  0  0  0  0  0  0  0  0  0  0  0
   -7.6379    5.1319   -1.5063 H   0  0  0  0  0  0  0  0  0  0  0  0
   -7.7389    3.8692   -2.7567 H   0  0  0  0  0  0  0  0  0  0  0  0
   -9.7139    3.9538   -1.4159 H   0  0  0  0  0  0  0  0  0  0  0  0
   -4.3188    5.5828   -2.1671 H   0  0  0  0  0  0  0  0  0  0  0  0
   -2.0007    3.2487   -1.4197 H   0  0  0  0  0  0  0  0  0  0  0  0
   -3.7999    5.2348    1.3878 H   0  0  0  0  0  0  0  0  0  0  0  0
   -9.7556   -0.6886    2.2998 H   0  0  0  0  0  0  0  0  0  0  0  0
   -9.0427   -3.9700    2.6235 H   0  0  0  0  0  0  0  0  0  0  0  0
   -9.3871   -2.3465   -0.8850 H   0  0  0  0  0  0  0  0  0  0  0  0
   -3.3500   -4.5663   -1.2291 H   0  0  0  0  0  0  0  0  0  0  0  0
  1  2  1  0  0  0  0
  2  3  1  0  0  0  0
  3  4  2  0  0  0  0
  4  5  1  0  0  0  0
  5  6  1  0  0  0  0
  6  7  2  0  0  0  0
  7  8  1  0  0  0  0
  8  9  1  0  0  0  0
  9 10  2  0  0  0  0
 10 11  1  0  0  0  0
 11 12  1  0  0  0  0
 12 13  1  0  0  0  0
 13 14  1  0  0  0  0
 14 15  1  0  0  0  0
 15 16  1  0  0  0  0
 16 17  1  0  0  0  0
 17 18  1  0  0  0  0
 18 19  2  0  0  0  0
 18 20  1  0  0  0  0
 20 21  1  0  0  0  0
 21 22  1  0  0  0  0
 22 23  1  0  0  0  0
 23 24  1  0  0  0  0
 24 25  1  0  0  0  0
 25 26  1  0  0  0  0
 26 27  1  0  0  0  0
 27 28  1  0  0  0  0
 28 29  1  0  0  0  0
 29 30  1  0  0  0  0
 25 30  1  0  0  0  0
 29 31  1  0  0  0  0
 31 32  1  0  0  0  0
 32 33  1  0  0  0  0
 33 34  1  0  0  0  0
 34 35  1  0  0  0  0
 35 36  1  0  0  0  0
 36 37  1  0  0  0  0
 37 38  1  0  0  0  0
 33 38  1  0  0  0  0
 37 39  1  0  0  0  0
 39 40  1  0  0  0  0
 36 41  1  0  0  0  0
 35 42  1  0  0  0  0
 34 43  1  0  0  0  0
 28 44  1  0  0  0  0
 27 45  1  0  0  0  0
 26 46  1  0  0  0  0
 22 47  1  0  0  0  0
  1 48  1  0  0  0  0
  1 49  1  0  0  0  0
  1 50  1  0  0  0  0
  2 51  1  0  0  0  0
  2 52  1  0  0  0  0
  3 53  1  0  0  0  0
  4 54  1  0  0  0  0
  5 55  1  0  0  0  0
  5 56  1  0  0  0  0
  6 57  1  0  0  0  0
  7 58  1  0  0  0  0
  8 59  1  0  0  0  0
  8 60  1  0  0  0  0
  9 61  1  0  0  0  0
 10 62  1  0  0  0  0
 11 63  1  0  0  0  0
 11 64  1  0  0  0  0
 12 65  1  0  0  0  0
 12 66  1  0  0  0  0
 13 67  1  0  0  0  0
 13 68  1  0  0  0  0
 14 69  1  0  0  0  0
 14 70  1  0  0  0  0
 15 71  1  0  0  0  0
 15 72  1  0  0  0  0
 16 73  1  0  0  0  0
 16 74  1  0  0  0  0
 17 75  1  0  0  0  0
 17 76  1  0  0  0  0
 21 77  1  0  0  0  0
 21 78  1  0  0  0  0
 22 79  1  0  0  0  0
 23 80  1  0  0  0  0
 23 81  1  0  0  0  0
 25 82  1  0  0  0  0
 26 83  1  0  0  0  0
 27 84  1  0  0  0  0
 28 85  1  0  0  0  0
 29 86  1  0  0  0  0
 31 87  1  0  0  0  0
 31 88  1  0  0  0  0
 33 89  1  0  0  0  0
 34 90  1  0  0  0  0
 35 91  1  0  0  0  0
 36 92  1  0  0  0  0
 37 93  1  0  0  0  0
 39 94  1  0  0  0  0
 39 95  1  0  0  0  0
 40 96  1  0  0  0  0
 41 97  1  0  0  0  0
 42 98  1  0  0  0  0
 43 99  1  0  0  0  0
 44100  1  0  0  0  0
 45101  1  0  0  0  0
 46102  1  0  0  0  0
 47103  1  0  0  0  0
M  END
$$$$
