C22H20O6
APtclcactv06291803143D 0   0.00000     0.00000
 
 48 51  0  0  0  0  0  0  0  0999 V2000
   -4.2164    2.1951    1.7098 C   0  0  0  0  0  0  0  0  0  0  0  0
   -4.1491    2.3754    0.1920 C   0  0  0  0  0  0  0  0  0  0  0  0
   -2.8538    3.0527   -0.1710 C   0  0  0  0  0  0  0  0  0  0  0  0
   -1.7657    2.3221   -0.4101 C   0  0  0  0  0  0  0  0  0  0  0  0
   -1.8815    0.8517   -0.3192 C   0  0  0  0  0  0  0  0  0  0  0  0
   -0.7494    0.0402   -0.2177 C   0  0  0  0  0  0  0  0  0  0  0  0
   -0.9180   -1.3519   -0.1341 C   0  0  0  0  0  0  0  0  0  0  0  0
   -2.2027   -1.9133   -0.1513 C   0  0  0  0  0  0  0  0  0  0  0  0
   -3.3149   -1.0952   -0.2526 C   0  0  0  0  0  0  0  0  0  0  0  0
   -3.1614    0.2795   -0.3374 C   0  0  0  0  0  0  0  0  0  0  0  0
   -4.2400    1.0975   -0.4387 O   0  0  0  0  0  0  0  0  0  0  0  0
   -2.3559   -3.2589   -0.0690 O   0  0  0  0  0  0  0  0  0  0  0  0
   -3.6931   -3.7622   -0.0922 C   0  0  0  0  0  0  0  0  0  0  0  0
    0.2807   -2.2000   -0.0293 C   0  0  0  0  0  0  0  0  0  0  0  0
    0.1960   -3.4154    0.0471 O   0  0  0  0  0  0  0  0  0  0  0  0
    1.5391   -1.5437   -0.0213 C   0  0  0  0  0  0  0  0  0  0  0  0
    1.5822   -0.1853   -0.1073 C   0  0  0  0  0  0  0  0  0  0  0  0
    0.4846    0.5784   -0.2003 O   0  0  0  0  0  0  0  0  0  0  0  0
    2.8996    0.4771   -0.0979 C   0  0  0  0  0  0  0  0  0  0  0  0
    3.1258    1.5758    0.7362 C   0  0  0  0  0  0  0  0  0  0  0  0
    4.3580    2.1915    0.7416 C   0  0  0  0  0  0  0  0  0  0  0  0
    5.3752    1.7221   -0.0804 C   0  0  0  0  0  0  0  0  0  0  0  0
    5.1548    0.6303   -0.9112 C   0  0  0  0  0  0  0  0  0  0  0  0
    3.9276    0.0048   -0.9189 C   0  0  0  0  0  0  0  0  0  0  0  0
    6.5882    2.3325   -0.0721 O   0  0  0  0  0  0  0  0  0  0  0  0
    2.6900   -2.2639    0.0717 O   0  0  0  0  0  0  0  0  0  0  0  0
    2.9152   -2.9724    1.2921 C   0  0  0  0  0  0  0  0  0  0  0  0
   -5.3201    3.2475   -0.2651 C   0  0  0  0  0  0  0  0  0  0  0  0
   -4.1660    3.1703    2.1941 H   0  0  0  0  0  0  0  0  0  0  0  0
   -5.1528    1.7050    1.9763 H   0  0  0  0  0  0  0  0  0  0  0  0
   -3.3783    1.5815    2.0403 H   0  0  0  0  0  0  0  0  0  0  0  0
   -2.8072    4.1296   -0.2378 H   0  0  0  0  0  0  0  0  0  0  0  0
   -0.8263    2.7910   -0.6632 H   0  0  0  0  0  0  0  0  0  0  0  0
   -4.3038   -1.5291   -0.2666 H   0  0  0  0  0  0  0  0  0  0  0  0
   -4.2504   -3.3520    0.7500 H   0  0  0  0  0  0  0  0  0  0  0  0
   -4.1756   -3.4690   -1.0246 H   0  0  0  0  0  0  0  0  0  0  0  0
   -3.6733   -4.8496   -0.0196 H   0  0  0  0  0  0  0  0  0  0  0  0
    2.3357    1.9415    1.3752 H   0  0  0  0  0  0  0  0  0  0  0  0
    4.5336    3.0406    1.3855 H   0  0  0  0  0  0  0  0  0  0  0  0
    5.9483    0.2689   -1.5484 H   0  0  0  0  0  0  0  0  0  0  0  0
    3.7572   -0.8437   -1.5650 H   0  0  0  0  0  0  0  0  0  0  0  0
    7.2084    1.9662    0.5731 H   0  0  0  0  0  0  0  0  0  0  0  0
    2.8532   -2.2795    2.1312 H   0  0  0  0  0  0  0  0  0  0  0  0
    2.1592   -3.7494    1.4059 H   0  0  0  0  0  0  0  0  0  0  0  0
    3.9048   -3.4287    1.2700 H   0  0  0  0  0  0  0  0  0  0  0  0
   -5.2597    4.2210    0.2213 H   0  0  0  0  0  0  0  0  0  0  0  0
   -5.2755    3.3782   -1.3463 H   0  0  0  0  0  0  0  0  0  0  0  0
   -6.2595    2.7646    0.0040 H   0  0  0  0  0  0  0  0  0  0  0  0
  1  2  1  0  0  0  0
  2  3  1  0  0  0  0
  3  4  2  0  0  0  0
  4  5  1  0  0  0  0
  5  6  2  0  0  0  0
  6  7  1  0  0  0  0
  7  8  2  0  0  0  0
  8  9  1  0  0  0  0
  9 10  2  0  0  0  0
  5 10  1  0  0  0  0
 10 11  1  0  0  0  0
  2 11  1  0  0  0  0
  8 12  1  0  0  0  0
 12 13  1  0  0  0  0
  7 14  1  0  0  0  0
 14 15  2  0  0  0  0
 14 16  1  0  0  0  0
 16 17  2  0  0  0  0
 17 18  1  0  0  0  0
  6 18  1  0  0  0  0
 17 19  1  0  0  0  0
 19 20  2  0  0  0  0
 20 21  1  0  0  0  0
 21 22  2  0  0  0  0
 22 23  1  0  0  0  0
 23 24  2  0  0  0  0
 19 24  1  0  0  0  0
 22 25  1  0  0  0  0
 16 26  1  0  0  0  0
 26 27  1  0  0  0  0
  2 28  1  0  0  0  0
  1 29  1  0  0  0  0
  1 30  1  0  0  0  0
  1 31  1  0  0  0  0
  3 32  1  0  0  0  0
  4 33  1  0  0  0  0
  9 34  1  0  0  0  0
 13 35  1  0  0  0  0
 13 36  1  0  0  0  0
 13 37  1  0  0  0  0
 20 38  1  0  0  0  0
 21 39  1  0  0  0  0
 23 40  1  0  0  0  0
 24 41  1  0  0  0  0
 25 42  1  0  0  0  0
 27 43  1  0  0  0  0
 27 44  1  0  0  0  0
 27 45  1  0  0  0  0
 28 46  1  0  0  0  0
 28 47  1  0  0  0  0
 28 48  1  0  0  0  0
M  END
$$$$
