C25H36O3
APtclcactv06291803103D 0   0.00000     0.00000
 
 64 65  0  0  0  0  0  0  0  0999 V2000
   -9.1602    2.4222    0.4248 C   0  0  0  0  0  0  0  0  0  0  0  0
   -9.3457    0.9408    0.2195 C   0  0  0  0  0  0  0  0  0  0  0  0
   -8.2800    0.1464    0.0864 C   0  0  0  0  0  0  0  0  0  0  0  0
   -6.9346    0.7138    0.1398 C   0  0  0  0  0  0  0  0  0  0  0  0
   -5.8517   -0.0935    0.0045 C   0  0  0  0  0  0  0  0  0  0  0  0
   -4.5553    0.4532    0.0560 C   0  0  0  0  0  0  0  0  0  0  0  0
   -3.4688   -0.3567   -0.0798 C   0  0  0  0  0  0  0  0  0  0  0  0
   -3.6543   -1.8381   -0.2850 C   0  0  0  0  0  0  0  0  0  0  0  0
   -2.1744    0.1891   -0.0284 C   0  0  0  0  0  0  0  0  0  0  0  0
   -1.0879   -0.6209   -0.1641 C   0  0  0  0  0  0  0  0  0  0  0  0
    0.2085   -0.0742   -0.1127 C   0  0  0  0  0  0  0  0  0  0  0  0
    1.2914   -0.8814   -0.2480 C   0  0  0  0  0  0  0  0  0  0  0  0
    1.1059   -2.3628   -0.4532 C   0  0  0  0  0  0  0  0  0  0  0  0
    2.6368   -0.3140   -0.1946 C   0  0  0  0  0  0  0  0  0  0  0  0
    3.7024   -1.1085   -0.3277 C   0  0  0  0  0  0  0  0  0  0  0  0
    5.0901   -0.5233   -0.2726 C   0  0  0  0  0  0  0  0  0  0  0  0
    5.7647   -0.5561    1.0970 C   0  0  0  0  0  0  0  0  0  0  0  0
    6.2999    0.8309    1.4536 C   0  0  0  0  0  0  0  0  0  0  0  0
    7.2152    1.3081    0.3204 C   0  0  0  0  0  0  0  0  0  0  0  0
    6.3471    1.7117   -0.8714 C   0  0  0  0  0  0  0  0  0  0  0  0
    5.4331    0.5658   -1.2771 C   0  0  0  0  0  0  0  0  0  0  0  0
    5.9508   -0.7509   -1.3997 O   0  0  0  0  0  0  0  0  0  0  0  0
    4.3309    0.9427   -2.2690 C   0  0  0  0  0  0  0  0  0  0  0  0
    7.9776    2.4335    0.7613 O   0  0  0  0  0  0  0  0  0  0  0  0
    4.7478   -0.9941    2.1529 C   0  0  0  0  0  0  0  0  0  0  0  0
    6.9234   -1.5548    1.0679 C   0  0  0  0  0  0  0  0  0  0  0  0
  -10.7333    0.3557    0.1644 C   0  0  0  0  0  0  0  0  0  0  0  0
  -10.6471   -1.0565   -0.0364 O   0  0  0  0  0  0  0  0  0  0  0  0
   -9.1357    2.9229   -0.5431 H   0  0  0  0  0  0  0  0  0  0  0  0
   -9.9885    2.8137    1.0154 H   0  0  0  0  0  0  0  0  0  0  0  0
   -8.2224    2.6016    0.9506 H   0  0  0  0  0  0  0  0  0  0  0  0
   -8.4129   -0.9152   -0.0607 H   0  0  0  0  0  0  0  0  0  0  0  0
   -6.8017    1.7754    0.2869 H   0  0  0  0  0  0  0  0  0  0  0  0
   -5.9846   -1.1551   -0.1426 H   0  0  0  0  0  0  0  0  0  0  0  0
   -4.4224    1.5149    0.2031 H   0  0  0  0  0  0  0  0  0  0  0  0
   -3.7191   -2.0518   -1.3519 H   0  0  0  0  0  0  0  0  0  0  0  0
   -2.8059   -2.3731    0.1417 H   0  0  0  0  0  0  0  0  0  0  0  0
   -4.5719   -2.1610    0.2066 H   0  0  0  0  0  0  0  0  0  0  0  0
   -2.0415    1.2508    0.1187 H   0  0  0  0  0  0  0  0  0  0  0  0
   -1.2208   -1.6825   -0.3112 H   0  0  0  0  0  0  0  0  0  0  0  0
    0.3414    0.9875    0.0344 H   0  0  0  0  0  0  0  0  0  0  0  0
    1.0411   -2.5765   -1.5201 H   0  0  0  0  0  0  0  0  0  0  0  0
    1.9543   -2.8978   -0.0265 H   0  0  0  0  0  0  0  0  0  0  0  0
    0.1882   -2.6857    0.0384 H   0  0  0  0  0  0  0  0  0  0  0  0
    2.7697    0.7476   -0.0474 H   0  0  0  0  0  0  0  0  0  0  0  0
    3.5695   -2.1701   -0.4748 H   0  0  0  0  0  0  0  0  0  0  0  0
    5.4680    1.5255    1.5691 H   0  0  0  0  0  0  0  0  0  0  0  0
    6.8664    0.7766    2.3832 H   0  0  0  0  0  0  0  0  0  0  0  0
    7.8862    0.5006    0.0274 H   0  0  0  0  0  0  0  0  0  0  0  0
    5.7420    2.5764   -0.5991 H   0  0  0  0  0  0  0  0  0  0  0  0
    6.9897    1.9735   -1.7121 H   0  0  0  0  0  0  0  0  0  0  0  0
    4.7025    1.7065   -2.9522 H   0  0  0  0  0  0  0  0  0  0  0  0
    4.0355    0.0603   -2.8366 H   0  0  0  0  0  0  0  0  0  0  0  0
    3.4694    1.3300   -1.7251 H   0  0  0  0  0  0  0  0  0  0  0  0
    8.5795    2.7873    0.0923 H   0  0  0  0  0  0  0  0  0  0  0  0
    4.3740   -1.9880    1.9070 H   0  0  0  0  0  0  0  0  0  0  0  0
    5.2275   -1.0181    3.1314 H   0  0  0  0  0  0  0  0  0  0  0  0
    3.9175   -0.2882    2.1726 H   0  0  0  0  0  0  0  0  0  0  0  0
    7.6474   -1.2494    0.3124 H   0  0  0  0  0  0  0  0  0  0  0  0
    7.4063   -1.5796    2.0448 H   0  0  0  0  0  0  0  0  0  0  0  0
    6.5421   -2.5468    0.8258 H   0  0  0  0  0  0  0  0  0  0  0  0
  -11.2506    0.5583    1.1022 H   0  0  0  0  0  0  0  0  0  0  0  0
  -11.2855    0.8069   -0.6600 H   0  0  0  0  0  0  0  0  0  0  0  0
  -11.5050   -1.5004   -0.0821 H   0  0  0  0  0  0  0  0  0  0  0  0
  1  2  1  0  0  0  0
  2  3  2  0  0  0  0
  3  4  1  0  0  0  0
  4  5  2  0  0  0  0
  5  6  1  0  0  0  0
  6  7  2  0  0  0  0
  7  8  1  0  0  0  0
  7  9  1  0  0  0  0
  9 10  2  0  0  0  0
 10 11  1  0  0  0  0
 11 12  2  0  0  0  0
 12 13  1  0  0  0  0
 12 14  1  0  0  0  0
 14 15  2  0  0  0  0
 15 16  1  0  0  0  0
 16 17  1  0  0  0  0
 17 18  1  0  0  0  0
 18 19  1  0  0  0  0
 19 20  1  0  0  0  0
 20 21  1  0  0  0  0
 16 21  1  0  0  0  0
 21 22  1  0  0  0  0
 16 22  1  0  0  0  0
 21 23  1  0  0  0  0
 19 24  1  0  0  0  0
 17 25  1  0  0  0  0
 17 26  1  0  0  0  0
  2 27  1  0  0  0  0
 27 28  1  0  0  0  0
  1 29  1  0  0  0  0
  1 30  1  0  0  0  0
  1 31  1  0  0  0  0
  3 32  1  0  0  0  0
  4 33  1  0  0  0  0
  5 34  1  0  0  0  0
  6 35  1  0  0  0  0
  8 36  1  0  0  0  0
  8 37  1  0  0  0  0
  8 38  1  0  0  0  0
  9 39  1  0  0  0  0
 10 40  1  0  0  0  0
 11 41  1  0  0  0  0
 13 42  1  0  0  0  0
 13 43  1  0  0  0  0
 13 44  1  0  0  0  0
 14 45  1  0  0  0  0
 15 46  1  0  0  0  0
 18 47  1  0  0  0  0
 18 48  1  0  0  0  0
 19 49  1  0  0  0  0
 20 50  1  0  0  0  0
 20 51  1  0  0  0  0
 23 52  1  0  0  0  0
 23 53  1  0  0  0  0
 23 54  1  0  0  0  0
 24 55  1  0  0  0  0
 25 56  1  0  0  0  0
 25 57  1  0  0  0  0
 25 58  1  0  0  0  0
 26 59  1  0  0  0  0
 26 60  1  0  0  0  0
 26 61  1  0  0  0  0
 27 62  1  0  0  0  0
 27 63  1  0  0  0  0
 28 64  1  0  0  0  0
M  END
$$$$
