C20H26O
APtclcactv06291803133D 0   0.00000     0.00000
 
 47 47  0  0  0  0  0  0  0  0999 V2000
    1.6820   -2.1903   -1.1696 C   0  0  0  0  0  0  0  0  0  0  0  0
    1.5715   -2.2005    0.3333 C   0  0  0  0  0  0  0  0  0  0  0  0
    1.9416   -1.1510    1.0244 C   0  0  0  0  0  0  0  0  0  0  0  0
    2.3577    0.1110    0.3135 C   0  0  0  0  0  0  0  0  0  0  0  0
    1.4521    1.2644    0.7498 C   0  0  0  0  0  0  0  0  0  0  0  0
    0.0413    0.9960    0.2929 C   0  0  0  0  0  0  0  0  0  0  0  0
   -0.9522    1.0006    1.1710 C   0  0  0  0  0  0  0  0  0  0  0  0
   -2.3355    0.7374    0.7229 C   0  0  0  0  0  0  0  0  0  0  0  0
   -3.3827    0.7419    1.6457 C   0  0  0  0  0  0  0  0  0  0  0  0
   -4.6719    0.4964    1.2238 C   0  0  0  0  0  0  0  0  0  0  0  0
   -4.9294    0.2449   -0.1174 C   0  0  0  0  0  0  0  0  0  0  0  0
   -3.8903    0.2392   -1.0384 C   0  0  0  0  0  0  0  0  0  0  0  0
   -2.5991    0.4895   -0.6252 C   0  0  0  0  0  0  0  0  0  0  0  0
   -6.2014    0.0034   -0.5294 O   0  0  0  0  0  0  0  0  0  0  0  0
   -6.3953   -0.2478   -1.9228 C   0  0  0  0  0  0  0  0  0  0  0  0
    3.7875    0.4356    0.6616 C   0  0  0  0  0  0  0  0  0  0  0  0
    4.6834    0.6093   -0.3042 C   0  0  0  0  0  0  0  0  0  0  0  0
    4.2542    0.5597   -1.7479 C   0  0  0  0  0  0  0  0  0  0  0  0
    6.0943    0.8500    0.0360 C   0  0  0  0  0  0  0  0  0  0  0  0
    6.9902    1.0237   -0.9298 C   0  0  0  0  0  0  0  0  0  0  0  0
    1.0353   -3.4180    1.0411 C   0  0  0  0  0  0  0  0  0  0  0  0
    2.7240   -2.0486   -1.4564 H   0  0  0  0  0  0  0  0  0  0  0  0
    1.3216   -3.1392   -1.5669 H   0  0  0  0  0  0  0  0  0  0  0  0
    1.0803   -1.3757   -1.5727 H   0  0  0  0  0  0  0  0  0  0  0  0
    1.9486   -1.1901    2.1037 H   0  0  0  0  0  0  0  0  0  0  0  0
    2.2695   -0.0327   -0.7634 H   0  0  0  0  0  0  0  0  0  0  0  0
    1.4719    1.3509    1.8362 H   0  0  0  0  0  0  0  0  0  0  0  0
    1.8075    2.1938    0.3048 H   0  0  0  0  0  0  0  0  0  0  0  0
   -0.1605    0.7999   -0.7498 H   0  0  0  0  0  0  0  0  0  0  0  0
   -0.7504    1.1967    2.2137 H   0  0  0  0  0  0  0  0  0  0  0  0
   -3.1832    0.9370    2.6890 H   0  0  0  0  0  0  0  0  0  0  0  0
   -5.4827    0.4993    1.9373 H   0  0  0  0  0  0  0  0  0  0  0  0
   -4.0944    0.0425   -2.0806 H   0  0  0  0  0  0  0  0  0  0  0  0
   -1.7914    0.4848   -1.3421 H   0  0  0  0  0  0  0  0  0  0  0  0
   -6.0601    0.6155   -2.4976 H   0  0  0  0  0  0  0  0  0  0  0  0
   -5.8204   -1.1258   -2.2172 H   0  0  0  0  0  0  0  0  0  0  0  0
   -7.4533   -0.4246   -2.1162 H   0  0  0  0  0  0  0  0  0  0  0  0
    4.0840    0.5270    1.6960 H   0  0  0  0  0  0  0  0  0  0  0  0
    3.8877    1.5402   -2.0518 H   0  0  0  0  0  0  0  0  0  0  0  0
    5.1044    0.2807   -2.3703 H   0  0  0  0  0  0  0  0  0  0  0  0
    3.4602   -0.1776   -1.8658 H   0  0  0  0  0  0  0  0  0  0  0  0
    6.4019    0.8855    1.0706 H   0  0  0  0  0  0  0  0  0  0  0  0
    8.0260    1.2005   -0.6801 H   0  0  0  0  0  0  0  0  0  0  0  0
    6.6826    0.9882   -1.9644 H   0  0  0  0  0  0  0  0  0  0  0  0
    0.7819   -4.1829    0.3071 H   0  0  0  0  0  0  0  0  0  0  0  0
    1.7928   -3.8052    1.7226 H   0  0  0  0  0  0  0  0  0  0  0  0
    0.1433   -3.1466    1.6058 H   0  0  0  0  0  0  0  0  0  0  0  0
  1  2  1  0  0  0  0
  2  3  2  0  0  0  0
  3  4  1  0  0  0  0
  4  5  1  0  0  0  0
  5  6  1  0  0  0  0
  6  7  2  0  0  0  0
  7  8  1  0  0  0  0
  8  9  2  0  0  0  0
  9 10  1  0  0  0  0
 10 11  2  0  0  0  0
 11 12  1  0  0  0  0
 12 13  2  0  0  0  0
  8 13  1  0  0  0  0
 11 14  1  0  0  0  0
 14 15  1  0  0  0  0
  4 16  1  0  0  0  0
 16 17  2  0  0  0  0
 17 18  1  0  0  0  0
 17 19  1  0  0  0  0
 19 20  2  0  0  0  0
  2 21  1  0  0  0  0
  1 22  1  0  0  0  0
  1 23  1  0  0  0  0
  1 24  1  0  0  0  0
  3 25  1  0  0  0  0
  4 26  1  0  0  0  0
  5 27  1  0  0  0  0
  5 28  1  0  0  0  0
  6 29  1  0  0  0  0
  7 30  1  0  0  0  0
  9 31  1  0  0  0  0
 10 32  1  0  0  0  0
 12 33  1  0  0  0  0
 13 34  1  0  0  0  0
 15 35  1  0  0  0  0
 15 36  1  0  0  0  0
 15 37  1  0  0  0  0
 16 38  1  0  0  0  0
 18 39  1  0  0  0  0
 18 40  1  0  0  0  0
 18 41  1  0  0  0  0
 19 42  1  0  0  0  0
 20 43  1  0  0  0  0
 20 44  1  0  0  0  0
 21 45  1  0  0  0  0
 21 46  1  0  0  0  0
 21 47  1  0  0  0  0
M  END
$$$$
