C19H24O7
APtclcactv06291803133D 0   0.00000     0.00000
 
 50 54  0  0  0  0  0  0  0  0999 V2000
    2.5004    2.2973   -0.8142 C   0  0  0  0  0  0  0  0  0  0  0  0
    2.1941    0.8984   -0.2757 C   0  0  0  0  0  0  0  0  0  0  0  0
    3.4219   -0.0381   -0.2767 C   0  0  0  0  0  0  0  0  0  0  0  0
    3.1150   -1.3266    0.4846 C   0  0  0  0  0  0  0  0  0  0  0  0
    1.8128   -1.9743   -0.0154 C   0  0  0  0  0  0  0  0  0  0  0  0
    0.7346   -0.9113    0.0146 C   0  0  0  0  0  0  0  0  0  0  0  0
    1.1136    0.1485   -1.0889 C   0  0  0  0  0  0  0  0  0  0  0  0
   -0.1817    0.9682   -1.2433 C   0  0  0  0  0  0  0  0  0  0  0  0
   -1.3021    0.0731   -0.7293 C   0  0  0  0  0  0  0  0  0  0  0  0
   -0.6625   -1.2853   -0.3946 C   0  0  0  0  0  0  0  0  0  0  0  0
   -1.4733   -2.1967    0.4450 C   0  0  0  0  0  0  0  0  0  0  0  0
   -2.5895   -1.6001    1.2720 C   0  0  0  0  0  0  0  0  0  0  0  0
   -3.1401   -0.2960    0.7020 C   0  0  0  0  0  0  0  0  0  0  0  0
   -1.9209    0.6587    0.5597 C   0  0  0  0  0  0  0  0  0  0  0  0
   -3.6430   -0.4901   -0.7164 C   0  0  0  0  0  0  0  0  0  0  0  0
   -4.8437   -0.8778   -1.0687 C   0  0  0  0  0  0  0  0  0  0  0  0
   -2.4904   -0.1500   -1.6556 C   0  0  0  0  0  0  0  0  0  0  0  0
   -4.1429    0.2607    1.5545 O   0  0  0  0  0  0  0  0  0  0  0  0
   -0.1020    2.2270   -0.4188 C   0  0  0  0  0  0  0  0  0  0  0  0
   -0.1763    2.1661    0.7856 O   0  0  0  0  0  0  0  0  0  0  0  0
    0.0515    3.4161   -1.0224 O   0  0  0  0  0  0  0  0  0  0  0  0
    0.7845   -0.1561    1.2534 O   0  0  0  0  0  0  0  0  0  0  0  0
    1.6403    0.9051    1.1419 C   0  0  0  0  0  0  0  0  0  0  0  0
    1.8981    1.6965    2.0177 O   0  0  0  0  0  0  0  0  0  0  0  0
    1.9890   -2.4492   -1.3517 O   0  0  0  0  0  0  0  0  0  0  0  0
    4.1943   -2.2456    0.3034 O   0  0  0  0  0  0  0  0  0  0  0  0
    2.4090    2.2965   -1.9004 H   0  0  0  0  0  0  0  0  0  0  0  0
    1.7948    3.0122   -0.3908 H   0  0  0  0  0  0  0  0  0  0  0  0
    3.5155    2.5799   -0.5352 H   0  0  0  0  0  0  0  0  0  0  0  0
    3.6866   -0.2828   -1.3055 H   0  0  0  0  0  0  0  0  0  0  0  0
    4.2614    0.4691    0.1988 H   0  0  0  0  0  0  0  0  0  0  0  0
    3.0158   -1.0991    1.5459 H   0  0  0  0  0  0  0  0  0  0  0  0
    1.5357   -2.8011    0.6386 H   0  0  0  0  0  0  0  0  0  0  0  0
    1.4843   -0.2837   -2.0183 H   0  0  0  0  0  0  0  0  0  0  0  0
   -0.3482    1.2145   -2.2920 H   0  0  0  0  0  0  0  0  0  0  0  0
   -0.5581   -1.7944   -1.3527 H   0  0  0  0  0  0  0  0  0  0  0  0
   -1.9120   -2.9489   -0.2106 H   0  0  0  0  0  0  0  0  0  0  0  0
   -0.7953   -2.7117    1.1255 H   0  0  0  0  0  0  0  0  0  0  0  0
   -3.4021   -2.3238    1.3354 H   0  0  0  0  0  0  0  0  0  0  0  0
   -2.2154   -1.4107    2.2782 H   0  0  0  0  0  0  0  0  0  0  0  0
   -1.2408    0.5664    1.4065 H   0  0  0  0  0  0  0  0  0  0  0  0
   -2.2376    1.6918    0.4167 H   0  0  0  0  0  0  0  0  0  0  0  0
   -5.5850   -1.0928   -0.3133 H   0  0  0  0  0  0  0  0  0  0  0  0
   -5.0922   -0.9823   -2.1145 H   0  0  0  0  0  0  0  0  0  0  0  0
   -2.7116    0.7578   -2.2170 H   0  0  0  0  0  0  0  0  0  0  0  0
   -2.2940   -0.9802   -2.3340 H   0  0  0  0  0  0  0  0  0  0  0  0
   -4.9018   -0.3204    1.7006 H   0  0  0  0  0  0  0  0  0  0  0  0
    0.1687    4.1869   -0.4504 H   0  0  0  0  0  0  0  0  0  0  0  0
    2.6872   -3.1117   -1.4448 H   0  0  0  0  0  0  0  0  0  0  0  0
    5.0469   -1.9186    0.6215 H   0  0  0  0  0  0  0  0  0  0  0  0
  1  2  1  0  0  0  0
  2  3  1  0  0  0  0
  3  4  1  0  0  0  0
  4  5  1  0  0  0  0
  5  6  1  0  0  0  0
  6  7  1  0  0  0  0
  2  7  1  0  0  0  0
  7  8  1  0  0  0  0
  8  9  1  0  0  0  0
  9 10  1  0  0  0  0
  6 10  1  0  0  0  0
 10 11  1  0  0  0  0
 11 12  1  0  0  0  0
 12 13  1  0  0  0  0
 13 14  1  0  0  0  0
  9 14  1  0  0  0  0
 13 15  1  0  0  0  0
 15 16  2  0  0  0  0
 15 17  1  0  0  0  0
  9 17  1  0  0  0  0
 13 18  1  0  0  0  0
  8 19  1  0  0  0  0
 19 20  2  0  0  0  0
 19 21  1  0  0  0  0
  6 22  1  0  0  0  0
 22 23  1  0  0  0  0
  2 23  1  0  0  0  0
 23 24  2  0  0  0  0
  5 25  1  0  0  0  0
  4 26  1  0  0  0  0
  1 27  1  0  0  0  0
  1 28  1  0  0  0  0
  1 29  1  0  0  0  0
  3 30  1  0  0  0  0
  3 31  1  0  0  0  0
  4 32  1  0  0  0  0
  5 33  1  0  0  0  0
  7 34  1  0  0  0  0
  8 35  1  0  0  0  0
 10 36  1  0  0  0  0
 11 37  1  0  0  0  0
 11 38  1  0  0  0  0
 12 39  1  0  0  0  0
 12 40  1  0  0  0  0
 14 41  1  0  0  0  0
 14 42  1  0  0  0  0
 16 43  1  0  0  0  0
 16 44  1  0  0  0  0
 17 45  1  0  0  0  0
 17 46  1  0  0  0  0
 18 47  1  0  0  0  0
 21 48  1  0  0  0  0
 25 49  1  0  0  0  0
 26 50  1  0  0  0  0
M  END
$$$$
