C40H58O4
APtclcactv06291803103D 0   0.00000     0.00000
 
102103  0  0  0  0  0  0  0  0999 V2000
  -11.2231    1.9978    1.0805 C   0  0  0  0  0  0  0  0  0  0  0  0
  -12.3350    1.2438    0.3977 C   0  0  0  0  0  0  0  0  0  0  0  0
  -12.1402   -0.0330    0.1133 C   0  0  0  0  0  0  0  0  0  0  0  0
  -13.1643   -0.9028   -0.5559 C   0  0  0  0  0  0  0  0  0  0  0  0
  -14.2350   -0.0373   -1.2233 C   0  0  0  0  0  0  0  0  0  0  0  0
  -14.7331    0.9944   -0.2039 C   0  0  0  0  0  0  0  0  0  0  0  0
  -13.6034    1.9827    0.0843 C   0  0  0  0  0  0  0  0  0  0  0  0
  -15.8591    1.6929   -0.7389 O   0  0  0  0  0  0  0  0  0  0  0  0
  -12.4798   -1.7694   -1.6148 C   0  0  0  0  0  0  0  0  0  0  0  0
  -13.8217   -1.8075    0.4883 C   0  0  0  0  0  0  0  0  0  0  0  0
  -10.8938   -0.6127    0.4595 C   0  0  0  0  0  0  0  0  0  0  0  0
   -9.7396   -0.0799   -0.0211 C   0  0  0  0  0  0  0  0  0  0  0  0
   -8.4998   -0.5695    0.4256 C   0  0  0  0  0  0  0  0  0  0  0  0
   -7.3407   -0.0344   -0.0571 C   0  0  0  0  0  0  0  0  0  0  0  0
   -6.1045   -0.5226    0.3883 C   0  0  0  0  0  0  0  0  0  0  0  0
   -4.9352    0.0173   -0.0987 C   0  0  0  0  0  0  0  0  0  0  0  0
   -3.7005   -0.4703    0.3462 C   0  0  0  0  0  0  0  0  0  0  0  0
   -2.5303    0.0699   -0.1411 C   0  0  0  0  0  0  0  0  0  0  0  0
   -1.2960   -0.4175    0.3036 C   0  0  0  0  0  0  0  0  0  0  0  0
   -0.1258    0.1227   -0.1837 C   0  0  0  0  0  0  0  0  0  0  0  0
    1.1088   -0.3649    0.2612 C   0  0  0  0  0  0  0  0  0  0  0  0
    2.2782    0.1749   -0.2258 C   0  0  0  0  0  0  0  0  0  0  0  0
    2.2290    1.2906   -1.2377 C   0  0  0  0  0  0  0  0  0  0  0  0
    3.5143   -0.3132    0.2196 C   0  0  0  0  0  0  0  0  0  0  0  0
    4.6735    0.2219   -0.2631 C   0  0  0  0  0  0  0  0  0  0  0  0
    5.9133   -0.2677    0.1836 C   0  0  0  0  0  0  0  0  0  0  0  0
    7.0674    0.2651   -0.2970 C   0  0  0  0  0  0  0  0  0  0  0  0
    7.0182    1.3808   -1.3089 C   0  0  0  0  0  0  0  0  0  0  0  0
    8.3176   -0.2286    0.1535 C   0  0  0  0  0  0  0  0  0  0  0  0
    9.4526    0.2954   -0.3193 C   0  0  0  0  0  0  0  0  0  0  0  0
   10.7905   -0.2329    0.1628 C   0  0  0  0  0  0  0  0  0  0  0  0
   11.5582   -0.7687   -1.0360 C   0  0  0  0  0  0  0  0  0  0  0  0
   13.0265   -1.0259   -0.7131 C   0  0  0  0  0  0  0  0  0  0  0  0
   13.6728    0.2280   -0.1259 C   0  0  0  0  0  0  0  0  0  0  0  0
   12.9673    0.5757    1.1829 C   0  0  0  0  0  0  0  0  0  0  0  0
   11.4906    0.8646    0.9465 C   0  0  0  0  0  0  0  0  0  0  0  0
   11.3201    2.2257    0.2677 C   0  0  0  0  0  0  0  0  0  0  0  0
   10.8533    0.9528    2.2411 O   0  0  0  0  0  0  0  0  0  0  0  0
   15.0545   -0.0404    0.1431 O   0  0  0  0  0  0  0  0  0  0  0  0
   10.9242   -2.1185   -1.4384 C   0  0  0  0  0  0  0  0  0  0  0  0
   11.4367    0.1702   -2.2375 C   0  0  0  0  0  0  0  0  0  0  0  0
   10.5224   -1.3300    1.0565 O   0  0  0  0  0  0  0  0  0  0  0  0
   -3.6513   -1.5860    1.3581 C   0  0  0  0  0  0  0  0  0  0  0  0
   -8.4506   -1.6852    1.4375 C   0  0  0  0  0  0  0  0  0  0  0  0
  -10.5196    2.3638    0.3326 H   0  0  0  0  0  0  0  0  0  0  0  0
  -11.6404    2.8414    1.6303 H   0  0  0  0  0  0  0  0  0  0  0  0
  -10.7051    1.3336    1.7723 H   0  0  0  0  0  0  0  0  0  0  0  0
  -13.8066    0.4759   -2.0842 H   0  0  0  0  0  0  0  0  0  0  0  0
  -15.0660   -0.6655   -1.5443 H   0  0  0  0  0  0  0  0  0  0  0  0
  -15.0169    0.4893    0.7194 H   0  0  0  0  0  0  0  0  0  0  0  0
  -13.8800    2.6106    0.9312 H   0  0  0  0  0  0  0  0  0  0  0  0
  -13.4411    2.6113   -0.7913 H   0  0  0  0  0  0  0  0  0  0  0  0
  -16.2254    2.3621   -0.1447 H   0  0  0  0  0  0  0  0  0  0  0  0
  -11.7897   -2.4592   -1.1291 H   0  0  0  0  0  0  0  0  0  0  0  0
  -13.2328   -2.3350   -2.1636 H   0  0  0  0  0  0  0  0  0  0  0  0
  -11.9294   -1.1313   -2.3061 H   0  0  0  0  0  0  0  0  0  0  0  0
  -14.3056   -1.1935    1.2480 H   0  0  0  0  0  0  0  0  0  0  0  0
  -14.5659   -2.4400    0.0043 H   0  0  0  0  0  0  0  0  0  0  0  0
  -13.0621   -2.4334    0.9567 H   0  0  0  0  0  0  0  0  0  0  0  0
  -10.8613   -1.4778    1.1053 H   0  0  0  0  0  0  0  0  0  0  0  0
   -9.7749    0.7196   -0.7463 H   0  0  0  0  0  0  0  0  0  0  0  0
   -7.3759    0.7651   -0.7823 H   0  0  0  0  0  0  0  0  0  0  0  0
   -6.0692   -1.3221    1.1135 H   0  0  0  0  0  0  0  0  0  0  0  0
   -4.9704    0.8168   -0.8239 H   0  0  0  0  0  0  0  0  0  0  0  0
   -2.5656    0.8694   -0.8663 H   0  0  0  0  0  0  0  0  0  0  0  0
   -1.2608   -1.2171    1.0288 H   0  0  0  0  0  0  0  0  0  0  0  0
   -0.1611    0.9222   -0.9089 H   0  0  0  0  0  0  0  0  0  0  0  0
    1.1441   -1.1644    0.9864 H   0  0  0  0  0  0  0  0  0  0  0  0
    2.2154    2.2499   -0.7205 H   0  0  0  0  0  0  0  0  0  0  0  0
    3.1074    1.2369   -1.8807 H   0  0  0  0  0  0  0  0  0  0  0  0
    1.3284    1.1919   -1.8439 H   0  0  0  0  0  0  0  0  0  0  0  0
    3.5496   -1.1128    0.9448 H   0  0  0  0  0  0  0  0  0  0  0  0
    4.6382    1.0214   -0.9883 H   0  0  0  0  0  0  0  0  0  0  0  0
    5.9485   -1.0672    0.9088 H   0  0  0  0  0  0  0  0  0  0  0  0
    7.0047    2.3401   -0.7917 H   0  0  0  0  0  0  0  0  0  0  0  0
    7.8967    1.3271   -1.9520 H   0  0  0  0  0  0  0  0  0  0  0  0
    6.1177    1.2821   -1.9151 H   0  0  0  0  0  0  0  0  0  0  0  0
    8.3529   -1.0281    0.8787 H   0  0  0  0  0  0  0  0  0  0  0  0
    9.4174    1.0949   -1.0444 H   0  0  0  0  0  0  0  0  0  0  0  0
   13.1041   -1.8435    0.0070 H   0  0  0  0  0  0  0  0  0  0  0  0
   13.5553   -1.3104   -1.6260 H   0  0  0  0  0  0  0  0  0  0  0  0
   13.6064    1.0558   -0.8261 H   0  0  0  0  0  0  0  0  0  0  0  0
   13.0685   -0.2607    1.8800 H   0  0  0  0  0  0  0  0  0  0  0  0
   13.4439    1.4549    1.6257 H   0  0  0  0  0  0  0  0  0  0  0  0
   11.7714    2.1962   -0.7240 H   0  0  0  0  0  0  0  0  0  0  0  0
   10.2586    2.4560    0.1770 H   0  0  0  0  0  0  0  0  0  0  0  0
   11.8088    2.9941    0.8666 H   0  0  0  0  0  0  0  0  0  0  0  0
   11.2114    1.6486    2.8092 H   0  0  0  0  0  0  0  0  0  0  0  0
   15.5350    0.7099    0.5189 H   0  0  0  0  0  0  0  0  0  0  0  0
    9.8768   -1.9648   -1.6981 H   0  0  0  0  0  0  0  0  0  0  0  0
   11.4554   -2.5276   -2.2977 H   0  0  0  0  0  0  0  0  0  0  0  0
   10.9929   -2.8155   -0.6032 H   0  0  0  0  0  0  0  0  0  0  0  0
   11.9261    1.1171   -2.0096 H   0  0  0  0  0  0  0  0  0  0  0  0
   11.9140   -0.2859   -3.1048 H   0  0  0  0  0  0  0  0  0  0  0  0
   10.3834    0.3485   -2.4542 H   0  0  0  0  0  0  0  0  0  0  0  0
    9.9945   -1.0875    1.8296 H   0  0  0  0  0  0  0  0  0  0  0  0
   -3.6378   -2.5453    0.8409 H   0  0  0  0  0  0  0  0  0  0  0  0
   -2.7508   -1.4873    1.9643 H   0  0  0  0  0  0  0  0  0  0  0  0
   -4.5298   -1.5323    2.0012 H   0  0  0  0  0  0  0  0  0  0  0  0
   -8.4371   -2.6445    0.9203 H   0  0  0  0  0  0  0  0  0  0  0  0
   -7.5501   -1.5865    2.0437 H   0  0  0  0  0  0  0  0  0  0  0  0
   -9.3291   -1.6315    2.0805 H   0  0  0  0  0  0  0  0  0  0  0  0
  1  2  1  0  0  0  0
  2  3  2  0  0  0  0
  3  4  1  0  0  0  0
  4  5  1  0  0  0  0
  5  6  1  0  0  0  0
  6  7  1  0  0  0  0
  2  7  1  0  0  0  0
  6  8  1  0  0  0  0
  4  9  1  0  0  0  0
  4 10  1  0  0  0  0
  3 11  1  0  0  0  0
 11 12  2  0  0  0  0
 12 13  1  0  0  0  0
 13 14  2  0  0  0  0
 14 15  1  0  0  0  0
 15 16  2  0  0  0  0
 16 17  1  0  0  0  0
 17 18  2  0  0  0  0
 18 19  1  0  0  0  0
 19 20  2  0  0  0  0
 20 21  1  0  0  0  0
 21 22  2  0  0  0  0
 22 23  1  0  0  0  0
 22 24  1  0  0  0  0
 24 25  2  0  0  0  0
 25 26  1  0  0  0  0
 26 27  2  0  0  0  0
 27 28  1  0  0  0  0
 27 29  1  0  0  0  0
 29 30  2  0  0  0  0
 30 31  1  0  0  0  0
 31 32  1  0  0  0  0
 32 33  1  0  0  0  0
 33 34  1  0  0  0  0
 34 35  1  0  0  0  0
 35 36  1  0  0  0  0
 31 36  1  0  0  0  0
 36 37  1  0  0  0  0
 36 38  1  0  0  0  0
 34 39  1  0  0  0  0
 32 40  1  0  0  0  0
 32 41  1  0  0  0  0
 31 42  1  0  0  0  0
 17 43  1  0  0  0  0
 13 44  1  0  0  0  0
  1 45  1  0  0  0  0
  1 46  1  0  0  0  0
  1 47  1  0  0  0  0
  5 48  1  0  0  0  0
  5 49  1  0  0  0  0
  6 50  1  0  0  0  0
  7 51  1  0  0  0  0
  7 52  1  0  0  0  0
  8 53  1  0  0  0  0
  9 54  1  0  0  0  0
  9 55  1  0  0  0  0
  9 56  1  0  0  0  0
 10 57  1  0  0  0  0
 10 58  1  0  0  0  0
 10 59  1  0  0  0  0
 11 60  1  0  0  0  0
 12 61  1  0  0  0  0
 14 62  1  0  0  0  0
 15 63  1  0  0  0  0
 16 64  1  0  0  0  0
 18 65  1  0  0  0  0
 19 66  1  0  0  0  0
 20 67  1  0  0  0  0
 21 68  1  0  0  0  0
 23 69  1  0  0  0  0
 23 70  1  0  0  0  0
 23 71  1  0  0  0  0
 24 72  1  0  0  0  0
 25 73  1  0  0  0  0
 26 74  1  0  0  0  0
 28 75  1  0  0  0  0
 28 76  1  0  0  0  0
 28 77  1  0  0  0  0
 29 78  1  0  0  0  0
 30 79  1  0  0  0  0
 33 80  1  0  0  0  0
 33 81  1  0  0  0  0
 34 82  1  0  0  0  0
 35 83  1  0  0  0  0
 35 84  1  0  0  0  0
 37 85  1  0  0  0  0
 37 86  1  0  0  0  0
 37 87  1  0  0  0  0
 38 88  1  0  0  0  0
 39 89  1  0  0  0  0
 40 90  1  0  0  0  0
 40 91  1  0  0  0  0
 40 92  1  0  0  0  0
 41 93  1  0  0  0  0
 41 94  1  0  0  0  0
 41 95  1  0  0  0  0
 42 96  1  0  0  0  0
 43 97  1  0  0  0  0
 43 98  1  0  0  0  0
 43 99  1  0  0  0  0
 44100  1  0  0  0  0
 44101  1  0  0  0  0
 44102  1  0  0  0  0
M  END
$$$$
