C40H56O2
APtclcactv06281817093D 0   0.00000     0.00000
 
 98 97  0  0  0  0  0  0  0  0999 V2000
  -12.4199    2.6702   -0.5746 C   0  0  0  0  0  0  0  0  0  0  0  0
  -12.5309    1.1673   -0.5746 C   0  0  0  0  0  0  0  0  0  0  0  0
  -11.4256    0.4156   -0.5746 C   0  0  0  0  0  0  0  0  0  0  0  0
  -10.1492    1.0321   -0.5746 C   0  0  0  0  0  0  0  0  0  0  0  0
   -9.0253    0.2677   -0.5746 C   0  0  0  0  0  0  0  0  0  0  0  0
   -7.7596    0.8790   -0.5746 C   0  0  0  0  0  0  0  0  0  0  0  0
   -6.6307    0.1112   -0.5746 C   0  0  0  0  0  0  0  0  0  0  0  0
   -5.3688    0.7207   -0.5746 C   0  0  0  0  0  0  0  0  0  0  0  0
   -4.2299   -0.0539   -0.5746 C   0  0  0  0  0  0  0  0  0  0  0  0
   -2.9696    0.5547   -0.5746 C   0  0  0  0  0  0  0  0  0  0  0  0
   -1.8297   -0.2206   -0.5746 C   0  0  0  0  0  0  0  0  0  0  0  0
   -0.5701    0.3878   -0.5746 C   0  0  0  0  0  0  0  0  0  0  0  0
    0.5701   -0.3878   -0.5746 C   0  0  0  0  0  0  0  0  0  0  0  0
    1.8297    0.2206   -0.5746 C   0  0  0  0  0  0  0  0  0  0  0  0
    2.9696   -0.5547   -0.5746 C   0  0  0  0  0  0  0  0  0  0  0  0
    2.8587   -2.0577   -0.5746 C   0  0  0  0  0  0  0  0  0  0  0  0
    4.2299    0.0539   -0.5746 C   0  0  0  0  0  0  0  0  0  0  0  0
    5.3688   -0.7207   -0.5746 C   0  0  0  0  0  0  0  0  0  0  0  0
    6.6307   -0.1112   -0.5746 C   0  0  0  0  0  0  0  0  0  0  0  0
    7.7596   -0.8790   -0.5746 C   0  0  0  0  0  0  0  0  0  0  0  0
    7.6487   -2.3819   -0.5746 C   0  0  0  0  0  0  0  0  0  0  0  0
    9.0253   -0.2677   -0.5746 C   0  0  0  0  0  0  0  0  0  0  0  0
   10.1492   -1.0321   -0.5746 C   0  0  0  0  0  0  0  0  0  0  0  0
   11.4256   -0.4156   -0.5746 C   0  0  0  0  0  0  0  0  0  0  0  0
   12.5309   -1.1673   -0.5746 C   0  0  0  0  0  0  0  0  0  0  0  0
   12.4199   -2.6702   -0.5746 C   0  0  0  0  0  0  0  0  0  0  0  0
   13.8879   -0.5119   -0.5746 C   0  0  0  0  0  0  0  0  0  0  0  0
   14.4018   -0.4033    0.8625 C   0  0  0  0  0  0  0  0  0  0  0  0
   15.7588    0.2521    0.8625 C   0  0  0  0  0  0  0  0  0  0  0  0
   15.9518    1.3586    1.5365 C   0  0  0  0  0  0  0  0  0  0  0  0
   14.7886    2.0483    2.2017 C   0  0  0  0  0  0  0  0  0  0  0  0
   17.3369    1.9419    1.6468 C   0  0  0  0  0  0  0  0  0  0  0  0
   18.2606    1.1133    0.9381 O   0  0  0  0  0  0  0  0  0  0  0  0
   -2.8587    2.0577   -0.5746 C   0  0  0  0  0  0  0  0  0  0  0  0
   -7.6487    2.3819   -0.5746 C   0  0  0  0  0  0  0  0  0  0  0  0
  -13.8879    0.5119   -0.5746 C   0  0  0  0  0  0  0  0  0  0  0  0
  -14.4018    0.4033    0.8625 C   0  0  0  0  0  0  0  0  0  0  0  0
  -15.7588   -0.2521    0.8625 C   0  0  0  0  0  0  0  0  0  0  0  0
  -15.9518   -1.3586    1.5365 C   0  0  0  0  0  0  0  0  0  0  0  0
  -14.7886   -2.0483    2.2017 C   0  0  0  0  0  0  0  0  0  0  0  0
  -17.3369   -1.9420    1.6468 C   0  0  0  0  0  0  0  0  0  0  0  0
  -18.2606   -1.1133    0.9381 O   0  0  0  0  0  0  0  0  0  0  0  0
  -12.3932    3.0326   -1.6022 H   0  0  0  0  0  0  0  0  0  0  0  0
  -13.2808    3.0981   -0.0607 H   0  0  0  0  0  0  0  0  0  0  0  0
  -11.5056    2.9671   -0.0607 H   0  0  0  0  0  0  0  0  0  0  0  0
  -11.5051   -0.6615   -0.5746 H   0  0  0  0  0  0  0  0  0  0  0  0
  -10.0697    2.1092   -0.5746 H   0  0  0  0  0  0  0  0  0  0  0  0
   -9.1048   -0.8094   -0.5746 H   0  0  0  0  0  0  0  0  0  0  0  0
   -6.7102   -0.9659   -0.5746 H   0  0  0  0  0  0  0  0  0  0  0  0
   -5.2893    1.7978   -0.5746 H   0  0  0  0  0  0  0  0  0  0  0  0
   -4.3094   -1.1310   -0.5746 H   0  0  0  0  0  0  0  0  0  0  0  0
   -1.9092   -1.2976   -0.5746 H   0  0  0  0  0  0  0  0  0  0  0  0
   -0.4906    1.4648   -0.5746 H   0  0  0  0  0  0  0  0  0  0  0  0
    0.4906   -1.4648   -0.5746 H   0  0  0  0  0  0  0  0  0  0  0  0
    1.9092    1.2976   -0.5746 H   0  0  0  0  0  0  0  0  0  0  0  0
    2.8319   -2.4200   -1.6022 H   0  0  0  0  0  0  0  0  0  0  0  0
    3.7195   -2.4855   -0.0607 H   0  0  0  0  0  0  0  0  0  0  0  0
    1.9444   -2.3545   -0.0607 H   0  0  0  0  0  0  0  0  0  0  0  0
    4.3094    1.1310   -0.5746 H   0  0  0  0  0  0  0  0  0  0  0  0
    5.2893   -1.7978   -0.5746 H   0  0  0  0  0  0  0  0  0  0  0  0
    6.7102    0.9659   -0.5746 H   0  0  0  0  0  0  0  0  0  0  0  0
    7.6219   -2.7443   -1.6022 H   0  0  0  0  0  0  0  0  0  0  0  0
    8.5095   -2.8098   -0.0607 H   0  0  0  0  0  0  0  0  0  0  0  0
    6.7343   -2.6787   -0.0607 H   0  0  0  0  0  0  0  0  0  0  0  0
    9.1048    0.8094   -0.5746 H   0  0  0  0  0  0  0  0  0  0  0  0
   10.0697   -2.1092   -0.5746 H   0  0  0  0  0  0  0  0  0  0  0  0
   11.5051    0.6615   -0.5746 H   0  0  0  0  0  0  0  0  0  0  0  0
   12.3932   -3.0326   -1.6022 H   0  0  0  0  0  0  0  0  0  0  0  0
   13.2808   -3.0981   -0.0607 H   0  0  0  0  0  0  0  0  0  0  0  0
   11.5056   -2.9671   -0.0607 H   0  0  0  0  0  0  0  0  0  0  0  0
   14.5812   -1.1119   -1.1640 H   0  0  0  0  0  0  0  0  0  0  0  0
   13.8100    0.4848   -1.0089 H   0  0  0  0  0  0  0  0  0  0  0  0
   13.7085    0.1967    1.4519 H   0  0  0  0  0  0  0  0  0  0  0  0
   14.4797   -1.4000    1.2968 H   0  0  0  0  0  0  0  0  0  0  0  0
   16.5723   -0.1905    0.3067 H   0  0  0  0  0  0  0  0  0  0  0  0
   14.6129    1.6019    3.1805 H   0  0  0  0  0  0  0  0  0  0  0  0
   15.0143    3.1080    2.3209 H   0  0  0  0  0  0  0  0  0  0  0  0
   13.8973    1.9338    1.5849 H   0  0  0  0  0  0  0  0  0  0  0  0
   17.3445    2.9439    1.2177 H   0  0  0  0  0  0  0  0  0  0  0  0
   17.6268    1.9940    2.6963 H   0  0  0  0  0  0  0  0  0  0  0  0
   19.1741    1.4290    0.9665 H   0  0  0  0  0  0  0  0  0  0  0  0
   -2.8319    2.4200    0.4531 H   0  0  0  0  0  0  0  0  0  0  0  0
   -1.9444    2.3545   -1.0884 H   0  0  0  0  0  0  0  0  0  0  0  0
   -3.7195    2.4855   -1.0884 H   0  0  0  0  0  0  0  0  0  0  0  0
   -7.6219    2.7443    0.4531 H   0  0  0  0  0  0  0  0  0  0  0  0
   -6.7343    2.6787   -1.0884 H   0  0  0  0  0  0  0  0  0  0  0  0
   -8.5095    2.8098   -1.0884 H   0  0  0  0  0  0  0  0  0  0  0  0
  -14.5812    1.1119   -1.1640 H   0  0  0  0  0  0  0  0  0  0  0  0
  -13.8100   -0.4848   -1.0089 H   0  0  0  0  0  0  0  0  0  0  0  0
  -13.7085   -0.1967    1.4519 H   0  0  0  0  0  0  0  0  0  0  0  0
  -14.4797    1.4000    1.2968 H   0  0  0  0  0  0  0  0  0  0  0  0
  -16.5723    0.1905    0.3067 H   0  0  0  0  0  0  0  0  0  0  0  0
  -14.6129   -1.6019    3.1805 H   0  0  0  0  0  0  0  0  0  0  0  0
  -15.0143   -3.1080    2.3209 H   0  0  0  0  0  0  0  0  0  0  0  0
  -13.8973   -1.9338    1.5849 H   0  0  0  0  0  0  0  0  0  0  0  0
  -17.3445   -2.9439    1.2177 H   0  0  0  0  0  0  0  0  0  0  0  0
  -17.6268   -1.9940    2.6963 H   0  0  0  0  0  0  0  0  0  0  0  0
  -19.1741   -1.4290    0.9665 H   0  0  0  0  0  0  0  0  0  0  0  0
  1  2  1  0  0  0  0
  2  3  2  0  0  0  0
  3  4  1  0  0  0  0
  4  5  2  0  0  0  0
  5  6  1  0  0  0  0
  6  7  2  0  0  0  0
  7  8  1  0  0  0  0
  8  9  2  0  0  0  0
  9 10  1  0  0  0  0
 10 11  2  0  0  0  0
 11 12  1  0  0  0  0
 12 13  2  0  0  0  0
 13 14  1  0  0  0  0
 14 15  2  0  0  0  0
 15 16  1  0  0  0  0
 15 17  1  0  0  0  0
 17 18  2  0  0  0  0
 18 19  1  0  0  0  0
 19 20  2  0  0  0  0
 20 21  1  0  0  0  0
 20 22  1  0  0  0  0
 22 23  2  0  0  0  0
 23 24  1  0  0  0  0
 24 25  2  0  0  0  0
 25 26  1  0  0  0  0
 25 27  1  0  0  0  0
 27 28  1  0  0  0  0
 28 29  1  0  0  0  0
 29 30  2  0  0  0  0
 30 31  1  0  0  0  0
 30 32  1  0  0  0  0
 32 33  1  0  0  0  0
 10 34  1  0  0  0  0
  6 35  1  0  0  0  0
  2 36  1  0  0  0  0
 36 37  1  0  0  0  0
 37 38  1  0  0  0  0
 38 39  2  0  0  0  0
 39 40  1  0  0  0  0
 39 41  1  0  0  0  0
 41 42  1  0  0  0  0
  1 43  1  0  0  0  0
  1 44  1  0  0  0  0
  1 45  1  0  0  0  0
  3 46  1  0  0  0  0
  4 47  1  0  0  0  0
  5 48  1  0  0  0  0
  7 49  1  0  0  0  0
  8 50  1  0  0  0  0
  9 51  1  0  0  0  0
 11 52  1  0  0  0  0
 12 53  1  0  0  0  0
 13 54  1  0  0  0  0
 14 55  1  0  0  0  0
 16 56  1  0  0  0  0
 16 57  1  0  0  0  0
 16 58  1  0  0  0  0
 17 59  1  0  0  0  0
 18 60  1  0  0  0  0
 19 61  1  0  0  0  0
 21 62  1  0  0  0  0
 21 63  1  0  0  0  0
 21 64  1  0  0  0  0
 22 65  1  0  0  0  0
 23 66  1  0  0  0  0
 24 67  1  0  0  0  0
 26 68  1  0  0  0  0
 26 69  1  0  0  0  0
 26 70  1  0  0  0  0
 27 71  1  0  0  0  0
 27 72  1  0  0  0  0
 28 73  1  0  0  0  0
 28 74  1  0  0  0  0
 29 75  1  0  0  0  0
 31 76  1  0  0  0  0
 31 77  1  0  0  0  0
 31 78  1  0  0  0  0
 32 79  1  0  0  0  0
 32 80  1  0  0  0  0
 33 81  1  0  0  0  0
 34 82  1  0  0  0  0
 34 83  1  0  0  0  0
 34 84  1  0  0  0  0
 35 85  1  0  0  0  0
 35 86  1  0  0  0  0
 35 87  1  0  0  0  0
 36 88  1  0  0  0  0
 36 89  1  0  0  0  0
 37 90  1  0  0  0  0
 37 91  1  0  0  0  0
 38 92  1  0  0  0  0
 40 93  1  0  0  0  0
 40 94  1  0  0  0  0
 40 95  1  0  0  0  0
 41 96  1  0  0  0  0
 41 97  1  0  0  0  0
 42 98  1  0  0  0  0
M  END
$$$$
