C27H30O15
APtclcactv06291803133D 0   0.00000     0.00000
 
 72 76  0  0  0  0  0  0  0  0999 V2000
    4.0655   -0.0791   -0.8675 C   0  0  0  0  0  0  0  0  0  0  0  0
    2.7619   -0.5289   -0.9061 C   0  0  0  0  0  0  0  0  0  0  0  0
    1.8315   -0.0465    0.0117 C   0  0  0  0  0  0  0  0  0  0  0  0
    2.2233    0.8933    0.9701 C   0  0  0  0  0  0  0  0  0  0  0  0
    3.5335    1.3393    1.0018 C   0  0  0  0  0  0  0  0  0  0  0  0
    4.4539    0.8542    0.0846 C   0  0  0  0  0  0  0  0  0  0  0  0
    5.7397    1.2932    0.1180 O   0  0  0  0  0  0  0  0  0  0  0  0
    6.6353    0.7524   -0.8554 C   0  0  0  0  0  0  0  0  0  0  0  0
    7.9930    1.4508   -0.7436 C   0  0  0  0  0  0  0  0  0  0  0  0
    8.5884    1.1741    0.6403 C   0  0  0  0  0  0  0  0  0  0  0  0
    8.6951   -0.3402    0.8447 C   0  0  0  0  0  0  0  0  0  0  0  0
    7.3102   -0.9695    0.6715 C   0  0  0  0  0  0  0  0  0  0  0  0
    6.8011   -0.6481   -0.6245 O   0  0  0  0  0  0  0  0  0  0  0  0
    7.4187   -2.4889    0.8148 C   0  0  0  0  0  0  0  0  0  0  0  0
    6.1122   -3.0660    0.7694 O   0  0  0  0  0  0  0  0  0  0  0  0
    9.5936   -0.8902   -0.1208 O   0  0  0  0  0  0  0  0  0  0  0  0
    9.8884    1.7610    0.7275 O   0  0  0  0  0  0  0  0  0  0  0  0
    8.8730    0.9482   -1.7512 O   0  0  0  0  0  0  0  0  0  0  0  0
    1.3203    1.3680    1.8677 O   0  0  0  0  0  0  0  0  0  0  0  0
    0.4292   -0.5280   -0.0280 C   0  0  0  0  0  0  0  0  0  0  0  0
   -0.0329   -1.4107    0.8953 C   0  0  0  0  0  0  0  0  0  0  0  0
   -1.2789   -1.8855    0.8894 O   0  0  0  0  0  0  0  0  0  0  0  0
   -2.2497   -1.2953    0.1674 C   0  0  0  0  0  0  0  0  0  0  0  0
   -1.9286   -0.3727   -0.8440 C   0  0  0  0  0  0  0  0  0  0  0  0
   -0.5060   -0.0573   -1.0679 C   0  0  0  0  0  0  0  0  0  0  0  0
   -0.1239    0.5468   -2.0554 O   0  0  0  0  0  0  0  0  0  0  0  0
   -2.9338    0.2292   -1.6006 C   0  0  0  0  0  0  0  0  0  0  0  0
   -4.2419   -0.0752   -1.3521 C   0  0  0  0  0  0  0  0  0  0  0  0
   -4.5732   -0.9822   -0.3474 C   0  0  0  0  0  0  0  0  0  0  0  0
   -3.5861   -1.5903    0.4085 C   0  0  0  0  0  0  0  0  0  0  0  0
   -5.8774   -1.2723   -0.1076 O   0  0  0  0  0  0  0  0  0  0  0  0
   -6.8491   -0.6123   -0.9214 C   0  0  0  0  0  0  0  0  0  0  0  0
   -8.2428   -1.1539   -0.5930 C   0  0  0  0  0  0  0  0  0  0  0  0
   -8.5720   -0.8413    0.8699 C   0  0  0  0  0  0  0  0  0  0  0  0
   -8.4684    0.6706    1.0933 C   0  0  0  0  0  0  0  0  0  0  0  0
   -7.0660    1.1417    0.6998 C   0  0  0  0  0  0  0  0  0  0  0  0
   -6.8123    0.7926   -0.6625 O   0  0  0  0  0  0  0  0  0  0  0  0
   -6.9733    2.6602    0.8632 C   0  0  0  0  0  0  0  0  0  0  0  0
   -5.6332    3.0858    0.6084 O   0  0  0  0  0  0  0  0  0  0  0  0
   -9.4406    1.3400    0.2878 O   0  0  0  0  0  0  0  0  0  0  0  0
   -9.9002   -1.2782    1.1649 O   0  0  0  0  0  0  0  0  0  0  0  0
   -9.2090   -0.5328   -1.4432 O   0  0  0  0  0  0  0  0  0  0  0  0
    4.7870   -0.4572   -1.5767 H   0  0  0  0  0  0  0  0  0  0  0  0
    2.4627   -1.2546   -1.6479 H   0  0  0  0  0  0  0  0  0  0  0  0
    3.8390    2.0654    1.7406 H   0  0  0  0  0  0  0  0  0  0  0  0
    6.2262    0.9105   -1.8533 H   0  0  0  0  0  0  0  0  0  0  0  0
    7.8621    2.5248   -0.8757 H   0  0  0  0  0  0  0  0  0  0  0  0
    7.9420    1.6009    1.4073 H   0  0  0  0  0  0  0  0  0  0  0  0
    9.0662   -0.5471    1.8484 H   0  0  0  0  0  0  0  0  0  0  0  0
    6.6359   -0.5795    1.4340 H   0  0  0  0  0  0  0  0  0  0  0  0
    8.0210   -2.8886   -0.0010 H   0  0  0  0  0  0  0  0  0  0  0  0
    7.8901   -2.7313    1.7671 H   0  0  0  0  0  0  0  0  0  0  0  0
    6.1045   -4.0292    0.8546 H   0  0  0  0  0  0  0  0  0  0  0  0
   10.4906   -0.5323   -0.0721 H   0  0  0  0  0  0  0  0  0  0  0  0
    9.8965    2.7196    0.6006 H   0  0  0  0  0  0  0  0  0  0  0  0
    8.5557    1.0851   -2.6543 H   0  0  0  0  0  0  0  0  0  0  0  0
    1.2678    0.8513    2.6834 H   0  0  0  0  0  0  0  0  0  0  0  0
    0.6409   -1.7440    1.6707 H   0  0  0  0  0  0  0  0  0  0  0  0
   -2.6790    0.9329   -2.3792 H   0  0  0  0  0  0  0  0  0  0  0  0
   -5.0226    0.3893   -1.9363 H   0  0  0  0  0  0  0  0  0  0  0  0
   -3.8539   -2.2923    1.1844 H   0  0  0  0  0  0  0  0  0  0  0  0
   -6.6267   -0.7943   -1.9728 H   0  0  0  0  0  0  0  0  0  0  0  0
   -8.2601   -2.2327   -0.7478 H   0  0  0  0  0  0  0  0  0  0  0  0
   -7.8647   -1.3554    1.5207 H   0  0  0  0  0  0  0  0  0  0  0  0
   -8.6471    0.8965    2.1445 H   0  0  0  0  0  0  0  0  0  0  0  0
   -6.3276    0.6612    1.3417 H   0  0  0  0  0  0  0  0  0  0  0  0
   -7.6485    3.1434    0.1570 H   0  0  0  0  0  0  0  0  0  0  0  0
   -7.2544    2.9340    1.8801 H   0  0  0  0  0  0  0  0  0  0  0  0
   -5.5005    4.0398    0.6940 H   0  0  0  0  0  0  0  0  0  0  0  0
  -10.3534    1.0855    0.4802 H   0  0  0  0  0  0  0  0  0  0  0  0
  -10.0395   -2.2267    1.0382 H   0  0  0  0  0  0  0  0  0  0  0  0
   -9.0590   -0.6853   -2.3862 H   0  0  0  0  0  0  0  0  0  0  0  0
  1  2  2  0  0  0  0
  2  3  1  0  0  0  0
  3  4  2  0  0  0  0
  4  5  1  0  0  0  0
  5  6  2  0  0  0  0
  1  6  1  0  0  0  0
  6  7  1  0  0  0  0
  7  8  1  0  0  0  0
  8  9  1  0  0  0  0
  9 10  1  0  0  0  0
 10 11  1  0  0  0  0
 11 12  1  0  0  0  0
 12 13  1  0  0  0  0
  8 13  1  0  0  0  0
 12 14  1  0  0  0  0
 14 15  1  0  0  0  0
 11 16  1  0  0  0  0
 10 17  1  0  0  0  0
  9 18  1  0  0  0  0
  4 19  1  0  0  0  0
  3 20  1  0  0  0  0
 20 21  2  0  0  0  0
 21 22  1  0  0  0  0
 22 23  1  0  0  0  0
 23 24  2  0  0  0  0
 24 25  1  0  0  0  0
 20 25  1  0  0  0  0
 25 26  2  0  0  0  0
 24 27  1  0  0  0  0
 27 28  2  0  0  0  0
 28 29  1  0  0  0  0
 29 30  2  0  0  0  0
 23 30  1  0  0  0  0
 29 31  1  0  0  0  0
 31 32  1  0  0  0  0
 32 33  1  0  0  0  0
 33 34  1  0  0  0  0
 34 35  1  0  0  0  0
 35 36  1  0  0  0  0
 36 37  1  0  0  0  0
 32 37  1  0  0  0  0
 36 38  1  0  0  0  0
 38 39  1  0  0  0  0
 35 40  1  0  0  0  0
 34 41  1  0  0  0  0
 33 42  1  0  0  0  0
  1 43  1  0  0  0  0
  2 44  1  0  0  0  0
  5 45  1  0  0  0  0
  8 46  1  0  0  0  0
  9 47  1  0  0  0  0
 10 48  1  0  0  0  0
 11 49  1  0  0  0  0
 12 50  1  0  0  0  0
 14 51  1  0  0  0  0
 14 52  1  0  0  0  0
 15 53  1  0  0  0  0
 16 54  1  0  0  0  0
 17 55  1  0  0  0  0
 18 56  1  0  0  0  0
 19 57  1  0  0  0  0
 21 58  1  0  0  0  0
 27 59  1  0  0  0  0
 28 60  1  0  0  0  0
 30 61  1  0  0  0  0
 32 62  1  0  0  0  0
 33 63  1  0  0  0  0
 34 64  1  0  0  0  0
 35 65  1  0  0  0  0
 36 66  1  0  0  0  0
 38 67  1  0  0  0  0
 38 68  1  0  0  0  0
 39 69  1  0  0  0  0
 40 70  1  0  0  0  0
 41 71  1  0  0  0  0
 42 72  1  0  0  0  0
M  END
$$$$
