C22H38O10
APtclcactv06291803073D 0   0.00000     0.00000
 
 70 71  0  0  0  0  0  0  0  0999 V2000
    6.0026    0.8863   -1.4279 C   0  0  0  0  0  0  0  0  0  0  0  0
    5.5636    1.0182    0.0318 C   0  0  0  0  0  0  0  0  0  0  0  0
    5.3559    2.4966    0.3709 C   0  0  0  0  0  0  0  0  0  0  0  0
    4.2328    3.0604   -0.5050 C   0  0  0  0  0  0  0  0  0  0  0  0
    2.9643    2.2301   -0.2867 C   0  0  0  0  0  0  0  0  0  0  0  0
    3.2643    0.7620   -0.6004 C   0  0  0  0  0  0  0  0  0  0  0  0
    4.3381    0.3094    0.2268 O   0  0  0  0  0  0  0  0  0  0  0  0
    2.1008   -0.0273   -0.3451 O   0  0  0  0  0  0  0  0  0  0  0  0
    2.2381   -1.4012   -0.7134 C   0  0  0  0  0  0  0  0  0  0  0  0
    0.9397   -2.1462   -0.3973 C   0  0  0  0  0  0  0  0  0  0  0  0
    1.0412   -3.5869   -0.9050 C   0  0  0  0  0  0  0  0  0  0  0  0
   -0.2377   -4.3428   -0.5317 C   0  0  0  0  0  0  0  0  0  0  0  0
   -0.4340   -4.2737    0.9859 C   0  0  0  0  0  0  0  0  0  0  0  0
   -0.4785   -2.8065    1.4206 C   0  0  0  0  0  0  0  0  0  0  0  0
    0.7269   -2.1544    1.0158 O   0  0  0  0  0  0  0  0  0  0  0  0
   -1.5976   -2.1619    0.8087 O   0  0  0  0  0  0  0  0  0  0  0  0
   -1.7975   -0.8135    1.2375 C   0  0  0  0  0  0  0  0  0  0  0  0
   -2.9972   -0.2349    0.5325 C   0  0  0  0  0  0  0  0  0  0  0  0
   -2.9407    0.9723    0.0270 C   0  0  0  0  0  0  0  0  0  0  0  0
   -1.7242    1.8306    0.2601 C   0  0  0  0  0  0  0  0  0  0  0  0
   -4.0923    1.5027   -0.7877 C   0  0  0  0  0  0  0  0  0  0  0  0
   -5.0215    2.3184    0.1134 C   0  0  0  0  0  0  0  0  0  0  0  0
   -6.1730    2.8488   -0.7013 C   0  0  0  0  0  0  0  0  0  0  0  0
   -7.4053    2.5991   -0.3336 C   0  0  0  0  0  0  0  0  0  0  0  0
   -7.6714    1.7815    0.9040 C   0  0  0  0  0  0  0  0  0  0  0  0
   -8.5569    3.1295   -1.1483 C   0  0  0  0  0  0  0  0  0  0  0  0
   -1.6622   -4.9136    1.3382 O   0  0  0  0  0  0  0  0  0  0  0  0
   -1.3567   -3.7416   -1.1863 O   0  0  0  0  0  0  0  0  0  0  0  0
    1.1961   -3.5828   -2.3255 O   0  0  0  0  0  0  0  0  0  0  0  0
    2.5424    2.3513    1.0732 O   0  0  0  0  0  0  0  0  0  0  0  0
    3.9822    4.4202   -0.1443 O   0  0  0  0  0  0  0  0  0  0  0  0
    4.9974    2.6248    1.7482 O   0  0  0  0  0  0  0  0  0  0  0  0
    6.9368    1.4278   -1.5767 H   0  0  0  0  0  0  0  0  0  0  0  0
    6.1504   -0.1663   -1.6692 H   0  0  0  0  0  0  0  0  0  0  0  0
    5.2333    1.3035   -2.0778 H   0  0  0  0  0  0  0  0  0  0  0  0
    6.3326    0.6007    0.6818 H   0  0  0  0  0  0  0  0  0  0  0  0
    6.2774    3.0469    0.1806 H   0  0  0  0  0  0  0  0  0  0  0  0
    4.5269    3.0082   -1.5533 H   0  0  0  0  0  0  0  0  0  0  0  0
    2.1753    2.5898   -0.9472 H   0  0  0  0  0  0  0  0  0  0  0  0
    3.5470    0.6647   -1.6486 H   0  0  0  0  0  0  0  0  0  0  0  0
    2.4470   -1.4720   -1.7809 H   0  0  0  0  0  0  0  0  0  0  0  0
    3.0590   -1.8475   -0.1521 H   0  0  0  0  0  0  0  0  0  0  0  0
    0.1048   -1.6458   -0.8879 H   0  0  0  0  0  0  0  0  0  0  0  0
    1.9004   -4.0754   -0.4453 H   0  0  0  0  0  0  0  0  0  0  0  0
   -0.1491   -5.3843   -0.8408 H   0  0  0  0  0  0  0  0  0  0  0  0
    0.3953   -4.7761    1.4837 H   0  0  0  0  0  0  0  0  0  0  0  0
   -0.5752   -2.7513    2.5049 H   0  0  0  0  0  0  0  0  0  0  0  0
   -1.9654   -0.7957    2.3144 H   0  0  0  0  0  0  0  0  0  0  0  0
   -0.9145   -0.2212    0.9976 H   0  0  0  0  0  0  0  0  0  0  0  0
   -3.9036   -0.8155    0.4441 H   0  0  0  0  0  0  0  0  0  0  0  0
   -0.9651    1.5952   -0.4858 H   0  0  0  0  0  0  0  0  0  0  0  0
   -2.0002    2.8819    0.1783 H   0  0  0  0  0  0  0  0  0  0  0  0
   -1.3274    1.6356    1.2564 H   0  0  0  0  0  0  0  0  0  0  0  0
   -3.7100    2.1387   -1.5861 H   0  0  0  0  0  0  0  0  0  0  0  0
   -4.6455    0.6692   -1.2205 H   0  0  0  0  0  0  0  0  0  0  0  0
   -5.4038    1.6824    0.9118 H   0  0  0  0  0  0  0  0  0  0  0  0
   -4.4683    3.1519    0.5462 H   0  0  0  0  0  0  0  0  0  0  0  0
   -5.9823    3.4348   -1.5882 H   0  0  0  0  0  0  0  0  0  0  0  0
   -7.2342    2.2795    1.7694 H   0  0  0  0  0  0  0  0  0  0  0  0
   -8.7471    1.6801    1.0481 H   0  0  0  0  0  0  0  0  0  0  0  0
   -7.2254    0.7935    0.7896 H   0  0  0  0  0  0  0  0  0  0  0  0
   -8.8294    2.3995   -1.9104 H   0  0  0  0  0  0  0  0  0  0  0  0
   -9.4111    3.3096   -0.4957 H   0  0  0  0  0  0  0  0  0  0  0  0
   -8.2629    4.0631   -1.6281 H   0  0  0  0  0  0  0  0  0  0  0  0
   -1.8512   -4.9071    2.2865 H   0  0  0  0  0  0  0  0  0  0  0  0
   -2.2018   -4.1707   -0.9944 H   0  0  0  0  0  0  0  0  0  0  0  0
    1.2669   -4.4647   -2.7160 H   0  0  0  0  0  0  0  0  0  0  0  0
    1.7425    1.8500    1.2830 H   0  0  0  0  0  0  0  0  0  0  0  0
    3.2809    4.8411   -0.6602 H   0  0  0  0  0  0  0  0  0  0  0  0
    5.6623    2.2826    2.3612 H   0  0  0  0  0  0  0  0  0  0  0  0
  1  2  1  0  0  0  0
  2  3  1  0  0  0  0
  3  4  1  0  0  0  0
  4  5  1  0  0  0  0
  5  6  1  0  0  0  0
  6  7  1  0  0  0  0
  2  7  1  0  0  0  0
  6  8  1  0  0  0  0
  8  9  1  0  0  0  0
  9 10  1  0  0  0  0
 10 11  1  0  0  0  0
 11 12  1  0  0  0  0
 12 13  1  0  0  0  0
 13 14  1  0  0  0  0
 14 15  1  0  0  0  0
 10 15  1  0  0  0  0
 14 16  1  0  0  0  0
 16 17  1  0  0  0  0
 17 18  1  0  0  0  0
 18 19  2  0  0  0  0
 19 20  1  0  0  0  0
 19 21  1  0  0  0  0
 21 22  1  0  0  0  0
 22 23  1  0  0  0  0
 23 24  2  0  0  0  0
 24 25  1  0  0  0  0
 24 26  1  0  0  0  0
 13 27  1  0  0  0  0
 12 28  1  0  0  0  0
 11 29  1  0  0  0  0
  5 30  1  0  0  0  0
  4 31  1  0  0  0  0
  3 32  1  0  0  0  0
  1 33  1  0  0  0  0
  1 34  1  0  0  0  0
  1 35  1  0  0  0  0
  2 36  1  0  0  0  0
  3 37  1  0  0  0  0
  4 38  1  0  0  0  0
  5 39  1  0  0  0  0
  6 40  1  0  0  0  0
  9 41  1  0  0  0  0
  9 42  1  0  0  0  0
 10 43  1  0  0  0  0
 11 44  1  0  0  0  0
 12 45  1  0  0  0  0
 13 46  1  0  0  0  0
 14 47  1  0  0  0  0
 17 48  1  0  0  0  0
 17 49  1  0  0  0  0
 18 50  1  0  0  0  0
 20 51  1  0  0  0  0
 20 52  1  0  0  0  0
 20 53  1  0  0  0  0
 21 54  1  0  0  0  0
 21 55  1  0  0  0  0
 22 56  1  0  0  0  0
 22 57  1  0  0  0  0
 23 58  1  0  0  0  0
 25 59  1  0  0  0  0
 25 60  1  0  0  0  0
 25 61  1  0  0  0  0
 26 62  1  0  0  0  0
 26 63  1  0  0  0  0
 26 64  1  0  0  0  0
 27 65  1  0  0  0  0
 28 66  1  0  0  0  0
 29 67  1  0  0  0  0
 30 68  1  0  0  0  0
 31 69  1  0  0  0  0
 32 70  1  0  0  0  0
M  END
$$$$
