C40H56O4
APtclcactv06291803103D 0   0.00000     0.00000
 
100103  0  0  0  0  0  0  0  0999 V2000
   -2.8752    2.1788   -0.5395 C   0  0  0  0  0  0  0  0  0  0  0  0
   -2.9721    0.7047   -0.2421 C   0  0  0  0  0  0  0  0  0  0  0  0
   -1.8269   -0.0419   -0.0825 C   0  0  0  0  0  0  0  0  0  0  0  0
   -0.5713    0.5686   -0.1965 C   0  0  0  0  0  0  0  0  0  0  0  0
    0.5744   -0.1783   -0.0368 C   0  0  0  0  0  0  0  0  0  0  0  0
    1.8300    0.4322   -0.1508 C   0  0  0  0  0  0  0  0  0  0  0  0
    2.9751   -0.3143    0.0088 C   0  0  0  0  0  0  0  0  0  0  0  0
    2.8783   -1.7885    0.3062 C   0  0  0  0  0  0  0  0  0  0  0  0
    4.2320    0.2967   -0.1053 C   0  0  0  0  0  0  0  0  0  0  0  0
    5.3674   -0.4434    0.0530 C   0  0  0  0  0  0  0  0  0  0  0  0
    6.6277    0.1693   -0.0614 C   0  0  0  0  0  0  0  0  0  0  0  0
    7.7584   -0.5677    0.0961 C   0  0  0  0  0  0  0  0  0  0  0  0
    7.6615   -2.0419    0.3935 C   0  0  0  0  0  0  0  0  0  0  0  0
    9.0292    0.0502   -0.0192 C   0  0  0  0  0  0  0  0  0  0  0  0
   10.1412   -0.6748    0.1358 C   0  0  0  0  0  0  0  0  0  0  0  0
   11.4962   -0.0159    0.0128 C   0  0  0  0  0  0  0  0  0  0  0  0
   12.4078   -0.5827   -1.1026 C   0  0  0  0  0  0  0  0  0  0  0  0
   13.4191    0.5654   -1.3572 C   0  0  0  0  0  0  0  0  0  0  0  0
   12.8825    1.6935   -0.4249 C   0  0  0  0  0  0  0  0  0  0  0  0
   11.4454    1.3999   -0.4114 O   0  0  0  0  0  0  0  0  0  0  0  0
   13.3114    1.2545    1.0072 C   0  0  0  0  0  0  0  0  0  0  0  0
   12.2697    0.1558    1.3438 C   0  0  0  0  0  0  0  0  0  0  0  0
   11.3110    0.6907    2.4284 C   0  0  0  0  0  0  0  0  0  0  0  0
   12.8911   -1.0289    1.8233 O   0  0  0  0  0  0  0  0  0  0  0  0
   13.1126   -1.8836   -0.7426 C   0  0  0  0  0  0  0  0  0  0  0  0
   11.5727   -0.8028   -2.3825 C   0  0  0  0  0  0  0  0  0  0  0  0
   -4.2289    0.0936   -0.1280 C   0  0  0  0  0  0  0  0  0  0  0  0
   -5.3644    0.8337   -0.2863 C   0  0  0  0  0  0  0  0  0  0  0  0
   -6.6247    0.2210   -0.1719 C   0  0  0  0  0  0  0  0  0  0  0  0
   -7.7553    0.9580   -0.3294 C   0  0  0  0  0  0  0  0  0  0  0  0
   -7.6585    2.4322   -0.6268 C   0  0  0  0  0  0  0  0  0  0  0  0
   -9.0261    0.3401   -0.2141 C   0  0  0  0  0  0  0  0  0  0  0  0
  -10.1382    1.0651   -0.3691 C   0  0  0  0  0  0  0  0  0  0  0  0
  -11.4890    0.4083   -0.2464 C   0  0  0  0  0  0  0  0  0  0  0  0
  -12.1364    0.4867    1.1344 C   0  0  0  0  0  0  0  0  0  0  0  0
  -12.5848   -0.9035    1.5854 C   0  0  0  0  0  0  0  0  0  0  0  0
  -13.4943   -1.4987    0.5045 C   0  0  0  0  0  0  0  0  0  0  0  0
  -12.6290   -1.9252   -0.6813 C   0  0  0  0  0  0  0  0  0  0  0  0
  -11.7899   -0.7571   -1.1760 C   0  0  0  0  0  0  0  0  0  0  0  0
  -12.3839    0.5190   -1.3644 O   0  0  0  0  0  0  0  0  0  0  0  0
  -10.6884   -1.1319   -2.1695 C   0  0  0  0  0  0  0  0  0  0  0  0
  -14.1824   -2.6357    1.0296 O   0  0  0  0  0  0  0  0  0  0  0  0
  -11.1248    1.0438    2.1380 C   0  0  0  0  0  0  0  0  0  0  0  0
  -13.3503    1.4161    1.0733 C   0  0  0  0  0  0  0  0  0  0  0  0
   -2.8443    2.3306   -1.6184 H   0  0  0  0  0  0  0  0  0  0  0  0
   -3.7438    2.6909   -0.1253 H   0  0  0  0  0  0  0  0  0  0  0  0
   -1.9675    2.5813   -0.0898 H   0  0  0  0  0  0  0  0  0  0  0  0
   -1.8963   -1.0984    0.1306 H   0  0  0  0  0  0  0  0  0  0  0  0
   -0.5019    1.6251   -0.4096 H   0  0  0  0  0  0  0  0  0  0  0  0
    0.5049   -1.2348    0.1763 H   0  0  0  0  0  0  0  0  0  0  0  0
    1.8994    1.4887   -0.3639 H   0  0  0  0  0  0  0  0  0  0  0  0
    2.8625   -2.3476   -0.6294 H   0  0  0  0  0  0  0  0  0  0  0  0
    3.7392   -2.0969    0.8993 H   0  0  0  0  0  0  0  0  0  0  0  0
    1.9630   -1.9873    0.8637 H   0  0  0  0  0  0  0  0  0  0  0  0
    4.3014    1.3532   -0.3184 H   0  0  0  0  0  0  0  0  0  0  0  0
    5.2980   -1.4999    0.2661 H   0  0  0  0  0  0  0  0  0  0  0  0
    6.6972    1.2258   -0.2745 H   0  0  0  0  0  0  0  0  0  0  0  0
    7.6457   -2.6010   -0.5420 H   0  0  0  0  0  0  0  0  0  0  0  0
    8.5225   -2.3503    0.9866 H   0  0  0  0  0  0  0  0  0  0  0  0
    6.7462   -2.2407    0.9510 H   0  0  0  0  0  0  0  0  0  0  0  0
    9.0986    1.1066   -0.2323 H   0  0  0  0  0  0  0  0  0  0  0  0
   10.0718   -1.7312    0.3489 H   0  0  0  0  0  0  0  0  0  0  0  0
   14.4248    0.2667   -1.0656 H   0  0  0  0  0  0  0  0  0  0  0  0
   13.3933    0.8795   -2.3998 H   0  0  0  0  0  0  0  0  0  0  0  0
   13.1566    2.7078   -0.7086 H   0  0  0  0  0  0  0  0  0  0  0  0
   14.3201    0.8447    1.0034 H   0  0  0  0  0  0  0  0  0  0  0  0
   13.2334    2.0867    1.7064 H   0  0  0  0  0  0  0  0  0  0  0  0
   10.8208    1.5944    2.0664 H   0  0  0  0  0  0  0  0  0  0  0  0
   10.5589   -0.0654    2.6535 H   0  0  0  0  0  0  0  0  0  0  0  0
   11.8763    0.9210    3.3315 H   0  0  0  0  0  0  0  0  0  0  0  0
   13.3933   -0.9065    2.6406 H   0  0  0  0  0  0  0  0  0  0  0  0
   12.3698   -2.6499   -0.5208 H   0  0  0  0  0  0  0  0  0  0  0  0
   13.7289   -2.2071   -1.5814 H   0  0  0  0  0  0  0  0  0  0  0  0
   13.7434   -1.7251    0.1320 H   0  0  0  0  0  0  0  0  0  0  0  0
   11.1474    0.1470   -2.7067 H   0  0  0  0  0  0  0  0  0  0  0  0
   12.2125   -1.2019   -3.1696 H   0  0  0  0  0  0  0  0  0  0  0  0
   10.7687   -1.5089   -2.1748 H   0  0  0  0  0  0  0  0  0  0  0  0
   -4.2984   -0.9629    0.0851 H   0  0  0  0  0  0  0  0  0  0  0  0
   -5.2949    1.8902   -0.4994 H   0  0  0  0  0  0  0  0  0  0  0  0
   -6.6941   -0.8355    0.0412 H   0  0  0  0  0  0  0  0  0  0  0  0
   -7.6275    2.5839   -1.7058 H   0  0  0  0  0  0  0  0  0  0  0  0
   -8.5270    2.9442   -0.2127 H   0  0  0  0  0  0  0  0  0  0  0  0
   -6.7508    2.8347   -0.1771 H   0  0  0  0  0  0  0  0  0  0  0  0
   -9.0956   -0.7163   -0.0010 H   0  0  0  0  0  0  0  0  0  0  0  0
  -10.0687    2.1216   -0.5822 H   0  0  0  0  0  0  0  0  0  0  0  0
  -11.7125   -1.5427    1.7223 H   0  0  0  0  0  0  0  0  0  0  0  0
  -13.1344   -0.8244    2.5233 H   0  0  0  0  0  0  0  0  0  0  0  0
  -14.2158   -0.7489    0.1800 H   0  0  0  0  0  0  0  0  0  0  0  0
  -11.9704   -2.7369   -0.3724 H   0  0  0  0  0  0  0  0  0  0  0  0
  -13.2726   -2.2727   -1.4895 H   0  0  0  0  0  0  0  0  0  0  0  0
  -11.0299   -1.9551   -2.7971 H   0  0  0  0  0  0  0  0  0  0  0  0
  -10.4552   -0.2705   -2.7954 H   0  0  0  0  0  0  0  0  0  0  0  0
   -9.7955   -1.4371   -1.6240 H   0  0  0  0  0  0  0  0  0  0  0  0
  -14.7767   -3.0623    0.3972 H   0  0  0  0  0  0  0  0  0  0  0  0
  -10.8131    2.0401    1.8246 H   0  0  0  0  0  0  0  0  0  0  0  0
  -11.5851    1.1005    3.1244 H   0  0  0  0  0  0  0  0  0  0  0  0
  -10.2555    0.3875    2.1799 H   0  0  0  0  0  0  0  0  0  0  0  0
  -14.0709    1.0258    0.3547 H   0  0  0  0  0  0  0  0  0  0  0  0
  -13.8139    1.4734    2.0581 H   0  0  0  0  0  0  0  0  0  0  0  0
  -13.0309    2.4111    0.7636 H   0  0  0  0  0  0  0  0  0  0  0  0
  1  2  1  0  0  0  0
  2  3  2  0  0  0  0
  3  4  1  0  0  0  0
  4  5  2  0  0  0  0
  5  6  1  0  0  0  0
  6  7  2  0  0  0  0
  7  8  1  0  0  0  0
  7  9  1  0  0  0  0
  9 10  2  0  0  0  0
 10 11  1  0  0  0  0
 11 12  2  0  0  0  0
 12 13  1  0  0  0  0
 12 14  1  0  0  0  0
 14 15  2  0  0  0  0
 15 16  1  0  0  0  0
 16 17  1  0  0  0  0
 17 18  1  0  0  0  0
 18 19  1  0  0  0  0
 19 20  1  0  0  0  0
 16 20  1  0  0  0  0
 19 21  1  0  0  0  0
 21 22  1  0  0  0  0
 16 22  1  0  0  0  0
 22 23  1  0  0  0  0
 22 24  1  0  0  0  0
 17 25  1  0  0  0  0
 17 26  1  0  0  0  0
  2 27  1  0  0  0  0
 27 28  2  0  0  0  0
 28 29  1  0  0  0  0
 29 30  2  0  0  0  0
 30 31  1  0  0  0  0
 30 32  1  0  0  0  0
 32 33  2  0  0  0  0
 33 34  1  0  0  0  0
 34 35  1  0  0  0  0
 35 36  1  0  0  0  0
 36 37  1  0  0  0  0
 37 38  1  0  0  0  0
 38 39  1  0  0  0  0
 34 39  1  0  0  0  0
 39 40  1  0  0  0  0
 34 40  1  0  0  0  0
 39 41  1  0  0  0  0
 37 42  1  0  0  0  0
 35 43  1  0  0  0  0
 35 44  1  0  0  0  0
  1 45  1  0  0  0  0
  1 46  1  0  0  0  0
  1 47  1  0  0  0  0
  3 48  1  0  0  0  0
  4 49  1  0  0  0  0
  5 50  1  0  0  0  0
  6 51  1  0  0  0  0
  8 52  1  0  0  0  0
  8 53  1  0  0  0  0
  8 54  1  0  0  0  0
  9 55  1  0  0  0  0
 10 56  1  0  0  0  0
 11 57  1  0  0  0  0
 13 58  1  0  0  0  0
 13 59  1  0  0  0  0
 13 60  1  0  0  0  0
 14 61  1  0  0  0  0
 15 62  1  0  0  0  0
 18 63  1  0  0  0  0
 18 64  1  0  0  0  0
 19 65  1  0  0  0  0
 21 66  1  0  0  0  0
 21 67  1  0  0  0  0
 23 68  1  0  0  0  0
 23 69  1  0  0  0  0
 23 70  1  0  0  0  0
 24 71  1  0  0  0  0
 25 72  1  0  0  0  0
 25 73  1  0  0  0  0
 25 74  1  0  0  0  0
 26 75  1  0  0  0  0
 26 76  1  0  0  0  0
 26 77  1  0  0  0  0
 27 78  1  0  0  0  0
 28 79  1  0  0  0  0
 29 80  1  0  0  0  0
 31 81  1  0  0  0  0
 31 82  1  0  0  0  0
 31 83  1  0  0  0  0
 32 84  1  0  0  0  0
 33 85  1  0  0  0  0
 36 86  1  0  0  0  0
 36 87  1  0  0  0  0
 37 88  1  0  0  0  0
 38 89  1  0  0  0  0
 38 90  1  0  0  0  0
 41 91  1  0  0  0  0
 41 92  1  0  0  0  0
 41 93  1  0  0  0  0
 42 94  1  0  0  0  0
 43 95  1  0  0  0  0
 43 96  1  0  0  0  0
 43 97  1  0  0  0  0
 44 98  1  0  0  0  0
 44 99  1  0  0  0  0
 44100  1  0  0  0  0
M  END
$$$$
