C32H52O13
APtclcactv06291803083D 0   0.00000     0.00000
 
 97 98  0  0  0  0  0  0  0  0999 V2000
   -6.6124   -1.6312    0.1555 C   0  0  0  0  0  0  0  0  0  0  0  0
   -7.1281   -0.6192    1.1459 C   0  0  0  0  0  0  0  0  0  0  0  0
   -6.2869    0.1259    1.8192 C   0  0  0  0  0  0  0  0  0  0  0  0
   -4.8126    0.0623    1.5137 C   0  0  0  0  0  0  0  0  0  0  0  0
   -4.3149    1.4519    1.1108 C   0  0  0  0  0  0  0  0  0  0  0  0
   -2.8406    1.3884    0.8052 C   0  0  0  0  0  0  0  0  0  0  0  0
   -2.4340    1.2278   -0.4297 C   0  0  0  0  0  0  0  0  0  0  0  0
   -0.9604    1.1368   -0.7320 C   0  0  0  0  0  0  0  0  0  0  0  0
   -0.6682   -0.1801   -1.4540 C   0  0  0  0  0  0  0  0  0  0  0  0
    0.8279   -0.2724   -1.7609 C   0  0  0  0  0  0  0  0  0  0  0  0
    1.1017   -1.5279   -2.5912 C   0  0  0  0  0  0  0  0  0  0  0  0
    1.2578    0.9463   -2.5362 C   0  0  0  0  0  0  0  0  0  0  0  0
    2.0864    1.8064   -1.9980 C   0  0  0  0  0  0  0  0  0  0  0  0
    1.5619   -0.3415   -0.5367 O   0  0  0  0  0  0  0  0  0  0  0  0
    2.9624   -0.5659   -0.7106 C   0  0  0  0  0  0  0  0  0  0  0  0
    3.6930   -0.2754    0.6030 C   0  0  0  0  0  0  0  0  0  0  0  0
    3.1968   -1.2457    1.6795 C   0  0  0  0  0  0  0  0  0  0  0  0
    3.4176   -2.6826    1.1970 C   0  0  0  0  0  0  0  0  0  0  0  0
    2.6976   -2.8801   -0.1396 C   0  0  0  0  0  0  0  0  0  0  0  0
    3.1839   -1.9267   -1.0865 O   0  0  0  0  0  0  0  0  0  0  0  0
    2.9630   -4.2950   -0.6579 C   0  0  0  0  0  0  0  0  0  0  0  0
    2.1986   -4.5188   -1.8444 O   0  0  0  0  0  0  0  0  0  0  0  0
    4.8164   -2.9192    1.0254 O   0  0  0  0  0  0  0  0  0  0  0  0
    3.9258   -1.0305    2.8896 O   0  0  0  0  0  0  0  0  0  0  0  0
    5.0990   -0.4483    0.4157 O   0  0  0  0  0  0  0  0  0  0  0  0
    5.9031    0.4220    1.2146 C   0  0  0  0  0  0  0  0  0  0  0  0
    7.3712    0.0011    1.1087 C   0  0  0  0  0  0  0  0  0  0  0  0
    7.8323    0.1462   -0.3449 C   0  0  0  0  0  0  0  0  0  0  0  0
    7.6078    1.5920   -0.7983 C   0  0  0  0  0  0  0  0  0  0  0  0
    6.1306    1.9514   -0.6187 C   0  0  0  0  0  0  0  0  0  0  0  0
    5.7592    1.7652    0.7486 O   0  0  0  0  0  0  0  0  0  0  0  0
    5.9095    3.4131   -1.0130 C   0  0  0  0  0  0  0  0  0  0  0  0
    4.5120    3.7093   -0.9798 O   0  0  0  0  0  0  0  0  0  0  0  0
    8.4124    2.4704   -0.0089 O   0  0  0  0  0  0  0  0  0  0  0  0
    9.2216   -0.1745   -0.4399 O   0  0  0  0  0  0  0  0  0  0  0  0
    8.1695    0.8374    1.9486 O   0  0  0  0  0  0  0  0  0  0  0  0
   -1.8341    1.5097    1.9202 C   0  0  0  0  0  0  0  0  0  0  0  0
   -8.6115   -0.4642    1.3615 C   0  0  0  0  0  0  0  0  0  0  0  0
   -9.1826    0.4904    0.3110 C   0  0  0  0  0  0  0  0  0  0  0  0
  -10.6660    0.6454    0.5267 C   0  0  0  0  0  0  0  0  0  0  0  0
  -11.5138    0.3804   -0.4643 C   0  0  0  0  0  0  0  0  0  0  0  0
  -10.9878    0.0139   -1.8282 C   0  0  0  0  0  0  0  0  0  0  0  0
  -12.9629    0.4452   -0.2287 C   0  0  0  0  0  0  0  0  0  0  0  0
  -13.3871    0.7408    0.8712 O   0  0  0  0  0  0  0  0  0  0  0  0
  -13.8216    0.1768   -1.2326 O   0  0  0  0  0  0  0  0  0  0  0  0
   -5.9062   -2.2973    0.6511 H   0  0  0  0  0  0  0  0  0  0  0  0
   -7.4463   -2.2130   -0.2371 H   0  0  0  0  0  0  0  0  0  0  0  0
   -6.1117   -1.1154   -0.6638 H   0  0  0  0  0  0  0  0  0  0  0  0
   -6.6500    0.7856    2.5934 H   0  0  0  0  0  0  0  0  0  0  0  0
   -4.2724   -0.2747    2.3983 H   0  0  0  0  0  0  0  0  0  0  0  0
   -4.6410   -0.6365    0.6950 H   0  0  0  0  0  0  0  0  0  0  0  0
   -4.8552    1.7889    0.2261 H   0  0  0  0  0  0  0  0  0  0  0  0
   -4.4865    2.1508    1.9294 H   0  0  0  0  0  0  0  0  0  0  0  0
   -3.1548    1.1605   -1.2312 H   0  0  0  0  0  0  0  0  0  0  0  0
   -0.6677    1.9725   -1.3677 H   0  0  0  0  0  0  0  0  0  0  0  0
   -0.3955    1.1736    0.1995 H   0  0  0  0  0  0  0  0  0  0  0  0
   -0.9609   -1.0157   -0.8183 H   0  0  0  0  0  0  0  0  0  0  0  0
   -1.2331   -0.2168   -2.3855 H   0  0  0  0  0  0  0  0  0  0  0  0
    0.4755   -1.5172   -3.4834 H   0  0  0  0  0  0  0  0  0  0  0  0
    2.1513   -1.5480   -2.8842 H   0  0  0  0  0  0  0  0  0  0  0  0
    0.8731   -2.4131   -1.9976 H   0  0  0  0  0  0  0  0  0  0  0  0
    0.8827    1.1105   -3.5356 H   0  0  0  0  0  0  0  0  0  0  0  0
    2.4947    1.6207   -1.0156 H   0  0  0  0  0  0  0  0  0  0  0  0
    2.3613    2.7011   -2.5368 H   0  0  0  0  0  0  0  0  0  0  0  0
    3.3420    0.0934   -1.4912 H   0  0  0  0  0  0  0  0  0  0  0  0
    3.4892    0.7491    0.9143 H   0  0  0  0  0  0  0  0  0  0  0  0
    2.1344   -1.0801    1.8579 H   0  0  0  0  0  0  0  0  0  0  0  0
    3.0169   -3.3796    1.9330 H   0  0  0  0  0  0  0  0  0  0  0  0
    1.6259   -2.7392    0.0005 H   0  0  0  0  0  0  0  0  0  0  0  0
    4.0237   -4.4066   -0.8826 H   0  0  0  0  0  0  0  0  0  0  0  0
    2.6743   -5.0206    0.1025 H   0  0  0  0  0  0  0  0  0  0  0  0
    2.3178   -5.3980   -2.2290 H   0  0  0  0  0  0  0  0  0  0  0  0
    5.0298   -3.8117    0.7206 H   0  0  0  0  0  0  0  0  0  0  0  0
    3.6628   -1.6123    3.6159 H   0  0  0  0  0  0  0  0  0  0  0  0
    5.5817    0.3614    2.2544 H   0  0  0  0  0  0  0  0  0  0  0  0
    7.4759   -1.0376    1.4221 H   0  0  0  0  0  0  0  0  0  0  0  0
    7.2568   -0.5283   -0.9789 H   0  0  0  0  0  0  0  0  0  0  0  0
    7.8817    1.6910   -1.8486 H   0  0  0  0  0  0  0  0  0  0  0  0
    5.5202    1.3076   -1.2520 H   0  0  0  0  0  0  0  0  0  0  0  0
    6.4351    4.0619   -0.3123 H   0  0  0  0  0  0  0  0  0  0  0  0
    6.2925    3.5798   -2.0198 H   0  0  0  0  0  0  0  0  0  0  0  0
    4.3029    4.6389   -1.1445 H   0  0  0  0  0  0  0  0  0  0  0  0
    9.3616    2.2965   -0.0708 H   0  0  0  0  0  0  0  0  0  0  0  0
    9.4374   -1.0750   -0.1613 H   0  0  0  0  0  0  0  0  0  0  0  0
    7.9290    0.7991    2.8844 H   0  0  0  0  0  0  0  0  0  0  0  0
   -1.5361    0.5146    2.2505 H   0  0  0  0  0  0  0  0  0  0  0  0
   -0.9584    2.0509    1.5619 H   0  0  0  0  0  0  0  0  0  0  0  0
   -2.2797    2.0512    2.7546 H   0  0  0  0  0  0  0  0  0  0  0  0
   -9.0955   -1.4365    1.2703 H   0  0  0  0  0  0  0  0  0  0  0  0
   -8.7936   -0.0597    2.3572 H   0  0  0  0  0  0  0  0  0  0  0  0
   -8.6986    1.4628    0.4023 H   0  0  0  0  0  0  0  0  0  0  0  0
   -9.0006    0.0859   -0.6846 H   0  0  0  0  0  0  0  0  0  0  0  0
  -11.0411    0.9715    1.4855 H   0  0  0  0  0  0  0  0  0  0  0  0
  -10.7677   -1.0532   -1.8580 H   0  0  0  0  0  0  0  0  0  0  0  0
  -11.7377    0.2515   -2.5827 H   0  0  0  0  0  0  0  0  0  0  0  0
  -10.0776    0.5784   -2.0303 H   0  0  0  0  0  0  0  0  0  0  0  0
  -14.7654    0.2323   -1.0295 H   0  0  0  0  0  0  0  0  0  0  0  0
  1  2  1  0  0  0  0
  2  3  2  0  0  0  0
  3  4  1  0  0  0  0
  4  5  1  0  0  0  0
  5  6  1  0  0  0  0
  6  7  2  0  0  0  0
  7  8  1  0  0  0  0
  8  9  1  0  0  0  0
  9 10  1  0  0  0  0
 10 11  1  0  0  0  0
 10 12  1  0  0  0  0
 12 13  2  0  0  0  0
 10 14  1  0  0  0  0
 14 15  1  0  0  0  0
 15 16  1  0  0  0  0
 16 17  1  0  0  0  0
 17 18  1  0  0  0  0
 18 19  1  0  0  0  0
 19 20  1  0  0  0  0
 15 20  1  0  0  0  0
 19 21  1  0  0  0  0
 21 22  1  0  0  0  0
 18 23  1  0  0  0  0
 17 24  1  0  0  0  0
 16 25  1  0  0  0  0
 25 26  1  0  0  0  0
 26 27  1  0  0  0  0
 27 28  1  0  0  0  0
 28 29  1  0  0  0  0
 29 30  1  0  0  0  0
 30 31  1  0  0  0  0
 26 31  1  0  0  0  0
 30 32  1  0  0  0  0
 32 33  1  0  0  0  0
 29 34  1  0  0  0  0
 28 35  1  0  0  0  0
 27 36  1  0  0  0  0
  6 37  1  0  0  0  0
  2 38  1  0  0  0  0
 38 39  1  0  0  0  0
 39 40  1  0  0  0  0
 40 41  2  0  0  0  0
 41 42  1  0  0  0  0
 41 43  1  0  0  0  0
 43 44  2  0  0  0  0
 43 45  1  0  0  0  0
  1 46  1  0  0  0  0
  1 47  1  0  0  0  0
  1 48  1  0  0  0  0
  3 49  1  0  0  0  0
  4 50  1  0  0  0  0
  4 51  1  0  0  0  0
  5 52  1  0  0  0  0
  5 53  1  0  0  0  0
  7 54  1  0  0  0  0
  8 55  1  0  0  0  0
  8 56  1  0  0  0  0
  9 57  1  0  0  0  0
  9 58  1  0  0  0  0
 11 59  1  0  0  0  0
 11 60  1  0  0  0  0
 11 61  1  0  0  0  0
 12 62  1  0  0  0  0
 13 63  1  0  0  0  0
 13 64  1  0  0  0  0
 15 65  1  0  0  0  0
 16 66  1  0  0  0  0
 17 67  1  0  0  0  0
 18 68  1  0  0  0  0
 19 69  1  0  0  0  0
 21 70  1  0  0  0  0
 21 71  1  0  0  0  0
 22 72  1  0  0  0  0
 23 73  1  0  0  0  0
 24 74  1  0  0  0  0
 26 75  1  0  0  0  0
 27 76  1  0  0  0  0
 28 77  1  0  0  0  0
 29 78  1  0  0  0  0
 30 79  1  0  0  0  0
 32 80  1  0  0  0  0
 32 81  1  0  0  0  0
 33 82  1  0  0  0  0
 34 83  1  0  0  0  0
 35 84  1  0  0  0  0
 36 85  1  0  0  0  0
 37 86  1  0  0  0  0
 37 87  1  0  0  0  0
 37 88  1  0  0  0  0
 38 89  1  0  0  0  0
 38 90  1  0  0  0  0
 39 91  1  0  0  0  0
 39 92  1  0  0  0  0
 40 93  1  0  0  0  0
 42 94  1  0  0  0  0
 42 95  1  0  0  0  0
 42 96  1  0  0  0  0
 45 97  1  0  0  0  0
M  END
$$$$
