C26H32O3
APtclcactv06291803083D 0   0.00000     0.00000
 
 61 60  0  0  0  0  0  0  0  0999 V2000
   -3.5514    1.8237   -0.0000 C   0  0  0  0  0  0  0  0  0  0  0  0
   -3.5561    0.3167   -0.0000 C   0  0  0  0  0  0  0  0  0  0  0  0
   -2.3639   -0.3765   -0.0000 C   0  0  0  0  0  0  0  0  0  0  0  0
   -1.1499    0.3194   -0.0000 C   0  0  0  0  0  0  0  0  0  0  0  0
    0.0420   -0.3737   -0.0000 C   0  0  0  0  0  0  0  0  0  0  0  0
    1.2563    0.3224    0.0000 C   0  0  0  0  0  0  0  0  0  0  0  0
    2.4478   -0.3704    0.0000 C   0  0  0  0  0  0  0  0  0  0  0  0
    2.4432   -1.8774   -0.0000 C   0  0  0  0  0  0  0  0  0  0  0  0
    3.6626    0.3259    0.0000 C   0  0  0  0  0  0  0  0  0  0  0  0
    4.8535   -0.3665   -0.0000 C   0  0  0  0  0  0  0  0  0  0  0  0
    6.0691    0.3303    0.0000 C   0  0  0  0  0  0  0  0  0  0  0  0
    7.2589   -0.3615   -0.0000 C   0  0  0  0  0  0  0  0  0  0  0  0
    7.2542   -1.8685   -0.0000 C   0  0  0  0  0  0  0  0  0  0  0  0
    8.4762    0.3364    0.0000 C   0  0  0  0  0  0  0  0  0  0  0  0
    9.6550   -0.3491   -0.0000 C   0  0  0  0  0  0  0  0  0  0  0  0
   10.8794    0.3528    0.0000 C   0  0  0  0  0  0  0  0  0  0  0  0
   10.8831    1.5701    0.0000 O   0  0  0  0  0  0  0  0  0  0  0  0
   12.0467   -0.3260   -0.0000 O   0  0  0  0  0  0  0  0  0  0  0  0
   13.2476    0.4486    0.0000 C   0  0  0  0  0  0  0  0  0  0  0  0
   -4.7698   -0.3790   -0.0000 C   0  0  0  0  0  0  0  0  0  0  0  0
   -5.9622    0.3143   -0.0000 C   0  0  0  0  0  0  0  0  0  0  0  0
   -7.1758   -0.3814    0.0000 C   0  0  0  0  0  0  0  0  0  0  0  0
   -8.3683    0.3120   -0.0000 C   0  0  0  0  0  0  0  0  0  0  0  0
   -8.3636    1.8190   -0.0000 C   0  0  0  0  0  0  0  0  0  0  0  0
   -9.5817   -0.3836    0.0000 C   0  0  0  0  0  0  0  0  0  0  0  0
  -10.7743    0.3099   -0.0000 C   0  0  0  0  0  0  0  0  0  0  0  0
  -11.9877   -0.3857    0.0000 C   0  0  0  0  0  0  0  0  0  0  0  0
  -11.9915   -1.6019    0.0000 O   0  0  0  0  0  0  0  0  0  0  0  0
  -13.2905    0.3718   -0.0000 C   0  0  0  0  0  0  0  0  0  0  0  0
   -3.5503    2.1871   -1.0277 H   0  0  0  0  0  0  0  0  0  0  0  0
   -4.4403    2.1898    0.5138 H   0  0  0  0  0  0  0  0  0  0  0  0
   -2.6603    2.1843    0.5138 H   0  0  0  0  0  0  0  0  0  0  0  0
   -2.3672   -1.4565   -0.0000 H   0  0  0  0  0  0  0  0  0  0  0  0
   -1.1466    1.3994    0.0000 H   0  0  0  0  0  0  0  0  0  0  0  0
    0.0387   -1.4537   -0.0000 H   0  0  0  0  0  0  0  0  0  0  0  0
    1.2596    1.4024    0.0000 H   0  0  0  0  0  0  0  0  0  0  0  0
    2.4421   -2.2408   -1.0277 H   0  0  0  0  0  0  0  0  0  0  0  0
    3.3320   -2.2435    0.5138 H   0  0  0  0  0  0  0  0  0  0  0  0
    1.5521   -2.2380    0.5138 H   0  0  0  0  0  0  0  0  0  0  0  0
    3.6659    1.4059    0.0000 H   0  0  0  0  0  0  0  0  0  0  0  0
    4.8502   -1.4465   -0.0000 H   0  0  0  0  0  0  0  0  0  0  0  0
    6.0725    1.4103    0.0000 H   0  0  0  0  0  0  0  0  0  0  0  0
    7.2531   -2.2318   -1.0277 H   0  0  0  0  0  0  0  0  0  0  0  0
    8.1431   -2.2346    0.5138 H   0  0  0  0  0  0  0  0  0  0  0  0
    6.3631   -2.2291    0.5138 H   0  0  0  0  0  0  0  0  0  0  0  0
    8.4796    1.4164    0.0000 H   0  0  0  0  0  0  0  0  0  0  0  0
    9.6517   -1.4291   -0.0000 H   0  0  0  0  0  0  0  0  0  0  0  0
   13.2744    1.0773    0.8900 H   0  0  0  0  0  0  0  0  0  0  0  0
   14.1100   -0.2181   -0.0000 H   0  0  0  0  0  0  0  0  0  0  0  0
   13.2744    1.0773   -0.8900 H   0  0  0  0  0  0  0  0  0  0  0  0
   -4.7731   -1.4590    0.0000 H   0  0  0  0  0  0  0  0  0  0  0  0
   -5.9589    1.3943   -0.0000 H   0  0  0  0  0  0  0  0  0  0  0  0
   -7.1791   -1.4614    0.0000 H   0  0  0  0  0  0  0  0  0  0  0  0
   -8.3625    2.1824   -1.0277 H   0  0  0  0  0  0  0  0  0  0  0  0
   -9.2525    2.1851    0.5138 H   0  0  0  0  0  0  0  0  0  0  0  0
   -7.4725    2.1796    0.5138 H   0  0  0  0  0  0  0  0  0  0  0  0
   -9.5851   -1.4636    0.0000 H   0  0  0  0  0  0  0  0  0  0  0  0
  -10.7710    1.3899   -0.0000 H   0  0  0  0  0  0  0  0  0  0  0  0
  -13.0880    1.4428   -0.0000 H   0  0  0  0  0  0  0  0  0  0  0  0
  -13.8629    0.1103   -0.8900 H   0  0  0  0  0  0  0  0  0  0  0  0
  -13.8629    0.1103    0.8900 H   0  0  0  0  0  0  0  0  0  0  0  0
  1  2  1  0  0  0  0
  2  3  2  0  0  0  0
  3  4  1  0  0  0  0
  4  5  2  0  0  0  0
  5  6  1  0  0  0  0
  6  7  2  0  0  0  0
  7  8  1  0  0  0  0
  7  9  1  0  0  0  0
  9 10  2  0  0  0  0
 10 11  1  0  0  0  0
 11 12  2  0  0  0  0
 12 13  1  0  0  0  0
 12 14  1  0  0  0  0
 14 15  2  0  0  0  0
 15 16  1  0  0  0  0
 16 17  2  0  0  0  0
 16 18  1  0  0  0  0
 18 19  1  0  0  0  0
  2 20  1  0  0  0  0
 20 21  2  0  0  0  0
 21 22  1  0  0  0  0
 22 23  2  0  0  0  0
 23 24  1  0  0  0  0
 23 25  1  0  0  0  0
 25 26  2  0  0  0  0
 26 27  1  0  0  0  0
 27 28  2  0  0  0  0
 27 29  1  0  0  0  0
  1 30  1  0  0  0  0
  1 31  1  0  0  0  0
  1 32  1  0  0  0  0
  3 33  1  0  0  0  0
  4 34  1  0  0  0  0
  5 35  1  0  0  0  0
  6 36  1  0  0  0  0
  8 37  1  0  0  0  0
  8 38  1  0  0  0  0
  8 39  1  0  0  0  0
  9 40  1  0  0  0  0
 10 41  1  0  0  0  0
 11 42  1  0  0  0  0
 13 43  1  0  0  0  0
 13 44  1  0  0  0  0
 13 45  1  0  0  0  0
 14 46  1  0  0  0  0
 15 47  1  0  0  0  0
 19 48  1  0  0  0  0
 19 49  1  0  0  0  0
 19 50  1  0  0  0  0
 20 51  1  0  0  0  0
 21 52  1  0  0  0  0
 22 53  1  0  0  0  0
 24 54  1  0  0  0  0
 24 55  1  0  0  0  0
 24 56  1  0  0  0  0
 25 57  1  0  0  0  0
 26 58  1  0  0  0  0
 29 59  1  0  0  0  0
 29 60  1  0  0  0  0
 29 61  1  0  0  0  0
M  END
$$$$
