C17H22N2O7
APtclcactv06291803093D 0   0.00000     0.00000
 
 48 50  0  0  0  0  0  0  0  0999 V2000
   -1.4781   -3.4939   -1.8680 C   0  0  0  0  0  0  0  0  0  0  0  0
   -0.4792   -2.7551   -1.1620 O   0  0  0  0  0  0  0  0  0  0  0  0
   -0.9120   -1.8827   -0.2128 C   0  0  0  0  0  0  0  0  0  0  0  0
    0.0061   -1.1303    0.5133 C   0  0  0  0  0  0  0  0  0  0  0  0
   -0.4398   -0.2428    1.4795 C   0  0  0  0  0  0  0  0  0  0  0  0
   -1.7943   -0.1063    1.7202 C   0  0  0  0  0  0  0  0  0  0  0  0
   -2.7065   -0.8542    0.9991 C   0  0  0  0  0  0  0  0  0  0  0  0
   -2.2685   -1.7369    0.0295 C   0  0  0  0  0  0  0  0  0  0  0  0
   -4.1818   -0.7019    1.2660 C   0  0  0  0  0  0  0  0  0  0  0  0
   -4.7442    0.3775    0.3774 C   0  0  0  0  0  0  0  0  0  0  0  0
   -4.3047    1.6038    0.2989 N   0  0  0  0  0  0  0  0  0  0  0  0
   -5.0431    2.2822   -0.5919 C   0  0  0  0  0  0  0  0  0  0  0  0
   -5.9757    1.4446   -1.0841 C   0  0  0  0  0  0  0  0  0  0  0  0
   -5.7828    0.2346   -0.4738 N   0  0  0  0  0  0  0  0  0  0  0  0
    1.3382   -1.2660    0.2756 O   0  0  0  0  0  0  0  0  0  0  0  0
    2.2223   -0.4616    1.0588 C   0  0  0  0  0  0  0  0  0  0  0  0
    3.6717   -0.8388    0.7415 C   0  0  0  0  0  0  0  0  0  0  0  0
    3.9572   -0.5417   -0.7338 C   0  0  0  0  0  0  0  0  0  0  0  0
    3.6671    0.9366   -1.0110 C   0  0  0  0  0  0  0  0  0  0  0  0
    2.2179    1.2451   -0.6261 C   0  0  0  0  0  0  0  0  0  0  0  0
    2.0117    0.9175    0.7495 O   0  0  0  0  0  0  0  0  0  0  0  0
    1.9380    2.7335   -0.8436 C   0  0  0  0  0  0  0  0  0  0  0  0
    0.5559    2.9994   -0.5960 O   0  0  0  0  0  0  0  0  0  0  0  0
    4.5505    1.7500   -0.2364 O   0  0  0  0  0  0  0  0  0  0  0  0
    5.3287   -0.8218   -1.0212 O   0  0  0  0  0  0  0  0  0  0  0  0
    4.5552   -0.0724    1.5626 O   0  0  0  0  0  0  0  0  0  0  0  0
   -0.9990   -4.1509   -2.5939 H   0  0  0  0  0  0  0  0  0  0  0  0
   -2.0548   -4.0915   -1.1620 H   0  0  0  0  0  0  0  0  0  0  0  0
   -2.1426   -2.8027   -2.3866 H   0  0  0  0  0  0  0  0  0  0  0  0
    0.2707    0.3421    2.0447 H   0  0  0  0  0  0  0  0  0  0  0  0
   -2.1406    0.5857    2.4735 H   0  0  0  0  0  0  0  0  0  0  0  0
   -2.9831   -2.3200   -0.5324 H   0  0  0  0  0  0  0  0  0  0  0  0
   -4.6880   -1.6445    1.0575 H   0  0  0  0  0  0  0  0  0  0  0  0
   -4.3360   -0.4299    2.3102 H   0  0  0  0  0  0  0  0  0  0  0  0
   -4.9129    3.3187   -0.8661 H   0  0  0  0  0  0  0  0  0  0  0  0
   -6.7284    1.6809   -1.8216 H   0  0  0  0  0  0  0  0  0  0  0  0
   -6.2998   -0.5730   -0.6205 H   0  0  0  0  0  0  0  0  0  0  0  0
    2.0260   -0.6310    2.1175 H   0  0  0  0  0  0  0  0  0  0  0  0
    3.8225   -1.9008    0.9351 H   0  0  0  0  0  0  0  0  0  0  0  0
    3.3177   -1.1627   -1.3611 H   0  0  0  0  0  0  0  0  0  0  0  0
    3.8146    1.1442   -2.0709 H   0  0  0  0  0  0  0  0  0  0  0  0
    1.5435    0.6539   -1.2455 H   0  0  0  0  0  0  0  0  0  0  0  0
    2.5495    3.3220   -0.1596 H   0  0  0  0  0  0  0  0  0  0  0  0
    2.1812    3.0025   -1.8715 H   0  0  0  0  0  0  0  0  0  0  0  0
    0.3062    3.9260   -0.7152 H   0  0  0  0  0  0  0  0  0  0  0  0
    5.4875    1.6032   -0.4252 H   0  0  0  0  0  0  0  0  0  0  0  0
    5.5844   -1.7406   -0.8611 H   0  0  0  0  0  0  0  0  0  0  0  0
    4.4269   -0.2075    2.5114 H   0  0  0  0  0  0  0  0  0  0  0  0
  1  2  1  0  0  0  0
  2  3  1  0  0  0  0
  3  4  2  0  0  0  0
  4  5  1  0  0  0  0
  5  6  2  0  0  0  0
  6  7  1  0  0  0  0
  7  8  2  0  0  0  0
  3  8  1  0  0  0  0
  7  9  1  0  0  0  0
  9 10  1  0  0  0  0
 10 11  2  0  0  0  0
 11 12  1  0  0  0  0
 12 13  2  0  0  0  0
 13 14  1  0  0  0  0
 10 14  1  0  0  0  0
  4 15  1  0  0  0  0
 15 16  1  0  0  0  0
 16 17  1  0  0  0  0
 17 18  1  0  0  0  0
 18 19  1  0  0  0  0
 19 20  1  0  0  0  0
 20 21  1  0  0  0  0
 16 21  1  0  0  0  0
 20 22  1  0  0  0  0
 22 23  1  0  0  0  0
 19 24  1  0  0  0  0
 18 25  1  0  0  0  0
 17 26  1  0  0  0  0
  1 27  1  0  0  0  0
  1 28  1  0  0  0  0
  1 29  1  0  0  0  0
  5 30  1  0  0  0  0
  6 31  1  0  0  0  0
  8 32  1  0  0  0  0
  9 33  1  0  0  0  0
  9 34  1  0  0  0  0
 12 35  1  0  0  0  0
 13 36  1  0  0  0  0
 14 37  1  0  0  0  0
 16 38  1  0  0  0  0
 17 39  1  0  0  0  0
 18 40  1  0  0  0  0
 19 41  1  0  0  0  0
 20 42  1  0  0  0  0
 22 43  1  0  0  0  0
 22 44  1  0  0  0  0
 23 45  1  0  0  0  0
 24 46  1  0  0  0  0
 25 47  1  0  0  0  0
 26 48  1  0  0  0  0
M  END
$$$$
