C20H30O3
APtclcactv06291803113D 0   0.00000     0.00000
 
 53 57  0  0  0  0  0  0  0  0999 V2000
   -1.2814    0.7462   -1.9317 C   0  0  0  0  0  0  0  0  0  0  0  0
   -0.5636    0.7138   -0.5690 C   0  0  0  0  0  0  0  0  0  0  0  0
   -0.7570    2.0728    0.1043 C   0  0  0  0  0  0  0  0  0  0  0  0
   -2.2496    2.3051    0.3493 C   0  0  0  0  0  0  0  0  0  0  0  0
   -2.8220    1.2285    1.2592 C   0  0  0  0  0  0  0  0  0  0  0  0
   -2.5766   -0.1866    0.7316 C   0  0  0  0  0  0  0  0  0  0  0  0
   -1.1249   -0.3753    0.3331 C   0  0  0  0  0  0  0  0  0  0  0  0
   -0.8058   -1.7649   -0.1893 C   0  0  0  0  0  0  0  0  0  0  0  0
    0.7063   -1.9932   -0.2846 C   0  0  0  0  0  0  0  0  0  0  0  0
    1.4961   -0.7192   -0.1104 C   0  0  0  0  0  0  0  0  0  0  0  0
    0.8873    0.4372   -0.8856 C   0  0  0  0  0  0  0  0  0  0  0  0
    1.8316    1.6068   -1.0086 C   0  0  0  0  0  0  0  0  0  0  0  0
    2.8634    1.6341    0.1253 C   0  0  0  0  0  0  0  0  0  0  0  0
    2.8164    0.6957    1.3162 C   0  0  0  0  0  0  0  0  0  0  0  0
    1.6546   -0.3263    1.3737 C   0  0  0  0  0  0  0  0  0  0  0  0
    3.6906    0.3121    0.1194 C   0  0  0  0  0  0  0  0  0  0  0  0
    2.9712   -0.8914   -0.5546 C   0  0  0  0  0  0  0  0  0  0  0  0
    3.4861   -2.1316   -0.0697 O   0  0  0  0  0  0  0  0  0  0  0  0
    5.2198    0.3431    0.1393 C   0  0  0  0  0  0  0  0  0  0  0  0
   -2.8666   -1.1408    1.9199 C   0  0  0  0  0  0  0  0  0  0  0  0
   -3.5579   -0.5307   -0.3501 C   0  0  0  0  0  0  0  0  0  0  0  0
   -3.1631   -0.8105   -1.4572 O   0  0  0  0  0  0  0  0  0  0  0  0
   -4.8743   -0.5277   -0.0877 O   0  0  0  0  0  0  0  0  0  0  0  0
   -0.8526    1.5352   -2.5496 H   0  0  0  0  0  0  0  0  0  0  0  0
   -1.1567   -0.2146   -2.4311 H   0  0  0  0  0  0  0  0  0  0  0  0
   -2.3429    0.9411   -1.7787 H   0  0  0  0  0  0  0  0  0  0  0  0
   -0.2223    2.0917    1.0527 H   0  0  0  0  0  0  0  0  0  0  0  0
   -0.3802    2.8627   -0.5462 H   0  0  0  0  0  0  0  0  0  0  0  0
   -2.3644    3.2798    0.8483 H   0  0  0  0  0  0  0  0  0  0  0  0
   -2.7982    2.3521   -0.5853 H   0  0  0  0  0  0  0  0  0  0  0  0
   -2.3686    1.3169    2.2525 H   0  0  0  0  0  0  0  0  0  0  0  0
   -3.9009    1.3823    1.3668 H   0  0  0  0  0  0  0  0  0  0  0  0
   -0.5877   -0.3015    1.3068 H   0  0  0  0  0  0  0  0  0  0  0  0
   -1.2306   -2.5297    0.4680 H   0  0  0  0  0  0  0  0  0  0  0  0
   -1.2466   -1.9040   -1.1823 H   0  0  0  0  0  0  0  0  0  0  0  0
    1.0095   -2.7121    0.4877 H   0  0  0  0  0  0  0  0  0  0  0  0
    0.9443   -2.4338   -1.2608 H   0  0  0  0  0  0  0  0  0  0  0  0
    0.8417    0.0436   -1.9362 H   0  0  0  0  0  0  0  0  0  0  0  0
    2.3690    1.5229   -1.9589 H   0  0  0  0  0  0  0  0  0  0  0  0
    1.2793    2.5412   -1.0112 H   0  0  0  0  0  0  0  0  0  0  0  0
    3.4143    2.5683    0.2342 H   0  0  0  0  0  0  0  0  0  0  0  0
    3.2540    1.0061    2.2626 H   0  0  0  0  0  0  0  0  0  0  0  0
    0.7885    0.1704    1.7987 H   0  0  0  0  0  0  0  0  0  0  0  0
    1.9371   -1.1887    1.9835 H   0  0  0  0  0  0  0  0  0  0  0  0
    3.0408   -0.8359   -1.6383 H   0  0  0  0  0  0  0  0  0  0  0  0
    4.4266   -2.2648   -0.2510 H   0  0  0  0  0  0  0  0  0  0  0  0
    5.5869   -0.3323    0.9121 H   0  0  0  0  0  0  0  0  0  0  0  0
    5.6023    0.0269   -0.8312 H   0  0  0  0  0  0  0  0  0  0  0  0
    5.5600    1.3568    0.3511 H   0  0  0  0  0  0  0  0  0  0  0  0
   -3.8998   -1.0144    2.2436 H   0  0  0  0  0  0  0  0  0  0  0  0
   -2.7082   -2.1722    1.6048 H   0  0  0  0  0  0  0  0  0  0  0  0
   -2.1957   -0.9064    2.7464 H   0  0  0  0  0  0  0  0  0  0  0  0
   -5.4676   -0.7561   -0.8163 H   0  0  0  0  0  0  0  0  0  0  0  0
  1  2  1  0  0  0  0
  2  3  1  0  0  0  0
  3  4  1  0  0  0  0
  4  5  1  0  0  0  0
  5  6  1  0  0  0  0
  6  7  1  0  0  0  0
  2  7  1  0  0  0  0
  7  8  1  0  0  0  0
  8  9  1  0  0  0  0
  9 10  1  0  0  0  0
 10 11  1  0  0  0  0
  2 11  1  0  0  0  0
 11 12  1  0  0  0  0
 12 13  1  0  0  0  0
 13 14  1  0  0  0  0
 14 15  1  0  0  0  0
 10 15  1  0  0  0  0
 14 16  1  0  0  0  0
 13 16  1  0  0  0  0
 16 17  1  0  0  0  0
 10 17  1  0  0  0  0
 17 18  1  0  0  0  0
 16 19  1  0  0  0  0
  6 20  1  0  0  0  0
  6 21  1  0  0  0  0
 21 22  2  0  0  0  0
 21 23  1  0  0  0  0
  1 24  1  0  0  0  0
  1 25  1  0  0  0  0
  1 26  1  0  0  0  0
  3 27  1  0  0  0  0
  3 28  1  0  0  0  0
  4 29  1  0  0  0  0
  4 30  1  0  0  0  0
  5 31  1  0  0  0  0
  5 32  1  0  0  0  0
  7 33  1  0  0  0  0
  8 34  1  0  0  0  0
  8 35  1  0  0  0  0
  9 36  1  0  0  0  0
  9 37  1  0  0  0  0
 11 38  1  0  0  0  0
 12 39  1  0  0  0  0
 12 40  1  0  0  0  0
 13 41  1  0  0  0  0
 14 42  1  0  0  0  0
 15 43  1  0  0  0  0
 15 44  1  0  0  0  0
 17 45  1  0  0  0  0
 18 46  1  0  0  0  0
 19 47  1  0  0  0  0
 19 48  1  0  0  0  0
 19 49  1  0  0  0  0
 20 50  1  0  0  0  0
 20 51  1  0  0  0  0
 20 52  1  0  0  0  0
 23 53  1  0  0  0  0
M  END
$$$$
