C14H14O8
APtclcactv06291803073D 0   0.00000     0.00000
 
 36 36  0  0  0  0  0  0  0  0999 V2000
   -3.7562   -0.6397   -0.7382 C   0  0  0  0  0  0  0  0  0  0  0  0
   -4.9953   -1.0904   -1.1337 C   0  0  0  0  0  0  0  0  0  0  0  0
   -6.1297   -0.7348   -0.4129 C   0  0  0  0  0  0  0  0  0  0  0  0
   -6.0194    0.0771    0.7103 C   0  0  0  0  0  0  0  0  0  0  0  0
   -4.7851    0.5331    1.1144 C   0  0  0  0  0  0  0  0  0  0  0  0
   -3.6395    0.1776    0.3924 C   0  0  0  0  0  0  0  0  0  0  0  0
   -2.3192    0.6612    0.8195 C   0  0  0  0  0  0  0  0  0  0  0  0
   -1.2153    0.3168    0.1210 C   0  0  0  0  0  0  0  0  0  0  0  0
    0.0585    0.7833    0.5331 C   0  0  0  0  0  0  0  0  0  0  0  0
    0.1575    1.4938    1.5156 O   0  0  0  0  0  0  0  0  0  0  0  0
    1.1611    0.4393   -0.1645 O   0  0  0  0  0  0  0  0  0  0  0  0
    2.4115    0.9451    0.3074 C   0  0  0  0  0  0  0  0  0  0  0  0
    3.5264   -0.0418   -0.0445 C   0  0  0  0  0  0  0  0  0  0  0  0
    3.1784   -1.4239    0.5118 C   0  0  0  0  0  0  0  0  0  0  0  0
    4.3300   -2.3661    0.2729 C   0  0  0  0  0  0  0  0  0  0  0  0
    5.3269   -1.9725   -0.2850 O   0  0  0  0  0  0  0  0  0  0  0  0
    4.2484   -3.6426    0.6799 O   0  0  0  0  0  0  0  0  0  0  0  0
    3.6622   -0.1203   -1.4648 O   0  0  0  0  0  0  0  0  0  0  0  0
    2.6935    2.2747   -0.3436 C   0  0  0  0  0  0  0  0  0  0  0  0
    1.9046    2.7412   -1.1310 O   0  0  0  0  0  0  0  0  0  0  0  0
    3.8210    2.9406   -0.0488 O   0  0  0  0  0  0  0  0  0  0  0  0
   -7.3492   -1.1815   -0.8074 O   0  0  0  0  0  0  0  0  0  0  0  0
   -2.8752   -0.9199   -1.2964 H   0  0  0  0  0  0  0  0  0  0  0  0
   -5.0864   -1.7210   -2.0058 H   0  0  0  0  0  0  0  0  0  0  0  0
   -6.9037    0.3507    1.2666 H   0  0  0  0  0  0  0  0  0  0  0  0
   -4.7005    1.1640    1.9868 H   0  0  0  0  0  0  0  0  0  0  0  0
   -2.2313    1.2920    1.6917 H   0  0  0  0  0  0  0  0  0  0  0  0
   -1.3031   -0.3140   -0.7512 H   0  0  0  0  0  0  0  0  0  0  0  0
    2.3670    1.0724    1.3891 H   0  0  0  0  0  0  0  0  0  0  0  0
    4.4650    0.2997    0.3919 H   0  0  0  0  0  0  0  0  0  0  0  0
    2.9877   -1.3473    1.5822 H   0  0  0  0  0  0  0  0  0  0  0  0
    2.2882   -1.8038    0.0104 H   0  0  0  0  0  0  0  0  0  0  0  0
    5.0122   -4.2090    0.5045 H   0  0  0  0  0  0  0  0  0  0  0  0
    2.8631   -0.4183   -1.9205 H   0  0  0  0  0  0  0  0  0  0  0  0
    3.9581    3.7893   -0.4915 H   0  0  0  0  0  0  0  0  0  0  0  0
   -7.6045   -2.0271   -0.4140 H   0  0  0  0  0  0  0  0  0  0  0  0
  1  2  2  0  0  0  0
  2  3  1  0  0  0  0
  3  4  2  0  0  0  0
  4  5  1  0  0  0  0
  5  6  2  0  0  0  0
  1  6  1  0  0  0  0
  6  7  1  0  0  0  0
  7  8  2  0  0  0  0
  8  9  1  0  0  0  0
  9 10  2  0  0  0  0
  9 11  1  0  0  0  0
 11 12  1  0  0  0  0
 12 13  1  0  0  0  0
 13 14  1  0  0  0  0
 14 15  1  0  0  0  0
 15 16  2  0  0  0  0
 15 17  1  0  0  0  0
 13 18  1  0  0  0  0
 12 19  1  0  0  0  0
 19 20  2  0  0  0  0
 19 21  1  0  0  0  0
  3 22  1  0  0  0  0
  1 23  1  0  0  0  0
  2 24  1  0  0  0  0
  4 25  1  0  0  0  0
  5 26  1  0  0  0  0
  7 27  1  0  0  0  0
  8 28  1  0  0  0  0
 12 29  1  0  0  0  0
 13 30  1  0  0  0  0
 14 31  1  0  0  0  0
 14 32  1  0  0  0  0
 17 33  1  0  0  0  0
 18 34  1  0  0  0  0
 21 35  1  0  0  0  0
 22 36  1  0  0  0  0
M  END
$$$$
