C45H38O19
APtclcactv06291803123D 0   0.00000     0.00000
 
102110  0  0  0  0  0  0  0  0999 V2000
   -4.8962    2.8919    2.1465 C   0  0  0  0  0  0  0  0  0  0  0  0
   -5.8360    1.6847    2.1964 C   0  0  0  0  0  0  0  0  0  0  0  0
   -5.6995    0.9140    0.8769 C   0  0  0  0  0  0  0  0  0  0  0  0
   -4.3718    0.3946    0.7941 O   0  0  0  0  0  0  0  0  0  0  0  0
   -3.3405    1.2445    1.0388 C   0  0  0  0  0  0  0  0  0  0  0  0
   -3.5294    2.4525    1.6857 C   0  0  0  0  0  0  0  0  0  0  0  0
   -2.4443    3.2896    1.9207 C   0  0  0  0  0  0  0  0  0  0  0  0
   -1.1751    2.9208    1.5064 C   0  0  0  0  0  0  0  0  0  0  0  0
   -0.9857    1.7112    0.8548 C   0  0  0  0  0  0  0  0  0  0  0  0
   -2.0654    0.8756    0.6225 C   0  0  0  0  0  0  0  0  0  0  0  0
   -1.8582   -0.4388   -0.0850 C   0  0  0  0  0  0  0  0  0  0  0  0
   -1.7750   -0.1972   -1.5942 C   0  0  0  0  0  0  0  0  0  0  0  0
   -0.4350    0.4845   -1.8994 C   0  0  0  0  0  0  0  0  0  0  0  0
    0.6171   -0.4244   -1.5730 O   0  0  0  0  0  0  0  0  0  0  0  0
    0.5786   -1.0303   -0.3576 C   0  0  0  0  0  0  0  0  0  0  0  0
    1.7417   -1.6205    0.1250 C   0  0  0  0  0  0  0  0  0  0  0  0
    1.7448   -2.2532    1.3574 C   0  0  0  0  0  0  0  0  0  0  0  0
    0.5838   -2.2982    2.1142 C   0  0  0  0  0  0  0  0  0  0  0  0
   -0.5749   -1.7085    1.6356 C   0  0  0  0  0  0  0  0  0  0  0  0
   -0.5789   -1.0730    0.3993 C   0  0  0  0  0  0  0  0  0  0  0  0
   -1.7126   -1.7522    2.3776 O   0  0  0  0  0  0  0  0  0  0  0  0
    2.8839   -2.8292    1.8238 O   0  0  0  0  0  0  0  0  0  0  0  0
    3.0041   -1.5721   -0.6966 C   0  0  0  0  0  0  0  0  0  0  0  0
    3.7123   -0.2352   -0.4638 C   0  0  0  0  0  0  0  0  0  0  0  0
    4.3127   -0.2479    0.9479 C   0  0  0  0  0  0  0  0  0  0  0  0
    5.3209   -1.2581    0.9992 O   0  0  0  0  0  0  0  0  0  0  0  0
    5.0063   -2.4937    0.5300 C   0  0  0  0  0  0  0  0  0  0  0  0
    5.8168   -3.5648    0.8903 C   0  0  0  0  0  0  0  0  0  0  0  0
    5.5346   -4.8405    0.4298 C   0  0  0  0  0  0  0  0  0  0  0  0
    4.4391   -5.0516   -0.3935 C   0  0  0  0  0  0  0  0  0  0  0  0
    3.6294   -3.9857   -0.7512 C   0  0  0  0  0  0  0  0  0  0  0  0
    3.9115   -2.7054   -0.2893 C   0  0  0  0  0  0  0  0  0  0  0  0
    2.5555   -4.1927   -1.5578 O   0  0  0  0  0  0  0  0  0  0  0  0
    6.3305   -5.8835    0.7842 O   0  0  0  0  0  0  0  0  0  0  0  0
    4.9243    1.0956    1.2514 C   0  0  0  0  0  0  0  0  0  0  0  0
    4.2302    2.0111    2.0200 C   0  0  0  0  0  0  0  0  0  0  0  0
    4.7893    3.2485    2.3012 C   0  0  0  0  0  0  0  0  0  0  0  0
    6.0494    3.5675    1.8095 C   0  0  0  0  0  0  0  0  0  0  0  0
    6.7442    2.6440    1.0376 C   0  0  0  0  0  0  0  0  0  0  0  0
    6.1803    1.4068    0.7652 C   0  0  0  0  0  0  0  0  0  0  0  0
    7.9775    2.9515    0.5537 O   0  0  0  0  0  0  0  0  0  0  0  0
    6.6014    4.7811    2.0829 O   0  0  0  0  0  0  0  0  0  0  0  0
    4.1052    4.1489    3.0567 O   0  0  0  0  0  0  0  0  0  0  0  0
    4.7531   -0.0671   -1.4284 O   0  0  0  0  0  0  0  0  0  0  0  0
   -0.3662    0.8361   -3.3632 C   0  0  0  0  0  0  0  0  0  0  0  0
   -0.6279    2.1296   -3.7749 C   0  0  0  0  0  0  0  0  0  0  0  0
   -0.5650    2.4545   -5.1204 C   0  0  0  0  0  0  0  0  0  0  0  0
   -0.2382    1.4764   -6.0547 C   0  0  0  0  0  0  0  0  0  0  0  0
    0.0229    0.1818   -5.6354 C   0  0  0  0  0  0  0  0  0  0  0  0
   -0.0360   -0.1344   -4.2909 C   0  0  0  0  0  0  0  0  0  0  0  0
   -0.1757    1.7903   -7.3764 O   0  0  0  0  0  0  0  0  0  0  0  0
   -0.8226    3.7264   -5.5271 O   0  0  0  0  0  0  0  0  0  0  0  0
   -1.8493   -1.4451   -2.2866 O   0  0  0  0  0  0  0  0  0  0  0  0
    0.2575    1.3466    0.4445 O   0  0  0  0  0  0  0  0  0  0  0  0
   -2.6299    4.4749    2.5590 O   0  0  0  0  0  0  0  0  0  0  0  0
   -6.6912   -0.2203    0.8468 C   0  0  0  0  0  0  0  0  0  0  0  0
   -7.8751   -0.0831    0.1464 C   0  0  0  0  0  0  0  0  0  0  0  0
   -8.7879   -1.1251    0.1177 C   0  0  0  0  0  0  0  0  0  0  0  0
   -8.5098   -2.3085    0.7950 C   0  0  0  0  0  0  0  0  0  0  0  0
   -7.3213   -2.4395    1.4952 C   0  0  0  0  0  0  0  0  0  0  0  0
   -6.4124   -1.3981    1.5151 C   0  0  0  0  0  0  0  0  0  0  0  0
   -9.4028   -3.3339    0.7702 O   0  0  0  0  0  0  0  0  0  0  0  0
   -9.9532   -0.9915   -0.5705 O   0  0  0  0  0  0  0  0  0  0  0  0
   -5.4744    0.8375    3.2888 O   0  0  0  0  0  0  0  0  0  0  0  0
   -5.2928    3.6319    1.4513 H   0  0  0  0  0  0  0  0  0  0  0  0
   -4.8194    3.3332    3.1402 H   0  0  0  0  0  0  0  0  0  0  0  0
   -6.8644    2.0245    2.3189 H   0  0  0  0  0  0  0  0  0  0  0  0
   -5.8839    1.5858    0.0386 H   0  0  0  0  0  0  0  0  0  0  0  0
   -0.3347    3.5736    1.6907 H   0  0  0  0  0  0  0  0  0  0  0  0
   -2.6956   -1.1025    0.1304 H   0  0  0  0  0  0  0  0  0  0  0  0
   -2.5954    0.4476   -1.9089 H   0  0  0  0  0  0  0  0  0  0  0  0
   -0.3382    1.3891   -1.2991 H   0  0  0  0  0  0  0  0  0  0  0  0
    0.5827   -2.7923    3.0745 H   0  0  0  0  0  0  0  0  0  0  0  0
   -1.8165   -1.0051    2.9827 H   0  0  0  0  0  0  0  0  0  0  0  0
    3.4085   -2.2547    2.3981 H   0  0  0  0  0  0  0  0  0  0  0  0
    2.7535   -1.6707   -1.7528 H   0  0  0  0  0  0  0  0  0  0  0  0
    2.9948    0.5807   -0.5506 H   0  0  0  0  0  0  0  0  0  0  0  0
    3.5330   -0.4699    1.6765 H   0  0  0  0  0  0  0  0  0  0  0  0
    6.6703   -3.4013    1.5316 H   0  0  0  0  0  0  0  0  0  0  0  0
    4.2177   -6.0447   -0.7556 H   0  0  0  0  0  0  0  0  0  0  0  0
    1.7395   -4.3981   -1.0812 H   0  0  0  0  0  0  0  0  0  0  0  0
    6.0554   -6.3298    1.5968 H   0  0  0  0  0  0  0  0  0  0  0  0
    3.2510    1.7625    2.4017 H   0  0  0  0  0  0  0  0  0  0  0  0
    6.7197    0.6885    0.1657 H   0  0  0  0  0  0  0  0  0  0  0  0
    8.7036    2.7079    1.1441 H   0  0  0  0  0  0  0  0  0  0  0  0
    7.1301    4.7993    2.8924 H   0  0  0  0  0  0  0  0  0  0  0  0
    4.2763    4.0767    4.0057 H   0  0  0  0  0  0  0  0  0  0  0  0
    5.2434    0.7615   -1.3377 H   0  0  0  0  0  0  0  0  0  0  0  0
   -0.8816    2.8868   -3.0478 H   0  0  0  0  0  0  0  0  0  0  0  0
    0.2768   -0.5792   -6.3584 H   0  0  0  0  0  0  0  0  0  0  0  0
    0.1678   -1.1438   -3.9653 H   0  0  0  0  0  0  0  0  0  0  0  0
    0.6980    2.0826   -7.6704 H   0  0  0  0  0  0  0  0  0  0  0  0
   -0.0416    4.2959   -5.5561 H   0  0  0  0  0  0  0  0  0  0  0  0
   -1.8022   -1.3643   -3.2490 H   0  0  0  0  0  0  0  0  0  0  0  0
    0.8662    1.1426    1.1677 H   0  0  0  0  0  0  0  0  0  0  0  0
   -2.5457    4.4210    3.5208 H   0  0  0  0  0  0  0  0  0  0  0  0
   -8.0886    0.8365   -0.3782 H   0  0  0  0  0  0  0  0  0  0  0  0
   -7.1031   -3.3568    2.0218 H   0  0  0  0  0  0  0  0  0  0  0  0
   -5.4864   -1.5015    2.0612 H   0  0  0  0  0  0  0  0  0  0  0  0
   -9.2705   -3.9530    0.0393 H   0  0  0  0  0  0  0  0  0  0  0  0
   -9.8997   -1.2751   -1.4935 H   0  0  0  0  0  0  0  0  0  0  0  0
   -5.5210    1.2687    4.1531 H   0  0  0  0  0  0  0  0  0  0  0  0
  1  2  1  0  0  0  0
  2  3  1  0  0  0  0
  3  4  1  0  0  0  0
  4  5  1  0  0  0  0
  5  6  2  0  0  0  0
  1  6  1  0  0  0  0
  6  7  1  0  0  0  0
  7  8  2  0  0  0  0
  8  9  1  0  0  0  0
  9 10  2  0  0  0  0
  5 10  1  0  0  0  0
 10 11  1  0  0  0  0
 11 12  1  0  0  0  0
 12 13  1  0  0  0  0
 13 14  1  0  0  0  0
 14 15  1  0  0  0  0
 15 16  2  0  0  0  0
 16 17  1  0  0  0  0
 17 18  2  0  0  0  0
 18 19  1  0  0  0  0
 19 20  2  0  0  0  0
 11 20  1  0  0  0  0
 15 20  1  0  0  0  0
 19 21  1  0  0  0  0
 17 22  1  0  0  0  0
 16 23  1  0  0  0  0
 23 24  1  0  0  0  0
 24 25  1  0  0  0  0
 25 26  1  0  0  0  0
 26 27  1  0  0  0  0
 27 28  2  0  0  0  0
 28 29  1  0  0  0  0
 29 30  2  0  0  0  0
 30 31  1  0  0  0  0
 31 32  2  0  0  0  0
 23 32  1  0  0  0  0
 27 32  1  0  0  0  0
 31 33  1  0  0  0  0
 29 34  1  0  0  0  0
 25 35  1  0  0  0  0
 35 36  2  0  0  0  0
 36 37  1  0  0  0  0
 37 38  2  0  0  0  0
 38 39  1  0  0  0  0
 39 40  2  0  0  0  0
 35 40  1  0  0  0  0
 39 41  1  0  0  0  0
 38 42  1  0  0  0  0
 37 43  1  0  0  0  0
 24 44  1  0  0  0  0
 13 45  1  0  0  0  0
 45 46  2  0  0  0  0
 46 47  1  0  0  0  0
 47 48  2  0  0  0  0
 48 49  1  0  0  0  0
 49 50  2  0  0  0  0
 45 50  1  0  0  0  0
 48 51  1  0  0  0  0
 47 52  1  0  0  0  0
 12 53  1  0  0  0  0
  9 54  1  0  0  0  0
  7 55  1  0  0  0  0
  3 56  1  0  0  0  0
 56 57  2  0  0  0  0
 57 58  1  0  0  0  0
 58 59  2  0  0  0  0
 59 60  1  0  0  0  0
 60 61  2  0  0  0  0
 56 61  1  0  0  0  0
 59 62  1  0  0  0  0
 58 63  1  0  0  0  0
  2 64  1  0  0  0  0
  1 65  1  0  0  0  0
  1 66  1  0  0  0  0
  2 67  1  0  0  0  0
  3 68  1  0  0  0  0
  8 69  1  0  0  0  0
 11 70  1  0  0  0  0
 12 71  1  0  0  0  0
 13 72  1  0  0  0  0
 18 73  1  0  0  0  0
 21 74  1  0  0  0  0
 22 75  1  0  0  0  0
 23 76  1  0  0  0  0
 24 77  1  0  0  0  0
 25 78  1  0  0  0  0
 28 79  1  0  0  0  0
 30 80  1  0  0  0  0
 33 81  1  0  0  0  0
 34 82  1  0  0  0  0
 36 83  1  0  0  0  0
 40 84  1  0  0  0  0
 41 85  1  0  0  0  0
 42 86  1  0  0  0  0
 43 87  1  0  0  0  0
 44 88  1  0  0  0  0
 46 89  1  0  0  0  0
 49 90  1  0  0  0  0
 50 91  1  0  0  0  0
 51 92  1  0  0  0  0
 52 93  1  0  0  0  0
 53 94  1  0  0  0  0
 54 95  1  0  0  0  0
 55 96  1  0  0  0  0
 57 97  1  0  0  0  0
 60 98  1  0  0  0  0
 61 99  1  0  0  0  0
 62100  1  0  0  0  0
 63101  1  0  0  0  0
 64102  1  0  0  0  0
M  END
$$$$
