C19H24O7
APtclcactv06291803093D 0   0.00000     0.00000
 
 50 54  0  0  0  0  0  0  0  0999 V2000
    3.0297    1.6810   -0.4733 C   0  0  0  0  0  0  0  0  0  0  0  0
    2.3598    0.3811   -0.0234 C   0  0  0  0  0  0  0  0  0  0  0  0
    3.3203   -0.8281   -0.0122 C   0  0  0  0  0  0  0  0  0  0  0  0
    2.6632   -2.0293    0.6656 C   0  0  0  0  0  0  0  0  0  0  0  0
    1.2752   -2.3171    0.0691 C   0  0  0  0  0  0  0  0  0  0  0  0
    0.4886   -1.0234    0.1007 C   0  0  0  0  0  0  0  0  0  0  0  0
    1.1804   -0.0484   -0.9266 C   0  0  0  0  0  0  0  0  0  0  0  0
    0.1356    1.0701   -1.1023 C   0  0  0  0  0  0  0  0  0  0  0  0
   -1.1981    0.4595   -0.6911 C   0  0  0  0  0  0  0  0  0  0  0  0
   -0.9301   -1.0263   -0.3957 C   0  0  0  0  0  0  0  0  0  0  0  0
   -1.9878   -1.7412    0.3546 C   0  0  0  0  0  0  0  0  0  0  0  0
   -2.9729   -0.9201    1.1553 C   0  0  0  0  0  0  0  0  0  0  0  0
   -3.1538    0.5000    0.6269 C   0  0  0  0  0  0  0  0  0  0  0  0
   -1.7324    1.1300    0.5944 C   0  0  0  0  0  0  0  0  0  0  0  0
   -3.6020    0.4896   -0.8227 C   0  0  0  0  0  0  0  0  0  0  0  0
   -4.8373    0.4230   -1.2534 C   0  0  0  0  0  0  0  0  0  0  0  0
   -2.3466    0.5710   -1.6852 C   0  0  0  0  0  0  0  0  0  0  0  0
   -4.2403   -1.5800    1.1366 O   0  0  0  0  0  0  0  0  0  0  0  0
    0.4696    2.2384   -0.2109 C   0  0  0  0  0  0  0  0  0  0  0  0
    0.3099    2.1519    0.9836 O   0  0  0  0  0  0  0  0  0  0  0  0
    0.9444    3.3751   -0.7440 O   0  0  0  0  0  0  0  0  0  0  0  0
    0.6460   -0.3513    1.3778 O   0  0  0  0  0  0  0  0  0  0  0  0
    1.7396    0.4701    1.3635 C   0  0  0  0  0  0  0  0  0  0  0  0
    2.1290    1.1399    2.2907 O   0  0  0  0  0  0  0  0  0  0  0  0
    1.4109   -2.7697   -1.2795 O   0  0  0  0  0  0  0  0  0  0  0  0
    3.6595   -1.1730   -1.3568 O   0  0  0  0  0  0  0  0  0  0  0  0
    3.0067    1.7439   -1.5612 H   0  0  0  0  0  0  0  0  0  0  0  0
    2.4953    2.5309   -0.0488 H   0  0  0  0  0  0  0  0  0  0  0  0
    4.0642    1.6942   -0.1304 H   0  0  0  0  0  0  0  0  0  0  0  0
    4.2276   -0.5615    0.5297 H   0  0  0  0  0  0  0  0  0  0  0  0
    3.2977   -2.9056    0.5321 H   0  0  0  0  0  0  0  0  0  0  0  0
    2.5584   -1.8248    1.7310 H   0  0  0  0  0  0  0  0  0  0  0  0
    0.7660   -3.0745    0.6651 H   0  0  0  0  0  0  0  0  0  0  0  0
    1.4903   -0.5230   -1.8577 H   0  0  0  0  0  0  0  0  0  0  0  0
    0.0979    1.3894   -2.1438 H   0  0  0  0  0  0  0  0  0  0  0  0
   -0.8951   -1.5087   -1.3725 H   0  0  0  0  0  0  0  0  0  0  0  0
   -2.5561   -2.3369   -0.3597 H   0  0  0  0  0  0  0  0  0  0  0  0
   -1.4981   -2.4327    1.0403 H   0  0  0  0  0  0  0  0  0  0  0  0
   -2.6256   -0.8669    2.1871 H   0  0  0  0  0  0  0  0  0  0  0  0
   -3.8300    1.0749    1.2596 H   0  0  0  0  0  0  0  0  0  0  0  0
   -1.1477    0.8411    1.4678 H   0  0  0  0  0  0  0  0  0  0  0  0
   -1.7786    2.2140    0.4894 H   0  0  0  0  0  0  0  0  0  0  0  0
   -5.6530    0.3686   -0.5477 H   0  0  0  0  0  0  0  0  0  0  0  0
   -5.0401    0.4226   -2.3142 H   0  0  0  0  0  0  0  0  0  0  0  0
   -2.3056    1.5259   -2.2092 H   0  0  0  0  0  0  0  0  0  0  0  0
   -2.3177   -0.2557   -2.3950 H   0  0  0  0  0  0  0  0  0  0  0  0
   -4.2259   -2.4699    1.5146 H   0  0  0  0  0  0  0  0  0  0  0  0
    1.2110    4.0711   -0.1279 H   0  0  0  0  0  0  0  0  0  0  0  0
    1.9309   -3.5797   -1.3721 H   0  0  0  0  0  0  0  0  0  0  0  0
    4.2616   -1.9261   -1.4298 H   0  0  0  0  0  0  0  0  0  0  0  0
  1  2  1  0  0  0  0
  2  3  1  0  0  0  0
  3  4  1  0  0  0  0
  4  5  1  0  0  0  0
  5  6  1  0  0  0  0
  6  7  1  0  0  0  0
  2  7  1  0  0  0  0
  7  8  1  0  0  0  0
  8  9  1  0  0  0  0
  9 10  1  0  0  0  0
  6 10  1  0  0  0  0
 10 11  1  0  0  0  0
 11 12  1  0  0  0  0
 12 13  1  0  0  0  0
 13 14  1  0  0  0  0
  9 14  1  0  0  0  0
 13 15  1  0  0  0  0
 15 16  2  0  0  0  0
 15 17  1  0  0  0  0
  9 17  1  0  0  0  0
 12 18  1  0  0  0  0
  8 19  1  0  0  0  0
 19 20  2  0  0  0  0
 19 21  1  0  0  0  0
  6 22  1  0  0  0  0
 22 23  1  0  0  0  0
  2 23  1  0  0  0  0
 23 24  2  0  0  0  0
  5 25  1  0  0  0  0
  3 26  1  0  0  0  0
  1 27  1  0  0  0  0
  1 28  1  0  0  0  0
  1 29  1  0  0  0  0
  3 30  1  0  0  0  0
  4 31  1  0  0  0  0
  4 32  1  0  0  0  0
  5 33  1  0  0  0  0
  7 34  1  0  0  0  0
  8 35  1  0  0  0  0
 10 36  1  0  0  0  0
 11 37  1  0  0  0  0
 11 38  1  0  0  0  0
 12 39  1  0  0  0  0
 13 40  1  0  0  0  0
 14 41  1  0  0  0  0
 14 42  1  0  0  0  0
 16 43  1  0  0  0  0
 16 44  1  0  0  0  0
 17 45  1  0  0  0  0
 17 46  1  0  0  0  0
 18 47  1  0  0  0  0
 21 48  1  0  0  0  0
 25 49  1  0  0  0  0
 26 50  1  0  0  0  0
M  END
$$$$
