C28H32O16
APtclcactv06291803113D 0   0.00000     0.00000
 
 76 80  0  0  0  0  0  0  0  0999 V2000
    4.7867   -0.7828    3.0291 C   0  0  0  0  0  0  0  0  0  0  0  0
    5.2186    0.1370    1.8853 C   0  0  0  0  0  0  0  0  0  0  0  0
    6.6695   -0.1690    1.5042 C   0  0  0  0  0  0  0  0  0  0  0  0
    6.7634   -1.6126    1.0007 C   0  0  0  0  0  0  0  0  0  0  0  0
    5.8021   -1.7941   -0.1780 C   0  0  0  0  0  0  0  0  0  0  0  0
    4.3848   -1.4254    0.2680 C   0  0  0  0  0  0  0  0  0  0  0  0
    4.3741   -0.0813    0.7534 O   0  0  0  0  0  0  0  0  0  0  0  0
    3.4914   -1.5384   -0.8416 O   0  0  0  0  0  0  0  0  0  0  0  0
    2.1616   -1.4613   -0.5733 C   0  0  0  0  0  0  0  0  0  0  0  0
    1.2350   -1.6063   -1.6041 C   0  0  0  0  0  0  0  0  0  0  0  0
   -0.1177   -1.5281   -1.3334 C   0  0  0  0  0  0  0  0  0  0  0  0
   -0.5532   -1.3035   -0.0243 C   0  0  0  0  0  0  0  0  0  0  0  0
    0.3818   -1.1591    1.0045 C   0  0  0  0  0  0  0  0  0  0  0  0
    1.7294   -1.2439    0.7276 C   0  0  0  0  0  0  0  0  0  0  0  0
   -1.9955   -1.2187    0.2705 C   0  0  0  0  0  0  0  0  0  0  0  0
   -2.4506   -0.1806    1.0267 C   0  0  0  0  0  0  0  0  0  0  0  0
   -3.8358   -0.0845    1.3189 C   0  0  0  0  0  0  0  0  0  0  0  0
   -4.2798    0.8314    1.9927 O   0  0  0  0  0  0  0  0  0  0  0  0
   -4.7164   -1.1319    0.7774 C   0  0  0  0  0  0  0  0  0  0  0  0
   -6.0968   -1.1158    1.0157 C   0  0  0  0  0  0  0  0  0  0  0  0
   -6.8904   -2.1179    0.4890 C   0  0  0  0  0  0  0  0  0  0  0  0
   -6.3208   -3.1337   -0.2709 C   0  0  0  0  0  0  0  0  0  0  0  0
   -4.9556   -3.1564   -0.5104 C   0  0  0  0  0  0  0  0  0  0  0  0
   -4.1431   -2.1600    0.0083 C   0  0  0  0  0  0  0  0  0  0  0  0
   -2.8133   -2.1652   -0.2212 O   0  0  0  0  0  0  0  0  0  0  0  0
   -7.1094   -4.1130   -0.7829 O   0  0  0  0  0  0  0  0  0  0  0  0
   -6.6508   -0.1241    1.7583 O   0  0  0  0  0  0  0  0  0  0  0  0
   -1.5835    0.7562    1.4984 O   0  0  0  0  0  0  0  0  0  0  0  0
   -1.7229    2.0841    0.9890 C   0  0  0  0  0  0  0  0  0  0  0  0
   -0.7551    3.0329    1.7284 C   0  0  0  0  0  0  0  0  0  0  0  0
   -0.2607    3.9576    0.5827 C   0  0  0  0  0  0  0  0  0  0  0  0
   -0.2426    2.9664   -0.6081 C   0  0  0  0  0  0  0  0  0  0  0  0
   -1.3772    2.1102   -0.4008 O   0  0  0  0  0  0  0  0  0  0  0  0
   -0.3827    3.7227   -1.9307 C   0  0  0  0  0  0  0  0  0  0  0  0
   -0.3717    2.7263   -3.0917 C   0  0  0  0  0  0  0  0  0  0  0  0
   -0.3852    3.4382   -4.3306 O   0  0  0  0  0  0  0  0  0  0  0  0
   -1.6142    4.4475   -1.9368 O   0  0  0  0  0  0  0  0  0  0  0  0
   -1.1807    5.0259    0.3497 O   0  0  0  0  0  0  0  0  0  0  0  0
   -1.4455    3.7859    2.7275 O   0  0  0  0  0  0  0  0  0  0  0  0
    1.6622   -1.8242   -2.8767 O   0  0  0  0  0  0  0  0  0  0  0  0
    0.6576   -1.9633   -3.8834 C   0  0  0  0  0  0  0  0  0  0  0  0
    6.2005   -0.9430   -1.2546 O   0  0  0  0  0  0  0  0  0  0  0  0
    8.0999   -1.8839    0.5738 O   0  0  0  0  0  0  0  0  0  0  0  0
    7.0909    0.7251    0.4722 O   0  0  0  0  0  0  0  0  0  0  0  0
    5.4631   -0.6540    3.8741 H   0  0  0  0  0  0  0  0  0  0  0  0
    3.7714   -0.5302    3.3348 H   0  0  0  0  0  0  0  0  0  0  0  0
    4.8179   -1.8193    2.6934 H   0  0  0  0  0  0  0  0  0  0  0  0
    5.1380    1.1762    2.2042 H   0  0  0  0  0  0  0  0  0  0  0  0
    7.3093   -0.0456    2.3780 H   0  0  0  0  0  0  0  0  0  0  0  0
    6.4895   -2.2973    1.8033 H   0  0  0  0  0  0  0  0  0  0  0  0
    5.8217   -2.8330   -0.5073 H   0  0  0  0  0  0  0  0  0  0  0  0
    4.0662   -2.1010    1.0617 H   0  0  0  0  0  0  0  0  0  0  0  0
   -0.8368   -1.6399   -2.1314 H   0  0  0  0  0  0  0  0  0  0  0  0
    0.0484   -0.9851    2.0169 H   0  0  0  0  0  0  0  0  0  0  0  0
    2.4510   -1.1325    1.5234 H   0  0  0  0  0  0  0  0  0  0  0  0
   -7.9554   -2.1120    0.6685 H   0  0  0  0  0  0  0  0  0  0  0  0
   -4.5246   -3.9507   -1.1018 H   0  0  0  0  0  0  0  0  0  0  0  0
   -7.4586   -3.9169   -1.6630 H   0  0  0  0  0  0  0  0  0  0  0  0
   -6.9320    0.6437    1.2420 H   0  0  0  0  0  0  0  0  0  0  0  0
   -2.7494    2.4254    1.1226 H   0  0  0  0  0  0  0  0  0  0  0  0
    0.0752    2.4775    2.1643 H   0  0  0  0  0  0  0  0  0  0  0  0
    0.7386    4.3404    0.7904 H   0  0  0  0  0  0  0  0  0  0  0  0
    0.6780    2.3829   -0.6008 H   0  0  0  0  0  0  0  0  0  0  0  0
    0.4490    4.4186   -2.0412 H   0  0  0  0  0  0  0  0  0  0  0  0
    0.5273    2.1125   -3.0352 H   0  0  0  0  0  0  0  0  0  0  0  0
   -1.2524    2.0871   -3.0303 H   0  0  0  0  0  0  0  0  0  0  0  0
   -0.3792    2.8683   -5.1118 H   0  0  0  0  0  0  0  0  0  0  0  0
   -2.3944    3.8987   -1.7781 H   0  0  0  0  0  0  0  0  0  0  0  0
   -1.2570    5.6470    1.0869 H   0  0  0  0  0  0  0  0  0  0  0  0
   -1.8491    3.2442    3.4195 H   0  0  0  0  0  0  0  0  0  0  0  0
    0.0152   -2.8099   -3.6411 H   0  0  0  0  0  0  0  0  0  0  0  0
    0.0587   -1.0536   -3.9273 H   0  0  0  0  0  0  0  0  0  0  0  0
    1.1326   -2.1326   -4.8498 H   0  0  0  0  0  0  0  0  0  0  0  0
    5.6347   -1.0064   -2.0362 H   0  0  0  0  0  0  0  0  0  0  0  0
    8.2319   -2.7825    0.2418 H   0  0  0  0  0  0  0  0  0  0  0  0
    7.0525    1.6588    0.7208 H   0  0  0  0  0  0  0  0  0  0  0  0
  1  2  1  0  0  0  0
  2  3  1  0  0  0  0
  3  4  1  0  0  0  0
  4  5  1  0  0  0  0
  5  6  1  0  0  0  0
  6  7  1  0  0  0  0
  2  7  1  0  0  0  0
  6  8  1  0  0  0  0
  8  9  1  0  0  0  0
  9 10  2  0  0  0  0
 10 11  1  0  0  0  0
 11 12  2  0  0  0  0
 12 13  1  0  0  0  0
 13 14  2  0  0  0  0
  9 14  1  0  0  0  0
 12 15  1  0  0  0  0
 15 16  2  0  0  0  0
 16 17  1  0  0  0  0
 17 18  2  0  0  0  0
 17 19  1  0  0  0  0
 19 20  2  0  0  0  0
 20 21  1  0  0  0  0
 21 22  2  0  0  0  0
 22 23  1  0  0  0  0
 23 24  2  0  0  0  0
 19 24  1  0  0  0  0
 24 25  1  0  0  0  0
 15 25  1  0  0  0  0
 22 26  1  0  0  0  0
 20 27  1  0  0  0  0
 16 28  1  0  0  0  0
 28 29  1  0  0  0  0
 29 30  1  0  0  0  0
 30 31  1  0  0  0  0
 31 32  1  0  0  0  0
 32 33  1  0  0  0  0
 29 33  1  0  0  0  0
 32 34  1  0  0  0  0
 34 35  1  0  0  0  0
 35 36  1  0  0  0  0
 34 37  1  0  0  0  0
 31 38  1  0  0  0  0
 30 39  1  0  0  0  0
 10 40  1  0  0  0  0
 40 41  1  0  0  0  0
  5 42  1  0  0  0  0
  4 43  1  0  0  0  0
  3 44  1  0  0  0  0
  1 45  1  0  0  0  0
  1 46  1  0  0  0  0
  1 47  1  0  0  0  0
  2 48  1  0  0  0  0
  3 49  1  0  0  0  0
  4 50  1  0  0  0  0
  5 51  1  0  0  0  0
  6 52  1  0  0  0  0
 11 53  1  0  0  0  0
 13 54  1  0  0  0  0
 14 55  1  0  0  0  0
 21 56  1  0  0  0  0
 23 57  1  0  0  0  0
 26 58  1  0  0  0  0
 27 59  1  0  0  0  0
 29 60  1  0  0  0  0
 30 61  1  0  0  0  0
 31 62  1  0  0  0  0
 32 63  1  0  0  0  0
 34 64  1  0  0  0  0
 35 65  1  0  0  0  0
 35 66  1  0  0  0  0
 36 67  1  0  0  0  0
 37 68  1  0  0  0  0
 38 69  1  0  0  0  0
 39 70  1  0  0  0  0
 41 71  1  0  0  0  0
 41 72  1  0  0  0  0
 41 73  1  0  0  0  0
 42 74  1  0  0  0  0
 43 75  1  0  0  0  0
 44 76  1  0  0  0  0
M  END
$$$$
