C27H31O15
APtclcactv06291803113D 0   0.00000     0.00000
 
 73 77  0  0  0  0  0  0  0  0999 V2000
   -1.0164    3.3760    0.8687 C   0  0  0  0  0  0  0  0  0  0  0  0
   -0.1984    3.4801   -0.4201 C   0  0  0  0  0  0  0  0  0  0  0  0
    0.6762    4.7356   -0.3697 C   0  0  0  0  0  0  0  0  0  0  0  0
    1.6609    4.6159    0.7975 C   0  0  0  0  0  0  0  0  0  0  0  0
    2.4877    3.3380    0.6246 C   0  0  0  0  0  0  0  0  0  0  0  0
    1.5431    2.1365    0.5358 C   0  0  0  0  0  0  0  0  0  0  0  0
    0.6343    2.3260   -0.5505 O   0  0  0  0  0  0  0  0  0  0  0  0
    2.3044    0.9469    0.3182 O   0  0  0  0  0  0  0  0  0  0  0  0
    1.6241   -0.2299    0.3194 C   0  0  0  0  0  0  0  0  0  0  0  0
    2.2886   -1.4526    0.1136 C   0  0  0  0  0  0  0  0  0  0  0  0
    1.7136   -2.5166    0.1086 O   0  3  0  0  0  0  0  0  0  0  0  0
    0.5167   -2.6650    0.2764 C   0  0  0  0  0  0  0  0  0  0  0  0
   -0.0556   -3.9461    0.2528 C   0  0  0  0  0  0  0  0  0  0  0  0
   -1.4117   -4.0956    0.4450 C   0  0  0  0  0  0  0  0  0  0  0  0
   -2.2334   -2.9883    0.6644 C   0  0  0  0  0  0  0  0  0  0  0  0
   -1.7067   -1.7271    0.6928 C   0  0  0  0  0  0  0  0  0  0  0  0
   -0.3250   -1.5461    0.4999 C   0  0  0  0  0  0  0  0  0  0  0  0
    0.2623   -0.2639    0.5278 C   0  0  0  0  0  0  0  0  0  0  0  0
   -2.5123   -0.6555    0.9067 O   0  0  0  0  0  0  0  0  0  0  0  0
   -3.9044   -0.9177    1.0951 C   0  0  0  0  0  0  0  0  0  0  0  0
   -4.6268    0.3862    1.4441 C   0  0  0  0  0  0  0  0  0  0  0  0
   -4.4924    1.3644    0.2731 C   0  0  0  0  0  0  0  0  0  0  0  0
   -5.0543    0.7092   -0.9923 C   0  0  0  0  0  0  0  0  0  0  0  0
   -4.3153   -0.6071   -1.2472 C   0  0  0  0  0  0  0  0  0  0  0  0
   -4.4546   -1.4583   -0.1078 O   0  0  0  0  0  0  0  0  0  0  0  0
   -4.9114   -1.2973   -2.4757 C   0  0  0  0  0  0  0  0  0  0  0  0
   -4.1482   -2.4658   -2.7828 O   0  0  0  0  0  0  0  0  0  0  0  0
   -6.4481    0.4480   -0.8163 O   0  0  0  0  0  0  0  0  0  0  0  0
   -5.2257    2.5570    0.5599 O   0  0  0  0  0  0  0  0  0  0  0  0
   -6.0094    0.1164    1.6847 O   0  0  0  0  0  0  0  0  0  0  0  0
   -1.9575   -5.3389    0.4201 O   0  0  0  0  0  0  0  0  0  0  0  0
    3.7513   -1.4362   -0.1063 C   0  0  0  0  0  0  0  0  0  0  0  0
    4.5563   -2.4198    0.4710 C   0  0  0  0  0  0  0  0  0  0  0  0
    5.9226   -2.4005    0.2628 C   0  0  0  0  0  0  0  0  0  0  0  0
    6.4934   -1.4005   -0.5220 C   0  0  0  0  0  0  0  0  0  0  0  0
    5.6928   -0.4231   -1.0956 C   0  0  0  0  0  0  0  0  0  0  0  0
    4.3286   -0.4406   -0.8961 C   0  0  0  0  0  0  0  0  0  0  0  0
    7.8368   -1.3823   -0.7256 O   0  0  0  0  0  0  0  0  0  0  0  0
    6.7096   -3.3570    0.8241 O   0  0  0  0  0  0  0  0  0  0  0  0
    3.2603    3.4277   -0.5742 O   0  0  0  0  0  0  0  0  0  0  0  0
    2.5303    5.7500    0.8077 O   0  0  0  0  0  0  0  0  0  0  0  0
    1.4009    4.8622   -1.5948 O   0  0  0  0  0  0  0  0  0  0  0  0
   -1.6507    4.2568    0.9685 H   0  0  0  0  0  0  0  0  0  0  0  0
   -1.6390    2.4821    0.8327 H   0  0  0  0  0  0  0  0  0  0  0  0
   -0.3422    3.3150    1.7230 H   0  0  0  0  0  0  0  0  0  0  0  0
   -0.8724    3.5407   -1.2746 H   0  0  0  0  0  0  0  0  0  0  0  0
    0.0458    5.6131   -0.2259 H   0  0  0  0  0  0  0  0  0  0  0  0
    1.1095    4.5691    1.7365 H   0  0  0  0  0  0  0  0  0  0  0  0
    3.1528    3.2161    1.4795 H   0  0  0  0  0  0  0  0  0  0  0  0
    0.9832    2.0448    1.4665 H   0  0  0  0  0  0  0  0  0  0  0  0
    0.5658   -4.8132    0.0839 H   0  0  0  0  0  0  0  0  0  0  0  0
   -3.2939   -3.1293    0.8126 H   0  0  0  0  0  0  0  0  0  0  0  0
   -0.3171    0.6316    0.6973 H   0  0  0  0  0  0  0  0  0  0  0  0
   -4.0328   -1.6331    1.9074 H   0  0  0  0  0  0  0  0  0  0  0  0
   -4.1793    0.8229    2.3368 H   0  0  0  0  0  0  0  0  0  0  0  0
   -3.4411    1.6090    0.1211 H   0  0  0  0  0  0  0  0  0  0  0  0
   -4.9124    1.3770   -1.8420 H   0  0  0  0  0  0  0  0  0  0  0  0
   -3.2589   -0.4030   -1.4215 H   0  0  0  0  0  0  0  0  0  0  0  0
   -5.9430   -1.5814   -2.2680 H   0  0  0  0  0  0  0  0  0  0  0  0
   -4.8866   -0.6137   -3.3243 H   0  0  0  0  0  0  0  0  0  0  0  0
   -4.4700   -2.9547   -3.5525 H   0  0  0  0  0  0  0  0  0  0  0  0
   -6.9780    1.2387   -0.6456 H   0  0  0  0  0  0  0  0  0  0  0  0
   -4.9272    3.0209    1.3541 H   0  0  0  0  0  0  0  0  0  0  0  0
   -6.1689   -0.5010    2.4116 H   0  0  0  0  0  0  0  0  0  0  0  0
   -1.9840   -5.7742    1.2832 H   0  0  0  0  0  0  0  0  0  0  0  0
    4.1125   -3.1940    1.0793 H   0  0  0  0  0  0  0  0  0  0  0  0
    6.1386    0.3505   -1.7033 H   0  0  0  0  0  0  0  0  0  0  0  0
    3.7076    0.3213   -1.3437 H   0  0  0  0  0  0  0  0  0  0  0  0
    8.1237   -1.8820   -1.5021 H   0  0  0  0  0  0  0  0  0  0  0  0
    6.8351   -4.1387    0.2690 H   0  0  0  0  0  0  0  0  0  0  0  0
    3.8095    2.6508   -0.7471 H   0  0  0  0  0  0  0  0  0  0  0  0
    3.1814    5.7400    1.5225 H   0  0  0  0  0  0  0  0  0  0  0  0
    0.8390    4.9377   -2.3782 H   0  0  0  0  0  0  0  0  0  0  0  0
  1  2  1  0  0  0  0
  2  3  1  0  0  0  0
  3  4  1  0  0  0  0
  4  5  1  0  0  0  0
  5  6  1  0  0  0  0
  6  7  1  0  0  0  0
  2  7  1  0  0  0  0
  6  8  1  0  0  0  0
  8  9  1  0  0  0  0
  9 10  2  0  0  0  0
 10 11  1  0  0  0  0
 11 12  2  0  0  0  0
 12 13  1  0  0  0  0
 13 14  2  0  0  0  0
 14 15  1  0  0  0  0
 15 16  2  0  0  0  0
 16 17  1  0  0  0  0
 12 17  1  0  0  0  0
 17 18  2  0  0  0  0
  9 18  1  0  0  0  0
 16 19  1  0  0  0  0
 19 20  1  0  0  0  0
 20 21  1  0  0  0  0
 21 22  1  0  0  0  0
 22 23  1  0  0  0  0
 23 24  1  0  0  0  0
 24 25  1  0  0  0  0
 20 25  1  0  0  0  0
 24 26  1  0  0  0  0
 26 27  1  0  0  0  0
 23 28  1  0  0  0  0
 22 29  1  0  0  0  0
 21 30  1  0  0  0  0
 14 31  1  0  0  0  0
 10 32  1  0  0  0  0
 32 33  2  0  0  0  0
 33 34  1  0  0  0  0
 34 35  2  0  0  0  0
 35 36  1  0  0  0  0
 36 37  2  0  0  0  0
 32 37  1  0  0  0  0
 35 38  1  0  0  0  0
 34 39  1  0  0  0  0
  5 40  1  0  0  0  0
  4 41  1  0  0  0  0
  3 42  1  0  0  0  0
  1 43  1  0  0  0  0
  1 44  1  0  0  0  0
  1 45  1  0  0  0  0
  2 46  1  0  0  0  0
  3 47  1  0  0  0  0
  4 48  1  0  0  0  0
  5 49  1  0  0  0  0
  6 50  1  0  0  0  0
 13 51  1  0  0  0  0
 15 52  1  0  0  0  0
 18 53  1  0  0  0  0
 20 54  1  0  0  0  0
 21 55  1  0  0  0  0
 22 56  1  0  0  0  0
 23 57  1  0  0  0  0
 24 58  1  0  0  0  0
 26 59  1  0  0  0  0
 26 60  1  0  0  0  0
 27 61  1  0  0  0  0
 28 62  1  0  0  0  0
 29 63  1  0  0  0  0
 30 64  1  0  0  0  0
 31 65  1  0  0  0  0
 33 66  1  0  0  0  0
 36 67  1  0  0  0  0
 37 68  1  0  0  0  0
 38 69  1  0  0  0  0
 39 70  1  0  0  0  0
 40 71  1  0  0  0  0
 41 72  1  0  0  0  0
 42 73  1  0  0  0  0
M  CHG  1  11   1
M  END
$$$$
