C26H34O9
APtclcactv06291803123D 0   0.00000     0.00000
 
 69 69  0  0  0  0  0  0  0  0999 V2000
   -7.1162    1.4326    1.0456 C   0  0  0  0  0  0  0  0  0  0  0  0
   -7.1155    0.1852    0.2000 C   0  0  0  0  0  0  0  0  0  0  0  0
   -5.9261   -0.4283   -0.1202 C   0  0  0  0  0  0  0  0  0  0  0  0
   -4.7149    0.1071    0.3404 C   0  0  0  0  0  0  0  0  0  0  0  0
   -3.5254   -0.5065    0.0202 C   0  0  0  0  0  0  0  0  0  0  0  0
   -2.3141    0.0289    0.4808 C   0  0  0  0  0  0  0  0  0  0  0  0
   -1.1248   -0.5846    0.1607 C   0  0  0  0  0  0  0  0  0  0  0  0
   -1.1241   -1.8320   -0.6849 C   0  0  0  0  0  0  0  0  0  0  0  0
    0.0869   -0.0489    0.6214 C   0  0  0  0  0  0  0  0  0  0  0  0
    1.2672   -0.6578    0.3037 C   0  0  0  0  0  0  0  0  0  0  0  0
    2.4805   -0.1214    0.7651 C   0  0  0  0  0  0  0  0  0  0  0  0
    3.6582   -0.7289    0.4481 C   0  0  0  0  0  0  0  0  0  0  0  0
    3.6589   -1.9763   -0.3975 C   0  0  0  0  0  0  0  0  0  0  0  0
    4.8783   -0.1895    0.9120 C   0  0  0  0  0  0  0  0  0  0  0  0
    4.8777    0.8180    1.5951 O   0  0  0  0  0  0  0  0  0  0  0  0
    6.0453   -0.7916    0.5979 O   0  0  0  0  0  0  0  0  0  0  0  0
    7.2408   -0.1916    1.1010 C   0  0  0  0  0  0  0  0  0  0  0  0
    8.4414   -1.0747    0.7513 C   0  0  0  0  0  0  0  0  0  0  0  0
    8.5723   -1.1652   -0.7722 C   0  0  0  0  0  0  0  0  0  0  0  0
    8.7034    0.2484   -1.3473 C   0  0  0  0  0  0  0  0  0  0  0  0
    7.4926    1.0804   -0.9165 C   0  0  0  0  0  0  0  0  0  0  0  0
    7.4118    1.0983    0.5101 O   0  0  0  0  0  0  0  0  0  0  0  0
    7.6455    2.5111   -1.4369 C   0  0  0  0  0  0  0  0  0  0  0  0
    6.4639    3.2563   -1.1357 O   0  0  0  0  0  0  0  0  0  0  0  0
    9.8995    0.8554   -0.8546 O   0  0  0  0  0  0  0  0  0  0  0  0
    9.7335   -1.9274   -1.1078 O   0  0  0  0  0  0  0  0  0  0  0  0
    9.6307   -0.5028    1.2996 O   0  0  0  0  0  0  0  0  0  0  0  0
   -8.3272   -0.3505   -0.2608 C   0  0  0  0  0  0  0  0  0  0  0  0
   -9.5075    0.2583    0.0569 C   0  0  0  0  0  0  0  0  0  0  0  0
  -10.7208   -0.2780   -0.4045 C   0  0  0  0  0  0  0  0  0  0  0  0
  -11.8984    0.3295   -0.0875 C   0  0  0  0  0  0  0  0  0  0  0  0
  -11.8992    1.5769    0.7581 C   0  0  0  0  0  0  0  0  0  0  0  0
  -13.1186   -0.2099   -0.5514 C   0  0  0  0  0  0  0  0  0  0  0  0
  -13.1180   -1.2174   -1.2344 O   0  0  0  0  0  0  0  0  0  0  0  0
  -14.2856    0.3921   -0.2373 O   0  0  0  0  0  0  0  0  0  0  0  0
   -7.0480    2.3087    0.4007 H   0  0  0  0  0  0  0  0  0  0  0  0
   -8.0385    1.4785    1.6246 H   0  0  0  0  0  0  0  0  0  0  0  0
   -6.2625    1.4127    1.7230 H   0  0  0  0  0  0  0  0  0  0  0  0
   -5.9256   -1.3223   -0.7262 H   0  0  0  0  0  0  0  0  0  0  0  0
   -4.7154    1.0010    0.9464 H   0  0  0  0  0  0  0  0  0  0  0  0
   -3.5248   -1.4005   -0.5858 H   0  0  0  0  0  0  0  0  0  0  0  0
   -2.3147    0.9229    1.0868 H   0  0  0  0  0  0  0  0  0  0  0  0
   -1.0556   -1.5573   -1.7375 H   0  0  0  0  0  0  0  0  0  0  0  0
   -0.2701   -2.4533   -0.4152 H   0  0  0  0  0  0  0  0  0  0  0  0
   -2.0461   -2.3875   -0.5137 H   0  0  0  0  0  0  0  0  0  0  0  0
    0.0864    0.8450    1.2274 H   0  0  0  0  0  0  0  0  0  0  0  0
    1.2677   -1.5517   -0.3023 H   0  0  0  0  0  0  0  0  0  0  0  0
    2.4800    0.7725    1.3711 H   0  0  0  0  0  0  0  0  0  0  0  0
    3.7274   -1.7017   -1.4501 H   0  0  0  0  0  0  0  0  0  0  0  0
    4.5129   -2.5976   -0.1278 H   0  0  0  0  0  0  0  0  0  0  0  0
    2.7369   -2.5319   -0.2263 H   0  0  0  0  0  0  0  0  0  0  0  0
    7.1682   -0.0889    2.1837 H   0  0  0  0  0  0  0  0  0  0  0  0
    8.2922   -2.0725    1.1640 H   0  0  0  0  0  0  0  0  0  0  0  0
    7.6863   -1.6466   -1.1863 H   0  0  0  0  0  0  0  0  0  0  0  0
    8.7414    0.1969   -2.4354 H   0  0  0  0  0  0  0  0  0  0  0  0
    6.5840    0.6395   -1.3266 H   0  0  0  0  0  0  0  0  0  0  0  0
    8.5040    2.9821   -0.9580 H   0  0  0  0  0  0  0  0  0  0  0  0
    7.7971    2.4910   -2.5161 H   0  0  0  0  0  0  0  0  0  0  0  0
    6.4906    4.1747   -1.4373 H   0  0  0  0  0  0  0  0  0  0  0  0
   10.7075    0.3774   -1.0866 H   0  0  0  0  0  0  0  0  0  0  0  0
    9.7211   -2.8330   -0.7689 H   0  0  0  0  0  0  0  0  0  0  0  0
    9.6153   -0.4109    2.2621 H   0  0  0  0  0  0  0  0  0  0  0  0
   -8.3267   -1.2444   -0.8668 H   0  0  0  0  0  0  0  0  0  0  0  0
   -9.5080    1.1523    0.6629 H   0  0  0  0  0  0  0  0  0  0  0  0
  -10.7202   -1.1720   -1.0105 H   0  0  0  0  0  0  0  0  0  0  0  0
  -11.8310    2.4530    0.1133 H   0  0  0  0  0  0  0  0  0  0  0  0
  -12.8215    1.6228    1.3371 H   0  0  0  0  0  0  0  0  0  0  0  0
  -11.0455    1.5571    1.4356 H   0  0  0  0  0  0  0  0  0  0  0  0
  -15.0659   -0.0494   -0.5995 H   0  0  0  0  0  0  0  0  0  0  0  0
  1  2  1  0  0  0  0
  2  3  2  0  0  0  0
  3  4  1  0  0  0  0
  4  5  2  0  0  0  0
  5  6  1  0  0  0  0
  6  7  2  0  0  0  0
  7  8  1  0  0  0  0
  7  9  1  0  0  0  0
  9 10  2  0  0  0  0
 10 11  1  0  0  0  0
 11 12  2  0  0  0  0
 12 13  1  0  0  0  0
 12 14  1  0  0  0  0
 14 15  2  0  0  0  0
 14 16  1  0  0  0  0
 16 17  1  0  0  0  0
 17 18  1  0  0  0  0
 18 19  1  0  0  0  0
 19 20  1  0  0  0  0
 20 21  1  0  0  0  0
 21 22  1  0  0  0  0
 17 22  1  0  0  0  0
 21 23  1  0  0  0  0
 23 24  1  0  0  0  0
 20 25  1  0  0  0  0
 19 26  1  0  0  0  0
 18 27  1  0  0  0  0
  2 28  1  0  0  0  0
 28 29  2  0  0  0  0
 29 30  1  0  0  0  0
 30 31  2  0  0  0  0
 31 32  1  0  0  0  0
 31 33  1  0  0  0  0
 33 34  2  0  0  0  0
 33 35  1  0  0  0  0
  1 36  1  0  0  0  0
  1 37  1  0  0  0  0
  1 38  1  0  0  0  0
  3 39  1  0  0  0  0
  4 40  1  0  0  0  0
  5 41  1  0  0  0  0
  6 42  1  0  0  0  0
  8 43  1  0  0  0  0
  8 44  1  0  0  0  0
  8 45  1  0  0  0  0
  9 46  1  0  0  0  0
 10 47  1  0  0  0  0
 11 48  1  0  0  0  0
 13 49  1  0  0  0  0
 13 50  1  0  0  0  0
 13 51  1  0  0  0  0
 17 52  1  0  0  0  0
 18 53  1  0  0  0  0
 19 54  1  0  0  0  0
 20 55  1  0  0  0  0
 21 56  1  0  0  0  0
 23 57  1  0  0  0  0
 23 58  1  0  0  0  0
 24 59  1  0  0  0  0
 25 60  1  0  0  0  0
 26 61  1  0  0  0  0
 27 62  1  0  0  0  0
 28 63  1  0  0  0  0
 29 64  1  0  0  0  0
 30 65  1  0  0  0  0
 32 66  1  0  0  0  0
 32 67  1  0  0  0  0
 32 68  1  0  0  0  0
 35 69  1  0  0  0  0
M  END
$$$$
