C40H58
APtclcactv06281816483D 0   0.00000     0.00000
 
 98 98  0  0  0  0  0  0  0  0999 V2000
   11.9420    0.0107   -2.7644 C   0  0  0  0  0  0  0  0  0  0  0  0
   12.3355    0.5267   -1.4043 C   0  0  0  0  0  0  0  0  0  0  0  0
   13.2424    1.4483   -1.3437 C   0  0  0  0  0  0  0  0  0  0  0  0
   13.7435    2.0521   -0.0645 C   0  0  0  0  0  0  0  0  0  0  0  0
   12.7679    1.7548    1.0763 C   0  0  0  0  0  0  0  0  0  0  0  0
   12.4489    0.2545    1.0632 C   0  0  0  0  0  0  0  0  0  0  0  0
   11.6473   -0.0558   -0.2046 C   0  0  0  0  0  0  0  0  0  0  0  0
   10.2651    0.5312   -0.0778 C   0  0  0  0  0  0  0  0  0  0  0  0
    9.1934   -0.2652   -0.1325 C   0  0  0  0  0  0  0  0  0  0  0  0
    7.8929    0.2870   -0.0132 C   0  0  0  0  0  0  0  0  0  0  0  0
    6.8034   -0.5226   -0.0688 C   0  0  0  0  0  0  0  0  0  0  0  0
    5.5134    0.0251    0.0495 C   0  0  0  0  0  0  0  0  0  0  0  0
    4.4195   -0.7878   -0.0063 C   0  0  0  0  0  0  0  0  0  0  0  0
    3.1328   -0.2414    0.1118 C   0  0  0  0  0  0  0  0  0  0  0  0
    2.0374   -1.0554    0.0559 C   0  0  0  0  0  0  0  0  0  0  0  0
    0.7516   -0.5094    0.1739 C   0  0  0  0  0  0  0  0  0  0  0  0
   -0.3438   -1.3234    0.1180 C   0  0  0  0  0  0  0  0  0  0  0  0
   -1.6305   -0.7771    0.2360 C   0  0  0  0  0  0  0  0  0  0  0  0
   -2.7244   -1.5900    0.1802 C   0  0  0  0  0  0  0  0  0  0  0  0
   -2.5508   -3.0751   -0.0082 C   0  0  0  0  0  0  0  0  0  0  0  0
   -4.0144   -1.0422    0.2985 C   0  0  0  0  0  0  0  0  0  0  0  0
   -5.1039   -1.8519    0.2430 C   0  0  0  0  0  0  0  0  0  0  0  0
   -6.4044   -1.2996    0.3623 C   0  0  0  0  0  0  0  0  0  0  0  0
   -7.4761   -2.0960    0.3076 C   0  0  0  0  0  0  0  0  0  0  0  0
   -7.3024   -3.5811    0.1192 C   0  0  0  0  0  0  0  0  0  0  0  0
   -8.8583   -1.5091    0.4344 C   0  0  0  0  0  0  0  0  0  0  0  0
   -9.4326   -1.2510   -0.9600 C   0  0  0  0  0  0  0  0  0  0  0  0
  -10.8148   -0.6641   -0.8332 C   0  0  0  0  0  0  0  0  0  0  0  0
  -11.0806    0.5056   -1.3600 C   0  0  0  0  0  0  0  0  0  0  0  0
   -9.9749    1.3231   -1.9765 C   0  0  0  0  0  0  0  0  0  0  0  0
  -12.4921    1.0335   -1.3494 C   0  0  0  0  0  0  0  0  0  0  0  0
  -12.6870    1.9436   -0.1350 C   0  0  0  0  0  0  0  0  0  0  0  0
  -14.0985    2.4716   -0.1244 C   0  0  0  0  0  0  0  0  0  0  0  0
  -14.8767    2.2401    0.9036 C   0  0  0  0  0  0  0  0  0  0  0  0
  -14.4082    1.3365    2.0149 C   0  0  0  0  0  0  0  0  0  0  0  0
  -16.2404    2.8774    0.9749 C   0  0  0  0  0  0  0  0  0  0  0  0
    2.9592    1.2436    0.3002 C   0  0  0  0  0  0  0  0  0  0  0  0
    7.7193    1.7720    0.1752 C   0  0  0  0  0  0  0  0  0  0  0  0
   13.7514   -0.5483    1.0635 C   0  0  0  0  0  0  0  0  0  0  0  0
   11.6178   -0.1054    2.2964 C   0  0  0  0  0  0  0  0  0  0  0  0
   12.5199    0.5280   -3.5304 H   0  0  0  0  0  0  0  0  0  0  0  0
   12.1422   -1.0593   -2.8190 H   0  0  0  0  0  0  0  0  0  0  0  0
   10.8794    0.1904   -2.9277 H   0  0  0  0  0  0  0  0  0  0  0  0
   13.6649    1.8047   -2.2715 H   0  0  0  0  0  0  0  0  0  0  0  0
   14.7196    1.6308    0.1758 H   0  0  0  0  0  0  0  0  0  0  0  0
   13.8381    3.1311   -0.1870 H   0  0  0  0  0  0  0  0  0  0  0  0
   13.2248    2.0240    2.0286 H   0  0  0  0  0  0  0  0  0  0  0  0
   11.8506    2.3257    0.9321 H   0  0  0  0  0  0  0  0  0  0  0  0
   11.5690   -1.1360   -0.3273 H   0  0  0  0  0  0  0  0  0  0  0  0
   10.1406    1.5954    0.0572 H   0  0  0  0  0  0  0  0  0  0  0  0
    9.3178   -1.3295   -0.2676 H   0  0  0  0  0  0  0  0  0  0  0  0
    6.9278   -1.5869   -0.2038 H   0  0  0  0  0  0  0  0  0  0  0  0
    5.3890    1.0894    0.1846 H   0  0  0  0  0  0  0  0  0  0  0  0
    4.5439   -1.8521   -0.1413 H   0  0  0  0  0  0  0  0  0  0  0  0
    2.1618   -2.1197   -0.0791 H   0  0  0  0  0  0  0  0  0  0  0  0
    0.6272    0.5549    0.3089 H   0  0  0  0  0  0  0  0  0  0  0  0
   -0.2194   -2.3877   -0.0171 H   0  0  0  0  0  0  0  0  0  0  0  0
   -1.7549    0.2872    0.3711 H   0  0  0  0  0  0  0  0  0  0  0  0
   -2.4683   -3.5577    0.9656 H   0  0  0  0  0  0  0  0  0  0  0  0
   -3.4126   -3.4769   -0.5411 H   0  0  0  0  0  0  0  0  0  0  0  0
   -1.6459   -3.2647   -0.5855 H   0  0  0  0  0  0  0  0  0  0  0  0
   -4.1388    0.0221    0.4336 H   0  0  0  0  0  0  0  0  0  0  0  0
   -4.9795   -2.9161    0.1079 H   0  0  0  0  0  0  0  0  0  0  0  0
   -6.5288   -0.2353    0.4973 H   0  0  0  0  0  0  0  0  0  0  0  0
   -7.2200   -4.0637    1.0930 H   0  0  0  0  0  0  0  0  0  0  0  0
   -8.1642   -3.9829   -0.4137 H   0  0  0  0  0  0  0  0  0  0  0  0
   -6.3975   -3.7707   -0.4581 H   0  0  0  0  0  0  0  0  0  0  0  0
   -9.5020   -2.2076    0.9689 H   0  0  0  0  0  0  0  0  0  0  0  0
   -8.8051   -0.5698    0.9850 H   0  0  0  0  0  0  0  0  0  0  0  0
   -8.7889   -0.5525   -1.4946 H   0  0  0  0  0  0  0  0  0  0  0  0
   -9.4858   -2.1902   -1.5106 H   0  0  0  0  0  0  0  0  0  0  0  0
  -11.5863   -1.2077   -0.3081 H   0  0  0  0  0  0  0  0  0  0  0  0
   -9.8211    1.0068   -3.0082 H   0  0  0  0  0  0  0  0  0  0  0  0
  -10.2487    2.3780   -1.9569 H   0  0  0  0  0  0  0  0  0  0  0  0
   -9.0552    1.1759   -1.4104 H   0  0  0  0  0  0  0  0  0  0  0  0
  -12.6745    1.6011   -2.2619 H   0  0  0  0  0  0  0  0  0  0  0  0
  -13.1916    0.1994   -1.2943 H   0  0  0  0  0  0  0  0  0  0  0  0
  -12.5046    1.3760    0.7774 H   0  0  0  0  0  0  0  0  0  0  0  0
  -11.9875    2.7778   -0.1901 H   0  0  0  0  0  0  0  0  0  0  0  0
  -14.4684    3.0408   -0.9644 H   0  0  0  0  0  0  0  0  0  0  0  0
  -13.8120    1.9112    2.7236 H   0  0  0  0  0  0  0  0  0  0  0  0
  -15.2720    0.9123    2.5268 H   0  0  0  0  0  0  0  0  0  0  0  0
  -13.8018    0.5323    1.5981 H   0  0  0  0  0  0  0  0  0  0  0  0
  -16.4012    3.4917    0.0890 H   0  0  0  0  0  0  0  0  0  0  0  0
  -17.0029    2.0999    1.0212 H   0  0  0  0  0  0  0  0  0  0  0  0
  -16.3036    3.5017    1.8663 H   0  0  0  0  0  0  0  0  0  0  0  0
    2.8767    1.7263   -0.6736 H   0  0  0  0  0  0  0  0  0  0  0  0
    2.0543    1.4333    0.8775 H   0  0  0  0  0  0  0  0  0  0  0  0
    3.8210    1.6455    0.8331 H   0  0  0  0  0  0  0  0  0  0  0  0
    7.6368    2.2547   -0.7986 H   0  0  0  0  0  0  0  0  0  0  0  0
    6.8144    1.9617    0.7525 H   0  0  0  0  0  0  0  0  0  0  0  0
    8.5811    2.1739    0.7081 H   0  0  0  0  0  0  0  0  0  0  0  0
   14.3260   -0.3083    1.9582 H   0  0  0  0  0  0  0  0  0  0  0  0
   13.5216   -1.6137    1.0542 H   0  0  0  0  0  0  0  0  0  0  0  0
   14.3347   -0.2947    0.1783 H   0  0  0  0  0  0  0  0  0  0  0  0
   10.6874    0.4624    2.2858 H   0  0  0  0  0  0  0  0  0  0  0  0
   11.3928   -1.1718    2.2843 H   0  0  0  0  0  0  0  0  0  0  0  0
   12.1811    0.1370    3.1975 H   0  0  0  0  0  0  0  0  0  0  0  0
  1  2  1  0  0  0  0
  2  3  2  0  0  0  0
  3  4  1  0  0  0  0
  4  5  1  0  0  0  0
  5  6  1  0  0  0  0
  6  7  1  0  0  0  0
  2  7  1  0  0  0  0
  7  8  1  0  0  0  0
  8  9  2  0  0  0  0
  9 10  1  0  0  0  0
 10 11  2  0  0  0  0
 11 12  1  0  0  0  0
 12 13  2  0  0  0  0
 13 14  1  0  0  0  0
 14 15  2  0  0  0  0
 15 16  1  0  0  0  0
 16 17  2  0  0  0  0
 17 18  1  0  0  0  0
 18 19  2  0  0  0  0
 19 20  1  0  0  0  0
 19 21  1  0  0  0  0
 21 22  2  0  0  0  0
 22 23  1  0  0  0  0
 23 24  2  0  0  0  0
 24 25  1  0  0  0  0
 24 26  1  0  0  0  0
 26 27  1  0  0  0  0
 27 28  1  0  0  0  0
 28 29  2  0  0  0  0
 29 30  1  0  0  0  0
 29 31  1  0  0  0  0
 31 32  1  0  0  0  0
 32 33  1  0  0  0  0
 33 34  2  0  0  0  0
 34 35  1  0  0  0  0
 34 36  1  0  0  0  0
 14 37  1  0  0  0  0
 10 38  1  0  0  0  0
  6 39  1  0  0  0  0
  6 40  1  0  0  0  0
  1 41  1  0  0  0  0
  1 42  1  0  0  0  0
  1 43  1  0  0  0  0
  3 44  1  0  0  0  0
  4 45  1  0  0  0  0
  4 46  1  0  0  0  0
  5 47  1  0  0  0  0
  5 48  1  0  0  0  0
  7 49  1  0  0  0  0
  8 50  1  0  0  0  0
  9 51  1  0  0  0  0
 11 52  1  0  0  0  0
 12 53  1  0  0  0  0
 13 54  1  0  0  0  0
 15 55  1  0  0  0  0
 16 56  1  0  0  0  0
 17 57  1  0  0  0  0
 18 58  1  0  0  0  0
 20 59  1  0  0  0  0
 20 60  1  0  0  0  0
 20 61  1  0  0  0  0
 21 62  1  0  0  0  0
 22 63  1  0  0  0  0
 23 64  1  0  0  0  0
 25 65  1  0  0  0  0
 25 66  1  0  0  0  0
 25 67  1  0  0  0  0
 26 68  1  0  0  0  0
 26 69  1  0  0  0  0
 27 70  1  0  0  0  0
 27 71  1  0  0  0  0
 28 72  1  0  0  0  0
 30 73  1  0  0  0  0
 30 74  1  0  0  0  0
 30 75  1  0  0  0  0
 31 76  1  0  0  0  0
 31 77  1  0  0  0  0
 32 78  1  0  0  0  0
 32 79  1  0  0  0  0
 33 80  1  0  0  0  0
 35 81  1  0  0  0  0
 35 82  1  0  0  0  0
 35 83  1  0  0  0  0
 36 84  1  0  0  0  0
 36 85  1  0  0  0  0
 36 86  1  0  0  0  0
 37 87  1  0  0  0  0
 37 88  1  0  0  0  0
 37 89  1  0  0  0  0
 38 90  1  0  0  0  0
 38 91  1  0  0  0  0
 38 92  1  0  0  0  0
 39 93  1  0  0  0  0
 39 94  1  0  0  0  0
 39 95  1  0  0  0  0
 40 96  1  0  0  0  0
 40 97  1  0  0  0  0
 40 98  1  0  0  0  0
M  END
$$$$
