C18H16O6
APtclcactv06291803093D 0   0.00000     0.00000
 
 40 42  0  0  0  0  0  0  0  0999 V2000
    3.7221   -0.9628   -0.3919 C   0  0  0  0  0  0  0  0  0  0  0  0
    2.6456   -1.7931   -0.6052 C   0  0  0  0  0  0  0  0  0  0  0  0
    1.3493   -1.2930   -0.5396 C   0  0  0  0  0  0  0  0  0  0  0  0
    1.1336    0.0538   -0.2539 C   0  0  0  0  0  0  0  0  0  0  0  0
    2.2085    0.8954   -0.0393 C   0  0  0  0  0  0  0  0  0  0  0  0
    3.5136    0.3927   -0.1069 C   0  0  0  0  0  0  0  0  0  0  0  0
    4.6586    1.2825    0.1206 C   0  0  0  0  0  0  0  0  0  0  0  0
    5.9210    0.7930    0.0545 C   0  0  0  0  0  0  0  0  0  0  0  0
    7.0192    1.6464    0.2726 C   0  0  0  0  0  0  0  0  0  0  0  0
    8.1504    1.2078    0.2134 O   0  0  0  0  0  0  0  0  0  0  0  0
   -0.1297    0.5559   -0.1791 O   0  0  0  0  0  0  0  0  0  0  0  0
   -1.1702   -0.2307   -0.7694 C   0  0  0  0  0  0  0  0  0  0  0  0
   -0.9846   -1.6865   -0.3207 C   0  0  0  0  0  0  0  0  0  0  0  0
    0.3024   -2.1316   -0.7617 O   0  0  0  0  0  0  0  0  0  0  0  0
   -1.0644   -1.7701    1.2050 C   0  0  0  0  0  0  0  0  0  0  0  0
   -1.0078   -3.1392    1.6106 O   0  0  0  0  0  0  0  0  0  0  0  0
   -2.5131    0.2757   -0.3098 C   0  0  0  0  0  0  0  0  0  0  0  0
   -3.5932    0.2465   -1.1722 C   0  0  0  0  0  0  0  0  0  0  0  0
   -4.8287    0.7117   -0.7512 C   0  0  0  0  0  0  0  0  0  0  0  0
   -4.9788    1.2076    0.5403 C   0  0  0  0  0  0  0  0  0  0  0  0
   -3.8921    1.2340    1.3996 C   0  0  0  0  0  0  0  0  0  0  0  0
   -2.6636    0.7631    0.9751 C   0  0  0  0  0  0  0  0  0  0  0  0
   -6.1892    1.6657    0.9580 O   0  0  0  0  0  0  0  0  0  0  0  0
   -5.8921    0.6841   -1.5985 O   0  0  0  0  0  0  0  0  0  0  0  0
    4.7265   -1.3567   -0.4398 H   0  0  0  0  0  0  0  0  0  0  0  0
    2.8080   -2.8380   -0.8249 H   0  0  0  0  0  0  0  0  0  0  0  0
    2.0420    1.9396    0.1803 H   0  0  0  0  0  0  0  0  0  0  0  0
    4.4953    2.3272    0.3405 H   0  0  0  0  0  0  0  0  0  0  0  0
    6.0843   -0.2517   -0.1655 H   0  0  0  0  0  0  0  0  0  0  0  0
    6.8559    2.6911    0.4926 H   0  0  0  0  0  0  0  0  0  0  0  0
   -1.1058   -0.1698   -1.8558 H   0  0  0  0  0  0  0  0  0  0  0  0
   -1.7610   -2.3096   -0.7645 H   0  0  0  0  0  0  0  0  0  0  0  0
   -0.2273   -1.2265    1.6429 H   0  0  0  0  0  0  0  0  0  0  0  0
   -2.0016   -1.3291    1.5445 H   0  0  0  0  0  0  0  0  0  0  0  0
   -1.0535   -3.2680    2.5678 H   0  0  0  0  0  0  0  0  0  0  0  0
   -3.4740   -0.1386   -2.1742 H   0  0  0  0  0  0  0  0  0  0  0  0
   -4.0059    1.6184    2.4025 H   0  0  0  0  0  0  0  0  0  0  0  0
   -1.8174    0.7843    1.6459 H   0  0  0  0  0  0  0  0  0  0  0  0
   -6.7467    0.9887    1.3655 H   0  0  0  0  0  0  0  0  0  0  0  0
   -6.4068   -0.1335   -1.5571 H   0  0  0  0  0  0  0  0  0  0  0  0
  1  2  2  0  0  0  0
  2  3  1  0  0  0  0
  3  4  2  0  0  0  0
  4  5  1  0  0  0  0
  5  6  2  0  0  0  0
  1  6  1  0  0  0  0
  6  7  1  0  0  0  0
  7  8  2  0  0  0  0
  8  9  1  0  0  0  0
  9 10  2  0  0  0  0
  4 11  1  0  0  0  0
 11 12  1  0  0  0  0
 12 13  1  0  0  0  0
 13 14  1  0  0  0  0
  3 14  1  0  0  0  0
 13 15  1  0  0  0  0
 15 16  1  0  0  0  0
 12 17  1  0  0  0  0
 17 18  2  0  0  0  0
 18 19  1  0  0  0  0
 19 20  2  0  0  0  0
 20 21  1  0  0  0  0
 21 22  2  0  0  0  0
 17 22  1  0  0  0  0
 20 23  1  0  0  0  0
 19 24  1  0  0  0  0
  1 25  1  0  0  0  0
  2 26  1  0  0  0  0
  5 27  1  0  0  0  0
  7 28  1  0  0  0  0
  8 29  1  0  0  0  0
  9 30  1  0  0  0  0
 12 31  1  0  0  0  0
 13 32  1  0  0  0  0
 15 33  1  0  0  0  0
 15 34  1  0  0  0  0
 16 35  1  0  0  0  0
 18 36  1  0  0  0  0
 21 37  1  0  0  0  0
 22 38  1  0  0  0  0
 23 39  1  0  0  0  0
 24 40  1  0  0  0  0
M  END
$$$$
