C40H58
APtclcactv06281816433D 0   0.00000     0.00000
 
 98 97  0  0  0  0  0  0  0  0999 V2000
  -14.6791    2.0049    1.4854 C   0  0  0  0  0  0  0  0  0  0  0  0
  -15.2799    2.2587    0.1268 C   0  0  0  0  0  0  0  0  0  0  0  0
  -14.5381    2.1525   -0.9476 C   0  0  0  0  0  0  0  0  0  0  0  0
  -13.1168    1.6639   -0.8367 C   0  0  0  0  0  0  0  0  0  0  0  0
  -12.9125    0.4724   -1.7745 C   0  0  0  0  0  0  0  0  0  0  0  0
  -11.4912   -0.0162   -1.6636 C   0  0  0  0  0  0  0  0  0  0  0  0
  -11.1994   -1.0037   -0.8538 C   0  0  0  0  0  0  0  0  0  0  0  0
   -9.7973   -1.5545   -0.8118 C   0  0  0  0  0  0  0  0  0  0  0  0
   -9.2835   -1.5324    0.6291 C   0  0  0  0  0  0  0  0  0  0  0  0
   -7.8814   -2.0832    0.6711 C   0  0  0  0  0  0  0  0  0  0  0  0
   -6.8355   -1.2527    0.6229 C   0  0  0  0  0  0  0  0  0  0  0  0
   -5.5164   -1.7709    0.6623 C   0  0  0  0  0  0  0  0  0  0  0  0
   -4.4530   -0.9265    0.6133 C   0  0  0  0  0  0  0  0  0  0  0  0
   -3.1448   -1.4405    0.6524 C   0  0  0  0  0  0  0  0  0  0  0  0
   -2.0768   -0.5925    0.6033 C   0  0  0  0  0  0  0  0  0  0  0  0
   -0.7722   -1.1050    0.6423 C   0  0  0  0  0  0  0  0  0  0  0  0
    0.3049   -0.2497    0.5926 C   0  0  0  0  0  0  0  0  0  0  0  0
    1.6082   -0.7617    0.6316 C   0  0  0  0  0  0  0  0  0  0  0  0
    2.6858    0.0940    0.5820 C   0  0  0  0  0  0  0  0  0  0  0  0
    2.4632    1.5813    0.4857 C   0  0  0  0  0  0  0  0  0  0  0  0
    3.9891   -0.4180    0.6209 C   0  0  0  0  0  0  0  0  0  0  0  0
    5.0662    0.4372    0.5713 C   0  0  0  0  0  0  0  0  0  0  0  0
    6.3708   -0.0753    0.6103 C   0  0  0  0  0  0  0  0  0  0  0  0
    7.4388    0.7727    0.5611 C   0  0  0  0  0  0  0  0  0  0  0  0
    7.2161    2.2601    0.4649 C   0  0  0  0  0  0  0  0  0  0  0  0
    8.7469    0.2588    0.6002 C   0  0  0  0  0  0  0  0  0  0  0  0
    9.8104    1.1032    0.5513 C   0  0  0  0  0  0  0  0  0  0  0  0
   11.1295    0.5850    0.5907 C   0  0  0  0  0  0  0  0  0  0  0  0
   12.1754    1.4155    0.5425 C   0  0  0  0  0  0  0  0  0  0  0  0
   11.9527    2.9028    0.4463 C   0  0  0  0  0  0  0  0  0  0  0  0
   13.5775    0.8646    0.5844 C   0  0  0  0  0  0  0  0  0  0  0  0
   14.1049    0.7032   -0.8427 C   0  0  0  0  0  0  0  0  0  0  0  0
   15.5070    0.1524   -0.8008 C   0  0  0  0  0  0  0  0  0  0  0  0
   15.8013   -0.9407   -1.4602 C   0  0  0  0  0  0  0  0  0  0  0  0
   14.7378   -1.6472   -2.2606 C   0  0  0  0  0  0  0  0  0  0  0  0
   17.2034   -1.4915   -1.4183 C   0  0  0  0  0  0  0  0  0  0  0  0
   -2.9221   -2.9278    0.7487 C   0  0  0  0  0  0  0  0  0  0  0  0
   -7.6588   -3.5706    0.7673 C   0  0  0  0  0  0  0  0  0  0  0  0
  -10.4057    0.6311   -2.4844 C   0  0  0  0  0  0  0  0  0  0  0  0
  -16.7342    2.6346    0.0043 C   0  0  0  0  0  0  0  0  0  0  0  0
  -13.8075    2.6449    1.6225 H   0  0  0  0  0  0  0  0  0  0  0  0
  -15.4173    2.2264    2.2562 H   0  0  0  0  0  0  0  0  0  0  0  0
  -14.3780    0.9600    1.5601 H   0  0  0  0  0  0  0  0  0  0  0  0
  -14.9451    2.4151   -1.9129 H   0  0  0  0  0  0  0  0  0  0  0  0
  -12.4339    2.4666   -1.1150 H   0  0  0  0  0  0  0  0  0  0  0  0
  -12.9173    1.3567    0.1899 H   0  0  0  0  0  0  0  0  0  0  0  0
  -13.5954   -0.3303   -1.4962 H   0  0  0  0  0  0  0  0  0  0  0  0
  -13.1120    0.7796   -2.8011 H   0  0  0  0  0  0  0  0  0  0  0  0
  -11.9636   -1.4230   -0.2161 H   0  0  0  0  0  0  0  0  0  0  0  0
   -9.7986   -2.5799   -1.1814 H   0  0  0  0  0  0  0  0  0  0  0  0
   -9.1479   -0.9432   -1.4385 H   0  0  0  0  0  0  0  0  0  0  0  0
   -9.2822   -0.5070    0.9987 H   0  0  0  0  0  0  0  0  0  0  0  0
   -9.9329   -2.1437    1.2558 H   0  0  0  0  0  0  0  0  0  0  0  0
   -6.9950   -0.1868    0.5539 H   0  0  0  0  0  0  0  0  0  0  0  0
   -5.3568   -2.8368    0.7313 H   0  0  0  0  0  0  0  0  0  0  0  0
   -4.6125    0.1394    0.5444 H   0  0  0  0  0  0  0  0  0  0  0  0
   -2.2364    0.4735    0.5343 H   0  0  0  0  0  0  0  0  0  0  0  0
   -0.6127   -2.1709    0.7112 H   0  0  0  0  0  0  0  0  0  0  0  0
    0.1453    0.8162    0.5237 H   0  0  0  0  0  0  0  0  0  0  0  0
    1.7677   -1.8276    0.7006 H   0  0  0  0  0  0  0  0  0  0  0  0
    2.4046    2.0055    1.4881 H   0  0  0  0  0  0  0  0  0  0  0  0
    3.2921    2.0386   -0.0545 H   0  0  0  0  0  0  0  0  0  0  0  0
    1.5317    1.7756   -0.0460 H   0  0  0  0  0  0  0  0  0  0  0  0
    4.1486   -1.4840    0.6899 H   0  0  0  0  0  0  0  0  0  0  0  0
    4.9066    1.5032    0.5024 H   0  0  0  0  0  0  0  0  0  0  0  0
    6.5304   -1.1412    0.6793 H   0  0  0  0  0  0  0  0  0  0  0  0
    7.1575    2.6843    1.4672 H   0  0  0  0  0  0  0  0  0  0  0  0
    8.0450    2.7173   -0.0753 H   0  0  0  0  0  0  0  0  0  0  0  0
    6.2846    2.4543   -0.0669 H   0  0  0  0  0  0  0  0  0  0  0  0
    8.9065   -0.8072    0.6692 H   0  0  0  0  0  0  0  0  0  0  0  0
    9.6508    2.1691    0.4823 H   0  0  0  0  0  0  0  0  0  0  0  0
   11.2890   -0.4810    0.6597 H   0  0  0  0  0  0  0  0  0  0  0  0
   11.8942    3.3271    1.4486 H   0  0  0  0  0  0  0  0  0  0  0  0
   12.7817    3.3601   -0.0939 H   0  0  0  0  0  0  0  0  0  0  0  0
   11.0213    3.0971   -0.0855 H   0  0  0  0  0  0  0  0  0  0  0  0
   14.2213    1.5512    1.1342 H   0  0  0  0  0  0  0  0  0  0  0  0
   13.5721   -0.1053    1.0817 H   0  0  0  0  0  0  0  0  0  0  0  0
   13.4611    0.0167   -1.3925 H   0  0  0  0  0  0  0  0  0  0  0  0
   14.1103    1.6732   -1.3399 H   0  0  0  0  0  0  0  0  0  0  0  0
   16.2692    0.6587   -0.2271 H   0  0  0  0  0  0  0  0  0  0  0  0
   14.3516   -0.9739   -3.0259 H   0  0  0  0  0  0  0  0  0  0  0  0
   15.1667   -2.5295   -2.7358 H   0  0  0  0  0  0  0  0  0  0  0  0
   13.9258   -1.9493   -1.5992 H   0  0  0  0  0  0  0  0  0  0  0  0
   17.2956   -2.1874   -0.5844 H   0  0  0  0  0  0  0  0  0  0  0  0
   17.4172   -2.0124   -2.3516 H   0  0  0  0  0  0  0  0  0  0  0  0
   17.9116   -0.6731   -1.2884 H   0  0  0  0  0  0  0  0  0  0  0  0
   -2.8635   -3.3520   -0.2537 H   0  0  0  0  0  0  0  0  0  0  0  0
   -1.9907   -3.1221    1.2804 H   0  0  0  0  0  0  0  0  0  0  0  0
   -3.7511   -3.3851    1.2889 H   0  0  0  0  0  0  0  0  0  0  0  0
   -7.6002   -3.9948   -0.2350 H   0  0  0  0  0  0  0  0  0  0  0  0
   -6.7273   -3.7649    1.2991 H   0  0  0  0  0  0  0  0  0  0  0  0
   -8.4877   -4.0279    1.3075 H   0  0  0  0  0  0  0  0  0  0  0  0
   -9.9082    1.3970   -1.8895 H   0  0  0  0  0  0  0  0  0  0  0  0
   -9.6793   -0.1236   -2.7860 H   0  0  0  0  0  0  0  0  0  0  0  0
  -10.8445    1.0880   -3.3714 H   0  0  0  0  0  0  0  0  0  0  0  0
  -16.8342    3.7190    0.0496 H   0  0  0  0  0  0  0  0  0  0  0  0
  -17.1239    2.2731   -0.9473 H   0  0  0  0  0  0  0  0  0  0  0  0
  -17.2962    2.1834    0.8221 H   0  0  0  0  0  0  0  0  0  0  0  0
  1  2  1  0  0  0  0
  2  3  2  0  0  0  0
  3  4  1  0  0  0  0
  4  5  1  0  0  0  0
  5  6  1  0  0  0  0
  6  7  2  0  0  0  0
  7  8  1  0  0  0  0
  8  9  1  0  0  0  0
  9 10  1  0  0  0  0
 10 11  2  0  0  0  0
 11 12  1  0  0  0  0
 12 13  2  0  0  0  0
 13 14  1  0  0  0  0
 14 15  2  0  0  0  0
 15 16  1  0  0  0  0
 16 17  2  0  0  0  0
 17 18  1  0  0  0  0
 18 19  2  0  0  0  0
 19 20  1  0  0  0  0
 19 21  1  0  0  0  0
 21 22  2  0  0  0  0
 22 23  1  0  0  0  0
 23 24  2  0  0  0  0
 24 25  1  0  0  0  0
 24 26  1  0  0  0  0
 26 27  2  0  0  0  0
 27 28  1  0  0  0  0
 28 29  2  0  0  0  0
 29 30  1  0  0  0  0
 29 31  1  0  0  0  0
 31 32  1  0  0  0  0
 32 33  1  0  0  0  0
 33 34  2  0  0  0  0
 34 35  1  0  0  0  0
 34 36  1  0  0  0  0
 14 37  1  0  0  0  0
 10 38  1  0  0  0  0
  6 39  1  0  0  0  0
  2 40  1  0  0  0  0
  1 41  1  0  0  0  0
  1 42  1  0  0  0  0
  1 43  1  0  0  0  0
  3 44  1  0  0  0  0
  4 45  1  0  0  0  0
  4 46  1  0  0  0  0
  5 47  1  0  0  0  0
  5 48  1  0  0  0  0
  7 49  1  0  0  0  0
  8 50  1  0  0  0  0
  8 51  1  0  0  0  0
  9 52  1  0  0  0  0
  9 53  1  0  0  0  0
 11 54  1  0  0  0  0
 12 55  1  0  0  0  0
 13 56  1  0  0  0  0
 15 57  1  0  0  0  0
 16 58  1  0  0  0  0
 17 59  1  0  0  0  0
 18 60  1  0  0  0  0
 20 61  1  0  0  0  0
 20 62  1  0  0  0  0
 20 63  1  0  0  0  0
 21 64  1  0  0  0  0
 22 65  1  0  0  0  0
 23 66  1  0  0  0  0
 25 67  1  0  0  0  0
 25 68  1  0  0  0  0
 25 69  1  0  0  0  0
 26 70  1  0  0  0  0
 27 71  1  0  0  0  0
 28 72  1  0  0  0  0
 30 73  1  0  0  0  0
 30 74  1  0  0  0  0
 30 75  1  0  0  0  0
 31 76  1  0  0  0  0
 31 77  1  0  0  0  0
 32 78  1  0  0  0  0
 32 79  1  0  0  0  0
 33 80  1  0  0  0  0
 35 81  1  0  0  0  0
 35 82  1  0  0  0  0
 35 83  1  0  0  0  0
 36 84  1  0  0  0  0
 36 85  1  0  0  0  0
 36 86  1  0  0  0  0
 37 87  1  0  0  0  0
 37 88  1  0  0  0  0
 37 89  1  0  0  0  0
 38 90  1  0  0  0  0
 38 91  1  0  0  0  0
 38 92  1  0  0  0  0
 39 93  1  0  0  0  0
 39 94  1  0  0  0  0
 39 95  1  0  0  0  0
 40 96  1  0  0  0  0
 40 97  1  0  0  0  0
 40 98  1  0  0  0  0
M  END
$$$$
