C33H60O14
APtclcactv06291803143D 0   0.00000     0.00000
 
107108  0  0  0  0  0  0  0  0999 V2000
  -16.8182    5.6079   -0.5929 C   0  0  0  0  0  0  0  0  0  0  0  0
  -16.6546    4.2008   -0.0147 C   0  0  0  0  0  0  0  0  0  0  0  0
  -15.3733    3.5698   -0.5633 C   0  0  0  0  0  0  0  0  0  0  0  0
  -15.2098    2.1627    0.0150 C   0  0  0  0  0  0  0  0  0  0  0  0
  -13.9285    1.5316   -0.5336 C   0  0  0  0  0  0  0  0  0  0  0  0
  -13.7650    0.1246    0.0446 C   0  0  0  0  0  0  0  0  0  0  0  0
  -12.4837   -0.5065   -0.5040 C   0  0  0  0  0  0  0  0  0  0  0  0
  -12.3201   -1.9136    0.0742 C   0  0  0  0  0  0  0  0  0  0  0  0
  -11.0581   -2.5352   -0.4661 C   0  0  0  0  0  0  0  0  0  0  0  0
  -10.1498   -2.9954    0.3580 C   0  0  0  0  0  0  0  0  0  0  0  0
   -8.8878   -3.6170   -0.1823 C   0  0  0  0  0  0  0  0  0  0  0  0
   -7.6723   -2.9079    0.4184 C   0  0  0  0  0  0  0  0  0  0  0  0
   -6.3911   -3.5390   -0.1302 C   0  0  0  0  0  0  0  0  0  0  0  0
   -5.1756   -2.8300    0.4705 C   0  0  0  0  0  0  0  0  0  0  0  0
   -3.8943   -3.4610   -0.0781 C   0  0  0  0  0  0  0  0  0  0  0  0
   -2.6789   -2.7520    0.5226 C   0  0  0  0  0  0  0  0  0  0  0  0
   -1.3976   -3.3831   -0.0260 C   0  0  0  0  0  0  0  0  0  0  0  0
   -0.2005   -2.6846    0.5656 C   0  0  0  0  0  0  0  0  0  0  0  0
   -0.3561   -1.7754    1.3460 O   0  0  0  0  0  0  0  0  0  0  0  0
    1.0387   -3.0726    0.2257 O   0  0  0  0  0  0  0  0  0  0  0  0
    2.1445   -2.3550    0.8344 C   0  0  0  0  0  0  0  0  0  0  0  0
    3.4678   -2.9341    0.3301 C   0  0  0  0  0  0  0  0  0  0  0  0
    4.6296   -2.0997    0.8730 C   0  0  0  0  0  0  0  0  0  0  0  0
    5.8565   -2.5682    0.3098 O   0  0  0  0  0  0  0  0  0  0  0  0
    7.0107   -1.8522    0.7540 C   0  0  0  0  0  0  0  0  0  0  0  0
    8.2705   -2.5137    0.1891 C   0  0  0  0  0  0  0  0  0  0  0  0
    8.2360   -2.4371   -1.3403 C   0  0  0  0  0  0  0  0  0  0  0  0
    8.1095   -0.9706   -1.7644 C   0  0  0  0  0  0  0  0  0  0  0  0
    6.8559   -0.3687   -1.1241 C   0  0  0  0  0  0  0  0  0  0  0  0
    6.9382   -0.5003    0.2965 O   0  0  0  0  0  0  0  0  0  0  0  0
    6.7549    1.1124   -1.4942 C   0  0  0  0  0  0  0  0  0  0  0  0
    5.5268    1.6455   -0.9947 O   0  0  0  0  0  0  0  0  0  0  0  0
    5.3325    3.0306   -1.2878 C   0  0  0  0  0  0  0  0  0  0  0  0
    3.9403    3.4613   -0.8188 C   0  0  0  0  0  0  0  0  0  0  0  0
    3.8463    3.2901    0.7005 C   0  0  0  0  0  0  0  0  0  0  0  0
    4.9612    4.1038    1.3649 C   0  0  0  0  0  0  0  0  0  0  0  0
    6.3139    3.6482    0.8115 C   0  0  0  0  0  0  0  0  0  0  0  0
    6.3232    3.8050   -0.6089 O   0  0  0  0  0  0  0  0  0  0  0  0
    7.4286    4.4973    1.4258 C   0  0  0  0  0  0  0  0  0  0  0  0
    8.6978    3.9976    0.9999 O   0  0  0  0  0  0  0  0  0  0  0  0
    4.7726    5.4918    1.0824 O   0  0  0  0  0  0  0  0  0  0  0  0
    2.5757    3.7587    1.1566 O   0  0  0  0  0  0  0  0  0  0  0  0
    3.7247    4.8323   -1.1591 O   0  0  0  0  0  0  0  0  0  0  0  0
    9.2623   -0.2466   -1.3297 O   0  0  0  0  0  0  0  0  0  0  0  0
    9.4425   -2.9865   -1.8738 O   0  0  0  0  0  0  0  0  0  0  0  0
    9.4276   -1.8306    0.6755 O   0  0  0  0  0  0  0  0  0  0  0  0
    3.5994   -4.2839    0.7805 O   0  0  0  0  0  0  0  0  0  0  0  0
  -15.9616    6.2192   -0.3089 H   0  0  0  0  0  0  0  0  0  0  0  0
  -16.8784    5.5494   -1.6797 H   0  0  0  0  0  0  0  0  0  0  0  0
  -17.7310    6.0575   -0.2021 H   0  0  0  0  0  0  0  0  0  0  0  0
  -16.5943    4.2594    1.0721 H   0  0  0  0  0  0  0  0  0  0  0  0
  -17.5112    3.5895   -0.2987 H   0  0  0  0  0  0  0  0  0  0  0  0
  -15.4336    3.5112   -1.6500 H   0  0  0  0  0  0  0  0  0  0  0  0
  -14.5168    4.1811   -0.2793 H   0  0  0  0  0  0  0  0  0  0  0  0
  -15.1495    2.2212    1.1017 H   0  0  0  0  0  0  0  0  0  0  0  0
  -16.0664    1.5514   -0.2690 H   0  0  0  0  0  0  0  0  0  0  0  0
  -13.9888    1.4731   -1.6204 H   0  0  0  0  0  0  0  0  0  0  0  0
  -13.0719    2.1430   -0.2497 H   0  0  0  0  0  0  0  0  0  0  0  0
  -13.7047    0.1831    1.1314 H   0  0  0  0  0  0  0  0  0  0  0  0
  -14.6215   -0.4868   -0.2394 H   0  0  0  0  0  0  0  0  0  0  0  0
  -12.5440   -0.5650   -1.5908 H   0  0  0  0  0  0  0  0  0  0  0  0
  -11.6271    0.1048   -0.2200 H   0  0  0  0  0  0  0  0  0  0  0  0
  -12.2599   -1.8550    1.1610 H   0  0  0  0  0  0  0  0  0  0  0  0
  -13.1767   -2.5249   -0.2098 H   0  0  0  0  0  0  0  0  0  0  0  0
  -10.9025   -2.6012   -1.5328 H   0  0  0  0  0  0  0  0  0  0  0  0
  -10.3054   -2.9294    1.4247 H   0  0  0  0  0  0  0  0  0  0  0  0
   -8.8603   -4.6736    0.0840 H   0  0  0  0  0  0  0  0  0  0  0  0
   -8.8683   -3.5151   -1.2674 H   0  0  0  0  0  0  0  0  0  0  0  0
   -7.6998   -1.8513    0.1521 H   0  0  0  0  0  0  0  0  0  0  0  0
   -7.6918   -3.0098    1.5034 H   0  0  0  0  0  0  0  0  0  0  0  0
   -6.3636   -4.5956    0.1361 H   0  0  0  0  0  0  0  0  0  0  0  0
   -6.3716   -3.4372   -1.2153 H   0  0  0  0  0  0  0  0  0  0  0  0
   -5.2031   -1.7733    0.2042 H   0  0  0  0  0  0  0  0  0  0  0  0
   -5.1951   -2.9318    1.5555 H   0  0  0  0  0  0  0  0  0  0  0  0
   -3.8669   -4.5177    0.1882 H   0  0  0  0  0  0  0  0  0  0  0  0
   -3.8749   -3.3592   -1.1632 H   0  0  0  0  0  0  0  0  0  0  0  0
   -2.7064   -1.6954    0.2563 H   0  0  0  0  0  0  0  0  0  0  0  0
   -2.6984   -2.8538    1.6076 H   0  0  0  0  0  0  0  0  0  0  0  0
   -1.3702   -4.4397    0.2403 H   0  0  0  0  0  0  0  0  0  0  0  0
   -1.3782   -3.2812   -1.1111 H   0  0  0  0  0  0  0  0  0  0  0  0
    2.0842   -1.3000    0.5669 H   0  0  0  0  0  0  0  0  0  0  0  0
    2.0921   -2.4585    1.9182 H   0  0  0  0  0  0  0  0  0  0  0  0
    3.4824   -2.9117   -0.7596 H   0  0  0  0  0  0  0  0  0  0  0  0
    4.4824   -1.0537    0.6041 H   0  0  0  0  0  0  0  0  0  0  0  0
    4.6686   -2.1938    1.9582 H   0  0  0  0  0  0  0  0  0  0  0  0
    7.0501   -1.8660    1.8432 H   0  0  0  0  0  0  0  0  0  0  0  0
    8.3048   -3.5576    0.5008 H   0  0  0  0  0  0  0  0  0  0  0  0
    7.3808   -2.9999   -1.7145 H   0  0  0  0  0  0  0  0  0  0  0  0
    8.0286   -0.9109   -2.8497 H   0  0  0  0  0  0  0  0  0  0  0  0
    5.9735   -0.8954   -1.4874 H   0  0  0  0  0  0  0  0  0  0  0  0
    7.5919    1.6547   -1.0545 H   0  0  0  0  0  0  0  0  0  0  0  0
    6.7826    1.2186   -2.5787 H   0  0  0  0  0  0  0  0  0  0  0  0
    5.4195    3.1903   -2.3626 H   0  0  0  0  0  0  0  0  0  0  0  0
    3.1851    2.8418   -1.3025 H   0  0  0  0  0  0  0  0  0  0  0  0
    3.9614    2.2369    0.9566 H   0  0  0  0  0  0  0  0  0  0  0  0
    4.9360    3.9438    2.4428 H   0  0  0  0  0  0  0  0  0  0  0  0
    6.4749    2.5998    1.0626 H   0  0  0  0  0  0  0  0  0  0  0  0
    7.3180    5.5320    1.1013 H   0  0  0  0  0  0  0  0  0  0  0  0
    7.3652    4.4487    2.5129 H   0  0  0  0  0  0  0  0  0  0  0  0
    9.4524    4.4892    1.3519 H   0  0  0  0  0  0  0  0  0  0  0  0
    3.9317    5.8474    1.4012 H   0  0  0  0  0  0  0  0  0  0  0  0
    1.8224    3.2914    0.7704 H   0  0  0  0  0  0  0  0  0  0  0  0
    3.7749    5.0148   -2.1074 H   0  0  0  0  0  0  0  0  0  0  0  0
   10.0949   -0.5776   -1.6936 H   0  0  0  0  0  0  0  0  0  0  0  0
    9.5906   -3.9127   -1.6385 H   0  0  0  0  0  0  0  0  0  0  0  0
    9.5110   -1.8351    1.6389 H   0  0  0  0  0  0  0  0  0  0  0  0
    3.5943   -4.3797    1.7427 H   0  0  0  0  0  0  0  0  0  0  0  0
  1  2  1  0  0  0  0
  2  3  1  0  0  0  0
  3  4  1  0  0  0  0
  4  5  1  0  0  0  0
  5  6  1  0  0  0  0
  6  7  1  0  0  0  0
  7  8  1  0  0  0  0
  8  9  1  0  0  0  0
  9 10  2  0  0  0  0
 10 11  1  0  0  0  0
 11 12  1  0  0  0  0
 12 13  1  0  0  0  0
 13 14  1  0  0  0  0
 14 15  1  0  0  0  0
 15 16  1  0  0  0  0
 16 17  1  0  0  0  0
 17 18  1  0  0  0  0
 18 19  2  0  0  0  0
 18 20  1  0  0  0  0
 20 21  1  0  0  0  0
 21 22  1  0  0  0  0
 22 23  1  0  0  0  0
 23 24  1  0  0  0  0
 24 25  1  0  0  0  0
 25 26  1  0  0  0  0
 26 27  1  0  0  0  0
 27 28  1  0  0  0  0
 28 29  1  0  0  0  0
 29 30  1  0  0  0  0
 25 30  1  0  0  0  0
 29 31  1  0  0  0  0
 31 32  1  0  0  0  0
 32 33  1  0  0  0  0
 33 34  1  0  0  0  0
 34 35  1  0  0  0  0
 35 36  1  0  0  0  0
 36 37  1  0  0  0  0
 37 38  1  0  0  0  0
 33 38  1  0  0  0  0
 37 39  1  0  0  0  0
 39 40  1  0  0  0  0
 36 41  1  0  0  0  0
 35 42  1  0  0  0  0
 34 43  1  0  0  0  0
 28 44  1  0  0  0  0
 27 45  1  0  0  0  0
 26 46  1  0  0  0  0
 22 47  1  0  0  0  0
  1 48  1  0  0  0  0
  1 49  1  0  0  0  0
  1 50  1  0  0  0  0
  2 51  1  0  0  0  0
  2 52  1  0  0  0  0
  3 53  1  0  0  0  0
  3 54  1  0  0  0  0
  4 55  1  0  0  0  0
  4 56  1  0  0  0  0
  5 57  1  0  0  0  0
  5 58  1  0  0  0  0
  6 59  1  0  0  0  0
  6 60  1  0  0  0  0
  7 61  1  0  0  0  0
  7 62  1  0  0  0  0
  8 63  1  0  0  0  0
  8 64  1  0  0  0  0
  9 65  1  0  0  0  0
 10 66  1  0  0  0  0
 11 67  1  0  0  0  0
 11 68  1  0  0  0  0
 12 69  1  0  0  0  0
 12 70  1  0  0  0  0
 13 71  1  0  0  0  0
 13 72  1  0  0  0  0
 14 73  1  0  0  0  0
 14 74  1  0  0  0  0
 15 75  1  0  0  0  0
 15 76  1  0  0  0  0
 16 77  1  0  0  0  0
 16 78  1  0  0  0  0
 17 79  1  0  0  0  0
 17 80  1  0  0  0  0
 21 81  1  0  0  0  0
 21 82  1  0  0  0  0
 22 83  1  0  0  0  0
 23 84  1  0  0  0  0
 23 85  1  0  0  0  0
 25 86  1  0  0  0  0
 26 87  1  0  0  0  0
 27 88  1  0  0  0  0
 28 89  1  0  0  0  0
 29 90  1  0  0  0  0
 31 91  1  0  0  0  0
 31 92  1  0  0  0  0
 33 93  1  0  0  0  0
 34 94  1  0  0  0  0
 35 95  1  0  0  0  0
 36 96  1  0  0  0  0
 37 97  1  0  0  0  0
 39 98  1  0  0  0  0
 39 99  1  0  0  0  0
 40100  1  0  0  0  0
 41101  1  0  0  0  0
 42102  1  0  0  0  0
 43103  1  0  0  0  0
 44104  1  0  0  0  0
 45105  1  0  0  0  0
 46106  1  0  0  0  0
 47107  1  0  0  0  0
M  END
$$$$
