C44H50O25
APtclcactv06291803083D 0   0.00000     0.00000
 
119125  0  0  0  0  0  0  0  0999 V2000
   10.6102    2.3029   -2.3678 C   0  0  0  0  0  0  0  0  0  0  0  0
   10.0757    3.0867   -1.2992 O   0  0  0  0  0  0  0  0  0  0  0  0
    8.8889    2.6835   -0.7715 C   0  0  0  0  0  0  0  0  0  0  0  0
    8.3106    3.4028    0.2739 C   0  0  0  0  0  0  0  0  0  0  0  0
    7.0989    2.9949    0.8159 C   0  0  0  0  0  0  0  0  0  0  0  0
    6.4615    1.8775    0.3239 C   0  0  0  0  0  0  0  0  0  0  0  0
    7.0352    1.1504   -0.7256 C   0  0  0  0  0  0  0  0  0  0  0  0
    8.2541    1.5653   -1.2748 C   0  0  0  0  0  0  0  0  0  0  0  0
    6.3574   -0.0423   -1.2527 C   0  0  0  0  0  0  0  0  0  0  0  0
    5.1788   -0.4384   -0.7243 C   0  0  0  0  0  0  0  0  0  0  0  0
    4.5250   -1.5890   -1.2328 C   0  0  0  0  0  0  0  0  0  0  0  0
    5.0251   -2.2197   -2.1449 O   0  0  0  0  0  0  0  0  0  0  0  0
    3.3478   -1.9846   -0.7050 O   0  0  0  0  0  0  0  0  0  0  0  0
    2.7451   -3.1525   -1.2661 C   0  0  0  0  0  0  0  0  0  0  0  0
    1.9260   -3.8728   -0.1906 C   0  0  0  0  0  0  0  0  0  0  0  0
    1.2226   -5.0782   -0.8220 C   0  0  0  0  0  0  0  0  0  0  0  0
    0.3555   -4.5994   -1.9893 C   0  0  0  0  0  0  0  0  0  0  0  0
    1.1735   -3.9114   -2.9378 O   0  0  0  0  0  0  0  0  0  0  0  0
    1.8192   -2.7481   -2.4162 C   0  0  0  0  0  0  0  0  0  0  0  0
    0.8340   -1.8316   -1.9351 O   0  0  0  0  0  0  0  0  0  0  0  0
   -0.0158   -1.3033   -2.9553 C   0  0  0  0  0  0  0  0  0  0  0  0
   -1.0258   -0.3395   -2.3293 C   0  0  0  0  0  0  0  0  0  0  0  0
   -1.8540    0.3210   -3.4346 C   0  0  0  0  0  0  0  0  0  0  0  0
   -2.9023    1.2382   -2.7974 C   0  0  0  0  0  0  0  0  0  0  0  0
   -3.7664    0.4169   -1.8355 C   0  0  0  0  0  0  0  0  0  0  0  0
   -2.8643   -0.2472   -0.7920 C   0  0  0  0  0  0  0  0  0  0  0  0
   -1.8933   -1.0614   -1.4527 O   0  0  0  0  0  0  0  0  0  0  0  0
   -2.2001    0.7598   -0.0260 O   0  0  0  0  0  0  0  0  0  0  0  0
   -1.5768    0.3576    1.1149 C   0  0  0  0  0  0  0  0  0  0  0  0
   -0.9836    1.2723    1.9325 C   0  0  0  0  0  0  0  0  0  0  0  0
   -0.3564    0.9239    3.0689 O   0  0  0  0  0  0  0  0  0  0  0  0
   -0.2696   -0.3587    3.4814 C   0  0  0  0  0  0  0  0  0  0  0  0
    0.3852   -0.6806    4.6604 C   0  0  0  0  0  0  0  0  0  0  0  0
    0.4663   -2.0013    5.0719 C   0  0  0  0  0  0  0  0  0  0  0  0
   -0.1061   -3.0185    4.3103 C   0  0  0  0  0  0  0  0  0  0  0  0
   -0.7640   -2.7155    3.1292 C   0  0  0  0  0  0  0  0  0  0  0  0
   -0.8487   -1.3821    2.7100 C   0  0  0  0  0  0  0  0  0  0  0  0
   -1.5443   -1.0167    1.4656 C   0  0  0  0  0  0  0  0  0  0  0  0
   -2.0687   -1.8637    0.7600 O   0  0  0  0  0  0  0  0  0  0  0  0
   -1.3232   -3.7042    2.3842 O   0  0  0  0  0  0  0  0  0  0  0  0
   -0.0184   -4.3116    4.7273 O   0  0  0  0  0  0  0  0  0  0  0  0
   -1.0678   -4.7947    5.5684 C   0  0  0  0  0  0  0  0  0  0  0  0
    1.1102   -2.3075    6.2282 O   0  0  0  0  0  0  0  0  0  0  0  0
   -1.0314    2.6972    1.5562 C   0  0  0  0  0  0  0  0  0  0  0  0
    0.1313    3.4719    1.5968 C   0  0  0  0  0  0  0  0  0  0  0  0
    0.0809    4.8067    1.2432 C   0  0  0  0  0  0  0  0  0  0  0  0
   -1.1273    5.3778    0.8476 C   0  0  0  0  0  0  0  0  0  0  0  0
   -2.2820    4.6088    0.8071 C   0  0  0  0  0  0  0  0  0  0  0  0
   -2.2383    3.2751    1.1525 C   0  0  0  0  0  0  0  0  0  0  0  0
   -1.1750    6.6908    0.5010 O   0  0  0  0  0  0  0  0  0  0  0  0
    1.2103    5.5634    1.2816 O   0  0  0  0  0  0  0  0  0  0  0  0
    2.4131    4.9131    1.6969 C   0  0  0  0  0  0  0  0  0  0  0  0
   -4.7013    1.2767   -1.1807 O   0  0  0  0  0  0  0  0  0  0  0  0
   -5.9277    0.6366   -0.8228 C   0  0  0  0  0  0  0  0  0  0  0  0
   -6.8104    1.6089   -0.0165 C   0  0  0  0  0  0  0  0  0  0  0  0
   -8.1146    1.7126   -0.8442 C   0  0  0  0  0  0  0  0  0  0  0  0
   -8.0605    0.4206   -1.6986 C   0  0  0  0  0  0  0  0  0  0  0  0
   -6.6575    0.2804   -2.0089 O   0  0  0  0  0  0  0  0  0  0  0  0
   -9.3422    1.7124    0.0690 C   0  0  0  0  0  0  0  0  0  0  0  0
  -10.5284    1.6915   -0.7277 O   0  0  0  0  0  0  0  0  0  0  0  0
   -8.0999    2.8748   -1.6755 O   0  0  0  0  0  0  0  0  0  0  0  0
   -7.0829    1.0776    1.2818 O   0  0  0  0  0  0  0  0  0  0  0  0
   -2.2476    2.2845   -2.0771 O   0  0  0  0  0  0  0  0  0  0  0  0
   -0.9959    1.0908   -4.2790 O   0  0  0  0  0  0  0  0  0  0  0  0
   -0.3036   -5.8045   -2.6632 C   0  0  0  0  0  0  0  0  0  0  0  0
   -1.2026   -5.3506   -3.6770 O   0  0  0  0  0  0  0  0  0  0  0  0
    2.1998   -6.0041   -1.3014 O   0  0  0  0  0  0  0  0  0  0  0  0
    2.7944   -4.3187    0.8530 O   0  0  0  0  0  0  0  0  0  0  0  0
    8.9346    4.5052    0.7637 O   0  0  0  0  0  0  0  0  0  0  0  0
   11.5568    2.7328   -2.6955 H   0  0  0  0  0  0  0  0  0  0  0  0
   10.7748    1.2822   -2.0227 H   0  0  0  0  0  0  0  0  0  0  0  0
    9.9068    2.2960   -3.2004 H   0  0  0  0  0  0  0  0  0  0  0  0
    6.6553    3.5552    1.6257 H   0  0  0  0  0  0  0  0  0  0  0  0
    5.5195    1.5622    0.7478 H   0  0  0  0  0  0  0  0  0  0  0  0
    8.7007    1.0079   -2.0849 H   0  0  0  0  0  0  0  0  0  0  0  0
    6.8015   -0.6022   -2.0625 H   0  0  0  0  0  0  0  0  0  0  0  0
    4.7348    0.1215    0.0855 H   0  0  0  0  0  0  0  0  0  0  0  0
    3.5219   -3.8195   -1.6399 H   0  0  0  0  0  0  0  0  0  0  0  0
    1.1818   -3.1899    0.2193 H   0  0  0  0  0  0  0  0  0  0  0  0
    0.5935   -5.5645   -0.0765 H   0  0  0  0  0  0  0  0  0  0  0  0
   -0.4151   -3.9245   -1.6168 H   0  0  0  0  0  0  0  0  0  0  0  0
    2.4040   -2.2730   -3.2038 H   0  0  0  0  0  0  0  0  0  0  0  0
    0.5871   -0.7706   -3.6907 H   0  0  0  0  0  0  0  0  0  0  0  0
   -0.5475   -2.1197   -3.4441 H   0  0  0  0  0  0  0  0  0  0  0  0
   -0.4950    0.4274   -1.7653 H   0  0  0  0  0  0  0  0  0  0  0  0
   -2.3530   -0.4478   -4.0245 H   0  0  0  0  0  0  0  0  0  0  0  0
   -3.5319    1.6686   -3.5762 H   0  0  0  0  0  0  0  0  0  0  0  0
   -4.3040   -0.3499   -2.3932 H   0  0  0  0  0  0  0  0  0  0  0  0
   -3.4692   -0.8674   -0.1306 H   0  0  0  0  0  0  0  0  0  0  0  0
    0.8330    0.0991    5.2587 H   0  0  0  0  0  0  0  0  0  0  0  0
   -2.2423   -3.8978    2.6140 H   0  0  0  0  0  0  0  0  0  0  0  0
   -0.8757   -5.8359    5.8273 H   0  0  0  0  0  0  0  0  0  0  0  0
   -1.1090   -4.1957    6.4782 H   0  0  0  0  0  0  0  0  0  0  0  0
   -2.0190   -4.7208    5.0413 H   0  0  0  0  0  0  0  0  0  0  0  0
    0.5397   -2.3036    7.0089 H   0  0  0  0  0  0  0  0  0  0  0  0
    1.0668    3.0284    1.9042 H   0  0  0  0  0  0  0  0  0  0  0  0
   -3.2162    5.0555    0.5003 H   0  0  0  0  0  0  0  0  0  0  0  0
   -3.1382    2.6790    1.1198 H   0  0  0  0  0  0  0  0  0  0  0  0
   -1.0157    6.8556   -0.4384 H   0  0  0  0  0  0  0  0  0  0  0  0
    2.6347    4.0904    1.0171 H   0  0  0  0  0  0  0  0  0  0  0  0
    3.2360    5.6278    1.6829 H   0  0  0  0  0  0  0  0  0  0  0  0
    2.2860    4.5251    2.7076 H   0  0  0  0  0  0  0  0  0  0  0  0
   -5.7213   -0.2547   -0.2303 H   0  0  0  0  0  0  0  0  0  0  0  0
   -6.3301    2.5841    0.0625 H   0  0  0  0  0  0  0  0  0  0  0  0
   -8.4137   -0.4352   -1.1232 H   0  0  0  0  0  0  0  0  0  0  0  0
   -8.6454    0.5389   -2.6108 H   0  0  0  0  0  0  0  0  0  0  0  0
   -9.3188    0.8304    0.7090 H   0  0  0  0  0  0  0  0  0  0  0  0
   -9.3354    2.6101    0.6871 H   0  0  0  0  0  0  0  0  0  0  0  0
  -11.3474    1.6902   -0.2136 H   0  0  0  0  0  0  0  0  0  0  0  0
   -8.8959    2.9836   -2.2136 H   0  0  0  0  0  0  0  0  0  0  0  0
   -6.2938    0.9368    1.8227 H   0  0  0  0  0  0  0  0  0  0  0  0
   -1.6770    2.8413   -2.6243 H   0  0  0  0  0  0  0  0  0  0  0  0
   -1.4548    1.5383   -5.0030 H   0  0  0  0  0  0  0  0  0  0  0  0
    0.4640   -6.4338   -3.1135 H   0  0  0  0  0  0  0  0  0  0  0  0
   -0.8551   -6.3799   -1.9197 H   0  0  0  0  0  0  0  0  0  0  0  0
   -1.6572   -6.0629   -4.1472 H   0  0  0  0  0  0  0  0  0  0  0  0
    1.8242   -6.7936   -1.7147 H   0  0  0  0  0  0  0  0  0  0  0  0
    2.3415   -4.7844    1.5694 H   0  0  0  0  0  0  0  0  0  0  0  0
    8.6847    5.3279    0.3210 H   0  0  0  0  0  0  0  0  0  0  0  0
  1  2  1  0  0  0  0
  2  3  1  0  0  0  0
  3  4  2  0  0  0  0
  4  5  1  0  0  0  0
  5  6  2  0  0  0  0
  6  7  1  0  0  0  0
  7  8  2  0  0  0  0
  3  8  1  0  0  0  0
  7  9  1  0  0  0  0
  9 10  2  0  0  0  0
 10 11  1  0  0  0  0
 11 12  2  0  0  0  0
 11 13  1  0  0  0  0
 13 14  1  0  0  0  0
 14 15  1  0  0  0  0
 15 16  1  0  0  0  0
 16 17  1  0  0  0  0
 17 18  1  0  0  0  0
 18 19  1  0  0  0  0
 14 19  1  0  0  0  0
 19 20  1  0  0  0  0
 20 21  1  0  0  0  0
 21 22  1  0  0  0  0
 22 23  1  0  0  0  0
 23 24  1  0  0  0  0
 24 25  1  0  0  0  0
 25 26  1  0  0  0  0
 26 27  1  0  0  0  0
 22 27  1  0  0  0  0
 26 28  1  0  0  0  0
 28 29  1  0  0  0  0
 29 30  2  0  0  0  0
 30 31  1  0  0  0  0
 31 32  1  0  0  0  0
 32 33  2  0  0  0  0
 33 34  1  0  0  0  0
 34 35  2  0  0  0  0
 35 36  1  0  0  0  0
 36 37  2  0  0  0  0
 32 37  1  0  0  0  0
 37 38  1  0  0  0  0
 29 38  1  0  0  0  0
 38 39  2  0  0  0  0
 36 40  1  0  0  0  0
 35 41  1  0  0  0  0
 41 42  1  0  0  0  0
 34 43  1  0  0  0  0
 30 44  1  0  0  0  0
 44 45  2  0  0  0  0
 45 46  1  0  0  0  0
 46 47  2  0  0  0  0
 47 48  1  0  0  0  0
 48 49  2  0  0  0  0
 44 49  1  0  0  0  0
 47 50  1  0  0  0  0
 46 51  1  0  0  0  0
 51 52  1  0  0  0  0
 25 53  1  0  0  0  0
 53 54  1  0  0  0  0
 54 55  1  0  0  0  0
 55 56  1  0  0  0  0
 56 57  1  0  0  0  0
 57 58  1  0  0  0  0
 54 58  1  0  0  0  0
 56 59  1  0  0  0  0
 59 60  1  0  0  0  0
 56 61  1  0  0  0  0
 55 62  1  0  0  0  0
 24 63  1  0  0  0  0
 23 64  1  0  0  0  0
 17 65  1  0  0  0  0
 65 66  1  0  0  0  0
 16 67  1  0  0  0  0
 15 68  1  0  0  0  0
  4 69  1  0  0  0  0
  1 70  1  0  0  0  0
  1 71  1  0  0  0  0
  1 72  1  0  0  0  0
  5 73  1  0  0  0  0
  6 74  1  0  0  0  0
  8 75  1  0  0  0  0
  9 76  1  0  0  0  0
 10 77  1  0  0  0  0
 14 78  1  0  0  0  0
 15 79  1  0  0  0  0
 16 80  1  0  0  0  0
 17 81  1  0  0  0  0
 19 82  1  0  0  0  0
 21 83  1  0  0  0  0
 21 84  1  0  0  0  0
 22 85  1  0  0  0  0
 23 86  1  0  0  0  0
 24 87  1  0  0  0  0
 25 88  1  0  0  0  0
 26 89  1  0  0  0  0
 33 90  1  0  0  0  0
 40 91  1  0  0  0  0
 42 92  1  0  0  0  0
 42 93  1  0  0  0  0
 42 94  1  0  0  0  0
 43 95  1  0  0  0  0
 45 96  1  0  0  0  0
 48 97  1  0  0  0  0
 49 98  1  0  0  0  0
 50 99  1  0  0  0  0
 52100  1  0  0  0  0
 52101  1  0  0  0  0
 52102  1  0  0  0  0
 54103  1  0  0  0  0
 55104  1  0  0  0  0
 57105  1  0  0  0  0
 57106  1  0  0  0  0
 59107  1  0  0  0  0
 59108  1  0  0  0  0
 60109  1  0  0  0  0
 61110  1  0  0  0  0
 62111  1  0  0  0  0
 63112  1  0  0  0  0
 64113  1  0  0  0  0
 65114  1  0  0  0  0
 65115  1  0  0  0  0
 66116  1  0  0  0  0
 67117  1  0  0  0  0
 68118  1  0  0  0  0
 69119  1  0  0  0  0
M  END
$$$$
