C15H14O10
APtclcactv06291803133D 0   0.00000     0.00000
 
 39 39  0  0  0  0  0  0  0  0999 V2000
   -4.2211   -0.8581    0.5228 C   0  0  0  0  0  0  0  0  0  0  0  0
   -5.4388   -1.4375    0.7991 C   0  0  0  0  0  0  0  0  0  0  0  0
   -6.6110   -0.8545    0.3310 C   0  0  0  0  0  0  0  0  0  0  0  0
   -6.5602    0.3158   -0.4180 C   0  0  0  0  0  0  0  0  0  0  0  0
   -5.3477    0.9032   -0.6999 C   0  0  0  0  0  0  0  0  0  0  0  0
   -4.1644    0.3205   -0.2306 C   0  0  0  0  0  0  0  0  0  0  0  0
   -2.8672    0.9437   -0.5281 C   0  0  0  0  0  0  0  0  0  0  0  0
   -1.7268    0.3794   -0.0741 C   0  0  0  0  0  0  0  0  0  0  0  0
   -0.4753    0.9806   -0.3612 C   0  0  0  0  0  0  0  0  0  0  0  0
   -0.4284    2.0045   -1.0163 O   0  0  0  0  0  0  0  0  0  0  0  0
    0.6638    0.4171    0.0923 O   0  0  0  0  0  0  0  0  0  0  0  0
    1.8887    1.0765   -0.2344 C   0  0  0  0  0  0  0  0  0  0  0  0
    2.2242    2.0755    0.8428 C   0  0  0  0  0  0  0  0  0  0  0  0
    1.5396    2.1458    1.8360 O   0  0  0  0  0  0  0  0  0  0  0  0
    3.2836    2.8872    0.6991 O   0  0  0  0  0  0  0  0  0  0  0  0
    3.0120    0.0431   -0.3395 C   0  0  0  0  0  0  0  0  0  0  0  0
    3.1646   -0.6822    0.9990 C   0  0  0  0  0  0  0  0  0  0  0  0
    4.2710   -1.7000    0.8956 C   0  0  0  0  0  0  0  0  0  0  0  0
    4.8756   -1.8318   -0.1423 O   0  0  0  0  0  0  0  0  0  0  0  0
    4.5850   -2.4603    1.9563 O   0  0  0  0  0  0  0  0  0  0  0  0
    2.6765   -0.9558   -1.4168 C   0  0  0  0  0  0  0  0  0  0  0  0
    3.4109   -1.0893   -2.3668 O   0  0  0  0  0  0  0  0  0  0  0  0
    1.5617   -1.6973   -1.3208 O   0  0  0  0  0  0  0  0  0  0  0  0
    4.2369    0.7026   -0.6662 O   0  0  0  0  0  0  0  0  0  0  0  0
   -7.8091   -1.4300    0.6059 O   0  0  0  0  0  0  0  0  0  0  0  0
   -3.3114   -1.3095    0.8903 H   0  0  0  0  0  0  0  0  0  0  0  0
   -5.4837   -2.3467    1.3802 H   0  0  0  0  0  0  0  0  0  0  0  0
   -7.4736    0.7644   -0.7795 H   0  0  0  0  0  0  0  0  0  0  0  0
   -5.3092    1.8121   -1.2821 H   0  0  0  0  0  0  0  0  0  0  0  0
   -2.8255    1.8527   -1.1098 H   0  0  0  0  0  0  0  0  0  0  0  0
   -1.7684   -0.5296    0.5075 H   0  0  0  0  0  0  0  0  0  0  0  0
    1.7800    1.5933   -1.1880 H   0  0  0  0  0  0  0  0  0  0  0  0
    3.4590    3.5113    1.4166 H   0  0  0  0  0  0  0  0  0  0  0  0
    3.4072    0.0404    1.7782 H   0  0  0  0  0  0  0  0  0  0  0  0
    2.2302   -1.1852    1.2482 H   0  0  0  0  0  0  0  0  0  0  0  0
    5.3018   -3.0991    1.8419 H   0  0  0  0  0  0  0  0  0  0  0  0
    1.3887   -2.3245   -2.0362 H   0  0  0  0  0  0  0  0  0  0  0  0
    4.5149    1.3611   -0.0149 H   0  0  0  0  0  0  0  0  0  0  0  0
   -8.2152   -1.1201    1.4269 H   0  0  0  0  0  0  0  0  0  0  0  0
  1  2  2  0  0  0  0
  2  3  1  0  0  0  0
  3  4  2  0  0  0  0
  4  5  1  0  0  0  0
  5  6  2  0  0  0  0
  1  6  1  0  0  0  0
  6  7  1  0  0  0  0
  7  8  2  0  0  0  0
  8  9  1  0  0  0  0
  9 10  2  0  0  0  0
  9 11  1  0  0  0  0
 11 12  1  0  0  0  0
 12 13  1  0  0  0  0
 13 14  2  0  0  0  0
 13 15  1  0  0  0  0
 12 16  1  0  0  0  0
 16 17  1  0  0  0  0
 17 18  1  0  0  0  0
 18 19  2  0  0  0  0
 18 20  1  0  0  0  0
 16 21  1  0  0  0  0
 21 22  2  0  0  0  0
 21 23  1  0  0  0  0
 16 24  1  0  0  0  0
  3 25  1  0  0  0  0
  1 26  1  0  0  0  0
  2 27  1  0  0  0  0
  4 28  1  0  0  0  0
  5 29  1  0  0  0  0
  7 30  1  0  0  0  0
  8 31  1  0  0  0  0
 12 32  1  0  0  0  0
 15 33  1  0  0  0  0
 17 34  1  0  0  0  0
 17 35  1  0  0  0  0
 20 36  1  0  0  0  0
 23 37  1  0  0  0  0
 24 38  1  0  0  0  0
 25 39  1  0  0  0  0
M  END
$$$$
