C16H20N2O6
APtclcactv06291803093D 0   0.00000     0.00000
 
 44 46  0  0  0  0  0  0  0  0999 V2000
    2.2913    1.9079   -0.8585 C   0  0  0  0  0  0  0  0  0  0  0  0
    0.9324    1.9219   -1.1068 C   0  0  0  0  0  0  0  0  0  0  0  0
    0.0480    1.4544   -0.1455 C   0  0  0  0  0  0  0  0  0  0  0  0
    0.5310    0.9740    1.0630 C   0  0  0  0  0  0  0  0  0  0  0  0
    1.8908    0.9622    1.3064 C   0  0  0  0  0  0  0  0  0  0  0  0
    2.7701    1.4287    0.3468 C   0  0  0  0  0  0  0  0  0  0  0  0
    4.2530    1.4146    0.6150 C   0  0  0  0  0  0  0  0  0  0  0  0
    4.8351    0.1046    0.1503 C   0  0  0  0  0  0  0  0  0  0  0  0
    4.4317   -1.0804    0.5192 N   0  0  0  0  0  0  0  0  0  0  0  0
    5.1777   -2.0120   -0.0929 C   0  0  0  0  0  0  0  0  0  0  0  0
    6.0775   -1.3803   -0.8706 C   0  0  0  0  0  0  0  0  0  0  0  0
    5.8568   -0.0377   -0.7212 N   0  0  0  0  0  0  0  0  0  0  0  0
   -1.2893    1.4675   -0.3872 O   0  0  0  0  0  0  0  0  0  0  0  0
   -2.1405    0.9710    0.6477 C   0  0  0  0  0  0  0  0  0  0  0  0
   -3.6038    1.1792    0.2490 C   0  0  0  0  0  0  0  0  0  0  0  0
   -3.8983    0.3749   -1.0209 C   0  0  0  0  0  0  0  0  0  0  0  0
   -3.5694   -1.0992   -0.7662 C   0  0  0  0  0  0  0  0  0  0  0  0
   -2.1073   -1.2195   -0.3283 C   0  0  0  0  0  0  0  0  0  0  0  0
   -1.8942   -0.4235    0.8393 O   0  0  0  0  0  0  0  0  0  0  0  0
   -1.7875   -2.6823   -0.0139 C   0  0  0  0  0  0  0  0  0  0  0  0
   -0.3955   -2.8126    0.2819 O   0  0  0  0  0  0  0  0  0  0  0  0
   -4.4197   -1.6072    0.2639 O   0  0  0  0  0  0  0  0  0  0  0  0
   -5.2806    0.5047   -1.3591 O   0  0  0  0  0  0  0  0  0  0  0  0
   -4.4551    0.7316    1.3059 O   0  0  0  0  0  0  0  0  0  0  0  0
    2.9804    2.2675   -1.6082 H   0  0  0  0  0  0  0  0  0  0  0  0
    0.5588    2.2967   -2.0482 H   0  0  0  0  0  0  0  0  0  0  0  0
   -0.1555    0.6099    1.8131 H   0  0  0  0  0  0  0  0  0  0  0  0
    2.2672    0.5887    2.2472 H   0  0  0  0  0  0  0  0  0  0  0  0
    4.7275    2.2346    0.0759 H   0  0  0  0  0  0  0  0  0  0  0  0
    4.4300    1.5321    1.6841 H   0  0  0  0  0  0  0  0  0  0  0  0
    5.0749   -3.0813    0.0186 H   0  0  0  0  0  0  0  0  0  0  0  0
    6.8265   -1.8440   -1.4954 H   0  0  0  0  0  0  0  0  0  0  0  0
    6.3471    0.6780   -1.1551 H   0  0  0  0  0  0  0  0  0  0  0  0
   -1.9365    1.5070    1.5746 H   0  0  0  0  0  0  0  0  0  0  0  0
   -3.7827    2.2376    0.0595 H   0  0  0  0  0  0  0  0  0  0  0  0
   -3.2845    0.7492   -1.8401 H   0  0  0  0  0  0  0  0  0  0  0  0
   -3.7235   -1.6703   -1.6817 H   0  0  0  0  0  0  0  0  0  0  0  0
   -1.4576   -0.8694   -1.1304 H   0  0  0  0  0  0  0  0  0  0  0  0
   -2.3736   -3.0056    0.8463 H   0  0  0  0  0  0  0  0  0  0  0  0
   -2.0353   -3.3017   -0.8759 H   0  0  0  0  0  0  0  0  0  0  0  0
   -0.1208   -3.7158    0.4912 H   0  0  0  0  0  0  0  0  0  0  0  0
   -5.3627   -1.5576    0.0555 H   0  0  0  0  0  0  0  0  0  0  0  0
   -5.5607    1.4149   -1.5273 H   0  0  0  0  0  0  0  0  0  0  0  0
   -4.3193    1.1954    2.1435 H   0  0  0  0  0  0  0  0  0  0  0  0
  1  2  2  0  0  0  0
  2  3  1  0  0  0  0
  3  4  2  0  0  0  0
  4  5  1  0  0  0  0
  5  6  2  0  0  0  0
  1  6  1  0  0  0  0
  6  7  1  0  0  0  0
  7  8  1  0  0  0  0
  8  9  2  0  0  0  0
  9 10  1  0  0  0  0
 10 11  2  0  0  0  0
 11 12  1  0  0  0  0
  8 12  1  0  0  0  0
  3 13  1  0  0  0  0
 13 14  1  0  0  0  0
 14 15  1  0  0  0  0
 15 16  1  0  0  0  0
 16 17  1  0  0  0  0
 17 18  1  0  0  0  0
 18 19  1  0  0  0  0
 14 19  1  0  0  0  0
 18 20  1  0  0  0  0
 20 21  1  0  0  0  0
 17 22  1  0  0  0  0
 16 23  1  0  0  0  0
 15 24  1  0  0  0  0
  1 25  1  0  0  0  0
  2 26  1  0  0  0  0
  4 27  1  0  0  0  0
  5 28  1  0  0  0  0
  7 29  1  0  0  0  0
  7 30  1  0  0  0  0
 10 31  1  0  0  0  0
 11 32  1  0  0  0  0
 12 33  1  0  0  0  0
 14 34  1  0  0  0  0
 15 35  1  0  0  0  0
 16 36  1  0  0  0  0
 17 37  1  0  0  0  0
 18 38  1  0  0  0  0
 20 39  1  0  0  0  0
 20 40  1  0  0  0  0
 21 41  1  0  0  0  0
 22 42  1  0  0  0  0
 23 43  1  0  0  0  0
 24 44  1  0  0  0  0
M  END
$$$$
