C54H52O19
APtclcactv06291803143D 0   0.00000     0.00000
 
125134  0  0  0  0  0  0  0  0999 V2000
   -6.2060   -1.6926   -1.5301 C   0  0  0  0  0  0  0  0  0  0  0  0
   -7.1672   -2.6733   -1.4161 C   0  0  0  0  0  0  0  0  0  0  0  0
   -8.4863   -2.3285   -1.1509 C   0  0  0  0  0  0  0  0  0  0  0  0
   -8.8432   -0.9947   -0.9994 C   0  0  0  0  0  0  0  0  0  0  0  0
   -7.8890   -0.0069   -1.1112 C   0  0  0  0  0  0  0  0  0  0  0  0
   -6.5601   -0.3490   -1.3780 C   0  0  0  0  0  0  0  0  0  0  0  0
   -5.5359    0.7034   -1.4980 C   0  0  0  0  0  0  0  0  0  0  0  0
   -4.2438    0.3691   -1.6447 C   0  0  0  0  0  0  0  0  0  0  0  0
   -3.2065    1.4162   -1.6394 C   0  0  0  0  0  0  0  0  0  0  0  0
   -3.5462    2.7393   -1.3437 C   0  0  0  0  0  0  0  0  0  0  0  0
   -2.5613    3.7128   -1.3420 C   0  0  0  0  0  0  0  0  0  0  0  0
   -1.2469    3.3811   -1.6275 C   0  0  0  0  0  0  0  0  0  0  0  0
   -0.8961    2.0644   -1.9199 C   0  0  0  0  0  0  0  0  0  0  0  0
   -1.8825    1.0904   -1.9234 C   0  0  0  0  0  0  0  0  0  0  0  0
   -1.2146   -0.2197   -2.2935 C   0  0  0  0  0  0  0  0  0  0  0  0
    0.1422    0.2619   -2.8596 C   0  0  0  0  0  0  0  0  0  0  0  0
    0.3239    1.5314   -2.2066 O   0  0  0  0  0  0  0  0  0  0  0  0
    1.2467   -0.6920   -2.4837 C   0  0  0  0  0  0  0  0  0  0  0  0
    1.4204   -1.8628   -3.1984 C   0  0  0  0  0  0  0  0  0  0  0  0
    2.4322   -2.7388   -2.8557 C   0  0  0  0  0  0  0  0  0  0  0  0
    3.2742   -2.4430   -1.7936 C   0  0  0  0  0  0  0  0  0  0  0  0
    3.0977   -1.2675   -1.0781 C   0  0  0  0  0  0  0  0  0  0  0  0
    2.0881   -0.3921   -1.4283 C   0  0  0  0  0  0  0  0  0  0  0  0
    4.2699   -3.3033   -1.4543 O   0  0  0  0  0  0  0  0  0  0  0  0
   -1.0137   -1.0846   -1.0758 C   0  0  0  0  0  0  0  0  0  0  0  0
   -0.4903   -2.3570   -1.2110 C   0  0  0  0  0  0  0  0  0  0  0  0
   -0.3075   -3.1489   -0.0859 C   0  0  0  0  0  0  0  0  0  0  0  0
   -0.6436   -2.6671    1.1674 C   0  0  0  0  0  0  0  0  0  0  0  0
   -1.1672   -1.3850    1.3074 C   0  0  0  0  0  0  0  0  0  0  0  0
   -1.3464   -0.6045    0.1722 C   0  0  0  0  0  0  0  0  0  0  0  0
   -1.9457    0.7120    0.6284 C   0  0  0  0  0  0  0  0  0  0  0  0
   -2.4153    0.3702    2.0622 C   0  0  0  0  0  0  0  0  0  0  0  0
   -1.5442   -0.7145    2.4308 O   0  0  0  0  0  0  0  0  0  0  0  0
   -2.2176    1.5464    2.9834 C   0  0  0  0  0  0  0  0  0  0  0  0
   -3.2351    2.4665    3.1560 C   0  0  0  0  0  0  0  0  0  0  0  0
   -3.0564    3.5455    3.9999 C   0  0  0  0  0  0  0  0  0  0  0  0
   -1.8547    3.7056    4.6743 C   0  0  0  0  0  0  0  0  0  0  0  0
   -0.8353    2.7810    4.4994 C   0  0  0  0  0  0  0  0  0  0  0  0
   -1.0210    1.7006    3.6588 C   0  0  0  0  0  0  0  0  0  0  0  0
   -1.6762    4.7665    5.5047 O   0  0  0  0  0  0  0  0  0  0  0  0
   -0.9032    1.8000    0.6482 C   0  0  0  0  0  0  0  0  0  0  0  0
   -1.2906    3.1258    0.6783 C   0  0  0  0  0  0  0  0  0  0  0  0
   -0.3324    4.1297    0.6961 C   0  0  0  0  0  0  0  0  0  0  0  0
    1.0142    3.8013    0.6841 C   0  0  0  0  0  0  0  0  0  0  0  0
    1.4005    2.4699    0.6544 C   0  0  0  0  0  0  0  0  0  0  0  0
    0.4387    1.4699    0.6419 C   0  0  0  0  0  0  0  0  0  0  0  0
    2.7199    2.1448    0.6422 O   0  0  0  0  0  0  0  0  0  0  0  0
    3.6546    3.2255    0.6613 C   0  0  0  0  0  0  0  0  0  0  0  0
    5.0766    2.6688    0.7695 C   0  0  0  0  0  0  0  0  0  0  0  0
    5.3779    1.8154   -0.4663 C   0  0  0  0  0  0  0  0  0  0  0  0
    5.1820    2.6692   -1.7229 C   0  0  0  0  0  0  0  0  0  0  0  0
    3.7559    3.2258   -1.7349 C   0  0  0  0  0  0  0  0  0  0  0  0
    3.5316    3.9833   -0.5440 O   0  0  0  0  0  0  0  0  0  0  0  0
    3.5709    4.1286   -2.9562 C   0  0  0  0  0  0  0  0  0  0  0  0
    2.2090    4.5547   -3.0316 O   0  0  0  0  0  0  0  0  0  0  0  0
    6.1166    3.7502   -1.7163 O   0  0  0  0  0  0  0  0  0  0  0  0
    6.7284    1.3516   -0.4092 O   0  0  0  0  0  0  0  0  0  0  0  0
    6.0084    3.7498    0.8422 O   0  0  0  0  0  0  0  0  0  0  0  0
   -0.7141    5.4337    0.7248 O   0  0  0  0  0  0  0  0  0  0  0  0
    0.2028   -4.4017   -0.2153 O   0  0  0  0  0  0  0  0  0  0  0  0
    0.3650   -5.1631    0.9830 C   0  0  0  0  0  0  0  0  0  0  0  0
    0.8295   -6.5784    0.6297 C   0  0  0  0  0  0  0  0  0  0  0  0
    2.1946   -6.5020   -0.0608 C   0  0  0  0  0  0  0  0  0  0  0  0
    3.1814   -5.7797    0.8617 C   0  0  0  0  0  0  0  0  0  0  0  0
    2.6261   -4.3952    1.2060 C   0  0  0  0  0  0  0  0  0  0  0  0
    1.3420   -4.5369    1.8170 O   0  0  0  0  0  0  0  0  0  0  0  0
    3.5773   -3.6905    2.1753 C   0  0  0  0  0  0  0  0  0  0  0  0
    3.1204   -2.3563    2.4057 O   0  0  0  0  0  0  0  0  0  0  0  0
    3.3551   -6.5364    2.0614 O   0  0  0  0  0  0  0  0  0  0  0  0
    2.6696   -7.8229   -0.3284 O   0  0  0  0  0  0  0  0  0  0  0  0
    0.9409   -7.3563    1.8233 O   0  0  0  0  0  0  0  0  0  0  0  0
   -2.8863    5.0016   -1.0588 O   0  0  0  0  0  0  0  0  0  0  0  0
   -9.4306   -3.2989   -1.0398 O   0  0  0  0  0  0  0  0  0  0  0  0
   -5.1798   -1.9619   -1.7323 H   0  0  0  0  0  0  0  0  0  0  0  0
   -6.8945   -3.7117   -1.5335 H   0  0  0  0  0  0  0  0  0  0  0  0
   -9.8702   -0.7313   -0.7940 H   0  0  0  0  0  0  0  0  0  0  0  0
   -8.1674    1.0299   -0.9936 H   0  0  0  0  0  0  0  0  0  0  0  0
   -5.8245    1.7437   -1.4680 H   0  0  0  0  0  0  0  0  0  0  0  0
   -3.9646   -0.6670   -1.7666 H   0  0  0  0  0  0  0  0  0  0  0  0
   -4.5697    3.0006   -1.1185 H   0  0  0  0  0  0  0  0  0  0  0  0
   -0.4878    4.1493   -1.6239 H   0  0  0  0  0  0  0  0  0  0  0  0
   -1.7887   -0.7483   -3.0545 H   0  0  0  0  0  0  0  0  0  0  0  0
    0.0878    0.3846   -3.9413 H   0  0  0  0  0  0  0  0  0  0  0  0
    0.7645   -2.0928   -4.0249 H   0  0  0  0  0  0  0  0  0  0  0  0
    2.5673   -3.6534   -3.4140 H   0  0  0  0  0  0  0  0  0  0  0  0
    3.7519   -1.0350   -0.2509 H   0  0  0  0  0  0  0  0  0  0  0  0
    1.9503    0.5231   -0.8716 H   0  0  0  0  0  0  0  0  0  0  0  0
    5.1072   -3.1345   -1.9078 H   0  0  0  0  0  0  0  0  0  0  0  0
   -0.2251   -2.7333   -2.1880 H   0  0  0  0  0  0  0  0  0  0  0  0
   -0.4996   -3.2880    2.0393 H   0  0  0  0  0  0  0  0  0  0  0  0
   -2.7897    0.9946   -0.0009 H   0  0  0  0  0  0  0  0  0  0  0  0
   -3.4572    0.0499    2.0613 H   0  0  0  0  0  0  0  0  0  0  0  0
   -4.1703    2.3417    2.6304 H   0  0  0  0  0  0  0  0  0  0  0  0
   -3.8513    4.2642    4.1341 H   0  0  0  0  0  0  0  0  0  0  0  0
    0.1012    2.9033    5.0234 H   0  0  0  0  0  0  0  0  0  0  0  0
   -0.2278    0.9805    3.5223 H   0  0  0  0  0  0  0  0  0  0  0  0
   -1.9400    4.5985    6.4197 H   0  0  0  0  0  0  0  0  0  0  0  0
   -2.3399    3.3812    0.6876 H   0  0  0  0  0  0  0  0  0  0  0  0
    1.7613    4.5811    0.6976 H   0  0  0  0  0  0  0  0  0  0  0  0
    0.7391    0.4327    0.6187 H   0  0  0  0  0  0  0  0  0  0  0  0
    3.4497    3.8682    1.5174 H   0  0  0  0  0  0  0  0  0  0  0  0
    5.1599    2.0541    1.6658 H   0  0  0  0  0  0  0  0  0  0  0  0
    4.6992    0.9630   -0.4951 H   0  0  0  0  0  0  0  0  0  0  0  0
    5.3406    2.0547   -2.6091 H   0  0  0  0  0  0  0  0  0  0  0  0
    3.0443    2.4015   -1.7808 H   0  0  0  0  0  0  0  0  0  0  0  0
    4.2197    4.9998   -2.8658 H   0  0  0  0  0  0  0  0  0  0  0  0
    3.8291    3.5755   -3.8593 H   0  0  0  0  0  0  0  0  0  0  0  0
    2.0185    5.1317   -3.7839 H   0  0  0  0  0  0  0  0  0  0  0  0
    7.0420    3.4699   -1.7037 H   0  0  0  0  0  0  0  0  0  0  0  0
    6.9254    0.8089    0.3665 H   0  0  0  0  0  0  0  0  0  0  0  0
    5.8733    4.3353    1.5998 H   0  0  0  0  0  0  0  0  0  0  0  0
   -0.8215    5.7925    1.6163 H   0  0  0  0  0  0  0  0  0  0  0  0
   -0.5862   -5.2143    1.5128 H   0  0  0  0  0  0  0  0  0  0  0  0
    0.1069   -7.0418   -0.0420 H   0  0  0  0  0  0  0  0  0  0  0  0
    2.0997   -5.9508   -0.9963 H   0  0  0  0  0  0  0  0  0  0  0  0
    4.1408   -5.6718    0.3558 H   0  0  0  0  0  0  0  0  0  0  0  0
    2.5319   -3.8044    0.2949 H   0  0  0  0  0  0  0  0  0  0  0  0
    3.6022   -4.2342    3.1197 H   0  0  0  0  0  0  0  0  0  0  0  0
    4.5787   -3.6626    1.7457 H   0  0  0  0  0  0  0  0  0  0  0  0
    3.6771   -1.8491    3.0123 H   0  0  0  0  0  0  0  0  0  0  0  0
    3.7003   -7.4281    1.9174 H   0  0  0  0  0  0  0  0  0  0  0  0
    2.0889   -8.3410   -0.9023 H   0  0  0  0  0  0  0  0  0  0  0  0
    0.1129   -7.4427    2.3152 H   0  0  0  0  0  0  0  0  0  0  0  0
   -2.8324    5.2235   -0.1191 H   0  0  0  0  0  0  0  0  0  0  0  0
   -9.5443   -3.6359   -0.1406 H   0  0  0  0  0  0  0  0  0  0  0  0
  1  2  2  0  0  0  0
  2  3  1  0  0  0  0
  3  4  2  0  0  0  0
  4  5  1  0  0  0  0
  5  6  2  0  0  0  0
  1  6  1  0  0  0  0
  6  7  1  0  0  0  0
  7  8  2  0  0  0  0
  8  9  1  0  0  0  0
  9 10  2  0  0  0  0
 10 11  1  0  0  0  0
 11 12  2  0  0  0  0
 12 13  1  0  0  0  0
 13 14  2  0  0  0  0
  9 14  1  0  0  0  0
 14 15  1  0  0  0  0
 15 16  1  0  0  0  0
 16 17  1  0  0  0  0
 13 17  1  0  0  0  0
 16 18  1  0  0  0  0
 18 19  2  0  0  0  0
 19 20  1  0  0  0  0
 20 21  2  0  0  0  0
 21 22  1  0  0  0  0
 22 23  2  0  0  0  0
 18 23  1  0  0  0  0
 21 24  1  0  0  0  0
 15 25  1  0  0  0  0
 25 26  2  0  0  0  0
 26 27  1  0  0  0  0
 27 28  2  0  0  0  0
 28 29  1  0  0  0  0
 29 30  2  0  0  0  0
 25 30  1  0  0  0  0
 30 31  1  0  0  0  0
 31 32  1  0  0  0  0
 32 33  1  0  0  0  0
 29 33  1  0  0  0  0
 32 34  1  0  0  0  0
 34 35  2  0  0  0  0
 35 36  1  0  0  0  0
 36 37  2  0  0  0  0
 37 38  1  0  0  0  0
 38 39  2  0  0  0  0
 34 39  1  0  0  0  0
 37 40  1  0  0  0  0
 31 41  1  0  0  0  0
 41 42  2  0  0  0  0
 42 43  1  0  0  0  0
 43 44  2  0  0  0  0
 44 45  1  0  0  0  0
 45 46  2  0  0  0  0
 41 46  1  0  0  0  0
 45 47  1  0  0  0  0
 47 48  1  0  0  0  0
 48 49  1  0  0  0  0
 49 50  1  0  0  0  0
 50 51  1  0  0  0  0
 51 52  1  0  0  0  0
 52 53  1  0  0  0  0
 48 53  1  0  0  0  0
 52 54  1  0  0  0  0
 54 55  1  0  0  0  0
 51 56  1  0  0  0  0
 50 57  1  0  0  0  0
 49 58  1  0  0  0  0
 43 59  1  0  0  0  0
 27 60  1  0  0  0  0
 60 61  1  0  0  0  0
 61 62  1  0  0  0  0
 62 63  1  0  0  0  0
 63 64  1  0  0  0  0
 64 65  1  0  0  0  0
 65 66  1  0  0  0  0
 61 66  1  0  0  0  0
 65 67  1  0  0  0  0
 67 68  1  0  0  0  0
 64 69  1  0  0  0  0
 63 70  1  0  0  0  0
 62 71  1  0  0  0  0
 11 72  1  0  0  0  0
  3 73  1  0  0  0  0
  1 74  1  0  0  0  0
  2 75  1  0  0  0  0
  4 76  1  0  0  0  0
  5 77  1  0  0  0  0
  7 78  1  0  0  0  0
  8 79  1  0  0  0  0
 10 80  1  0  0  0  0
 12 81  1  0  0  0  0
 15 82  1  0  0  0  0
 16 83  1  0  0  0  0
 19 84  1  0  0  0  0
 20 85  1  0  0  0  0
 22 86  1  0  0  0  0
 23 87  1  0  0  0  0
 24 88  1  0  0  0  0
 26 89  1  0  0  0  0
 28 90  1  0  0  0  0
 31 91  1  0  0  0  0
 32 92  1  0  0  0  0
 35 93  1  0  0  0  0
 36 94  1  0  0  0  0
 38 95  1  0  0  0  0
 39 96  1  0  0  0  0
 40 97  1  0  0  0  0
 42 98  1  0  0  0  0
 44 99  1  0  0  0  0
 46100  1  0  0  0  0
 48101  1  0  0  0  0
 49102  1  0  0  0  0
 50103  1  0  0  0  0
 51104  1  0  0  0  0
 52105  1  0  0  0  0
 54106  1  0  0  0  0
 54107  1  0  0  0  0
 55108  1  0  0  0  0
 56109  1  0  0  0  0
 57110  1  0  0  0  0
 58111  1  0  0  0  0
 59112  1  0  0  0  0
 61113  1  0  0  0  0
 62114  1  0  0  0  0
 63115  1  0  0  0  0
 64116  1  0  0  0  0
 65117  1  0  0  0  0
 67118  1  0  0  0  0
 67119  1  0  0  0  0
 68120  1  0  0  0  0
 69121  1  0  0  0  0
 70122  1  0  0  0  0
 71123  1  0  0  0  0
 72124  1  0  0  0  0
 73125  1  0  0  0  0
M  END
$$$$
