C26H28O11
APtclcactv06291803133D 0   0.00000     0.00000
 
 65 68  0  0  0  0  0  0  0  0999 V2000
    1.0647   -5.3636   -1.3175 C   0  0  0  0  0  0  0  0  0  0  0  0
    1.3400   -4.8918    0.0870 C   0  0  0  0  0  0  0  0  0  0  0  0
    1.6928   -3.6489    0.3031 C   0  0  0  0  0  0  0  0  0  0  0  0
    1.7022   -2.6597   -0.8338 C   0  0  0  0  0  0  0  0  0  0  0  0
    0.8725   -1.4581   -0.4611 C   0  0  0  0  0  0  0  0  0  0  0  0
    1.4660   -0.3754    0.1788 C   0  0  0  0  0  0  0  0  0  0  0  0
    0.7198    0.7397    0.5253 C   0  0  0  0  0  0  0  0  0  0  0  0
   -0.6370    0.7876    0.2365 C   0  0  0  0  0  0  0  0  0  0  0  0
   -1.2389   -0.3121   -0.4021 C   0  0  0  0  0  0  0  0  0  0  0  0
   -0.4772   -1.4306   -0.7607 C   0  0  0  0  0  0  0  0  0  0  0  0
   -1.0603   -2.4828   -1.3886 O   0  0  0  0  0  0  0  0  0  0  0  0
   -2.6845   -0.2479   -0.6763 C   0  0  0  0  0  0  0  0  0  0  0  0
   -3.2402   -1.0452   -1.4126 O   0  0  0  0  0  0  0  0  0  0  0  0
   -3.4187    0.8420   -0.0035 C   0  0  0  0  0  0  0  0  0  0  0  0
   -2.6976    1.8337    0.5796 C   0  0  0  0  0  0  0  0  0  0  0  0
   -1.3646    1.8746    0.5566 O   0  0  0  0  0  0  0  0  0  0  0  0
   -4.9014    0.8537    0.0340 C   0  0  0  0  0  0  0  0  0  0  0  0
   -5.5756    0.5235    1.2138 C   0  0  0  0  0  0  0  0  0  0  0  0
   -6.9596    0.5366    1.2427 C   0  0  0  0  0  0  0  0  0  0  0  0
   -7.6742    0.8761    0.1034 C   0  0  0  0  0  0  0  0  0  0  0  0
   -7.0054    1.2036   -1.0686 C   0  0  0  0  0  0  0  0  0  0  0  0
   -5.6263    1.1991   -1.1045 C   0  0  0  0  0  0  0  0  0  0  0  0
   -9.0328    0.8878    0.1341 O   0  0  0  0  0  0  0  0  0  0  0  0
   -4.8741    0.1903    2.3288 O   0  0  0  0  0  0  0  0  0  0  0  0
    2.7918   -0.4114    0.4679 O   0  0  0  0  0  0  0  0  0  0  0  0
    3.3437    0.7308    1.1258 C   0  0  0  0  0  0  0  0  0  0  0  0
    4.8082    0.4585    1.4788 C   0  0  0  0  0  0  0  0  0  0  0  0
    5.6035    0.2359    0.1887 C   0  0  0  0  0  0  0  0  0  0  0  0
    5.4416    1.4616   -0.7157 C   0  0  0  0  0  0  0  0  0  0  0  0
    3.9526    1.6950   -0.9840 C   0  0  0  0  0  0  0  0  0  0  0  0
    3.2668    1.8638    0.2584 O   0  0  0  0  0  0  0  0  0  0  0  0
    3.7790    2.9529   -1.8376 C   0  0  0  0  0  0  0  0  0  0  0  0
    2.4015    3.1062   -2.1853 O   0  0  0  0  0  0  0  0  0  0  0  0
    5.9960    2.6089   -0.0689 O   0  0  0  0  0  0  0  0  0  0  0  0
    6.9852    0.0538    0.5043 O   0  0  0  0  0  0  0  0  0  0  0  0
    5.3458    1.5793    2.1838 O   0  0  0  0  0  0  0  0  0  0  0  0
    1.2095   -5.8499    1.2429 C   0  0  0  0  0  0  0  0  0  0  0  0
    1.9281   -5.1513   -1.9479 H   0  0  0  0  0  0  0  0  0  0  0  0
    0.8756   -6.4371   -1.3097 H   0  0  0  0  0  0  0  0  0  0  0  0
    0.1911   -4.8437   -1.7107 H   0  0  0  0  0  0  0  0  0  0  0  0
    1.9770   -3.3330    1.2960 H   0  0  0  0  0  0  0  0  0  0  0  0
    2.7267   -2.3459   -1.0339 H   0  0  0  0  0  0  0  0  0  0  0  0
    1.2846   -3.1271   -1.7255 H   0  0  0  0  0  0  0  0  0  0  0  0
    1.1948    1.5731    1.0214 H   0  0  0  0  0  0  0  0  0  0  0  0
   -1.0543   -2.4176   -2.3534 H   0  0  0  0  0  0  0  0  0  0  0  0
   -3.2282    2.6268    1.0854 H   0  0  0  0  0  0  0  0  0  0  0  0
   -7.4831    0.2821    2.1524 H   0  0  0  0  0  0  0  0  0  0  0  0
   -7.5663    1.4669   -1.9532 H   0  0  0  0  0  0  0  0  0  0  0  0
   -5.1089    1.4542   -2.0175 H   0  0  0  0  0  0  0  0  0  0  0  0
   -9.4132    1.7399    0.3879 H   0  0  0  0  0  0  0  0  0  0  0  0
   -4.6576    0.9424    2.8967 H   0  0  0  0  0  0  0  0  0  0  0  0
    2.7813    0.9320    2.0376 H   0  0  0  0  0  0  0  0  0  0  0  0
    4.8727   -0.4316    2.1046 H   0  0  0  0  0  0  0  0  0  0  0  0
    5.2257   -0.6484   -0.3245 H   0  0  0  0  0  0  0  0  0  0  0  0
    5.9590    1.2887   -1.6594 H   0  0  0  0  0  0  0  0  0  0  0  0
    3.5396    0.8364   -1.5134 H   0  0  0  0  0  0  0  0  0  0  0  0
    4.1102    3.8241   -1.2724 H   0  0  0  0  0  0  0  0  0  0  0  0
    4.3749    2.8609   -2.7456 H   0  0  0  0  0  0  0  0  0  0  0  0
    2.2171    3.8852   -2.7278 H   0  0  0  0  0  0  0  0  0  0  0  0
    6.9376    2.5283    0.1359 H   0  0  0  0  0  0  0  0  0  0  0  0
    7.1606   -0.7024    1.0809 H   0  0  0  0  0  0  0  0  0  0  0  0
    4.8863    1.7813    3.0103 H   0  0  0  0  0  0  0  0  0  0  0  0
    2.1661   -6.3429    1.4160 H   0  0  0  0  0  0  0  0  0  0  0  0
    0.9163   -5.3014    2.1381 H   0  0  0  0  0  0  0  0  0  0  0  0
    0.4517   -6.5982    1.0108 H   0  0  0  0  0  0  0  0  0  0  0  0
  1  2  1  0  0  0  0
  2  3  2  0  0  0  0
  3  4  1  0  0  0  0
  4  5  1  0  0  0  0
  5  6  2  0  0  0  0
  6  7  1  0  0  0  0
  7  8  2  0  0  0  0
  8  9  1  0  0  0  0
  9 10  2  0  0  0  0
  5 10  1  0  0  0  0
 10 11  1  0  0  0  0
  9 12  1  0  0  0  0
 12 13  2  0  0  0  0
 12 14  1  0  0  0  0
 14 15  2  0  0  0  0
 15 16  1  0  0  0  0
  8 16  1  0  0  0  0
 14 17  1  0  0  0  0
 17 18  2  0  0  0  0
 18 19  1  0  0  0  0
 19 20  2  0  0  0  0
 20 21  1  0  0  0  0
 21 22  2  0  0  0  0
 17 22  1  0  0  0  0
 20 23  1  0  0  0  0
 18 24  1  0  0  0  0
  6 25  1  0  0  0  0
 25 26  1  0  0  0  0
 26 27  1  0  0  0  0
 27 28  1  0  0  0  0
 28 29  1  0  0  0  0
 29 30  1  0  0  0  0
 30 31  1  0  0  0  0
 26 31  1  0  0  0  0
 30 32  1  0  0  0  0
 32 33  1  0  0  0  0
 29 34  1  0  0  0  0
 28 35  1  0  0  0  0
 27 36  1  0  0  0  0
  2 37  1  0  0  0  0
  1 38  1  0  0  0  0
  1 39  1  0  0  0  0
  1 40  1  0  0  0  0
  3 41  1  0  0  0  0
  4 42  1  0  0  0  0
  4 43  1  0  0  0  0
  7 44  1  0  0  0  0
 11 45  1  0  0  0  0
 15 46  1  0  0  0  0
 19 47  1  0  0  0  0
 21 48  1  0  0  0  0
 22 49  1  0  0  0  0
 23 50  1  0  0  0  0
 24 51  1  0  0  0  0
 26 52  1  0  0  0  0
 27 53  1  0  0  0  0
 28 54  1  0  0  0  0
 29 55  1  0  0  0  0
 30 56  1  0  0  0  0
 32 57  1  0  0  0  0
 32 58  1  0  0  0  0
 33 59  1  0  0  0  0
 34 60  1  0  0  0  0
 35 61  1  0  0  0  0
 36 62  1  0  0  0  0
 37 63  1  0  0  0  0
 37 64  1  0  0  0  0
 37 65  1  0  0  0  0
M  END
$$$$
