C27H31O16
APtclcactv06291801023D 0   0.00000     0.00000
 
 74 78  0  0  0  0  0  0  0  0999 V2000
   -3.7191   -0.4740   -0.9858 C   0  0  0  0  0  0  0  0  0  0  0  0
   -4.9023   -0.9544   -1.5057 C   0  0  0  0  0  0  0  0  0  0  0  0
   -6.0693   -0.2139   -1.3818 C   0  0  0  0  0  0  0  0  0  0  0  0
   -6.0500    1.0184   -0.7317 C   0  0  0  0  0  0  0  0  0  0  0  0
   -4.8669    1.5051   -0.2085 C   0  0  0  0  0  0  0  0  0  0  0  0
   -3.6932    0.7596   -0.3331 C   0  0  0  0  0  0  0  0  0  0  0  0
   -2.4246    1.2759    0.2256 C   0  0  0  0  0  0  0  0  0  0  0  0
   -1.5510    0.3742    0.8598 C   0  0  0  0  0  0  0  0  0  0  0  0
   -0.3733    0.8720    1.3742 C   0  0  0  0  0  0  0  0  0  0  0  0
   -0.1731    2.2577    1.2029 C   0  0  0  0  0  0  0  0  0  0  0  0
    0.9858    2.8980    1.6785 C   0  0  0  0  0  0  0  0  0  0  0  0
    1.1397    4.2433    1.4908 C   0  0  0  0  0  0  0  0  0  0  0  0
    0.1569    4.9848    0.8321 C   0  0  0  0  0  0  0  0  0  0  0  0
   -0.9875    4.3824    0.3570 C   0  0  0  0  0  0  0  0  0  0  0  0
   -1.1759    3.0030    0.5325 C   0  0  0  0  0  0  0  0  0  0  0  0
   -2.1794    2.4549    0.1136 O   0  3  0  0  0  0  0  0  0  0  0  0
    0.3314    6.3203    0.6576 O   0  0  0  0  0  0  0  0  0  0  0  0
    1.9455    2.1841    2.3207 O   0  0  0  0  0  0  0  0  0  0  0  0
   -1.8587   -0.9458    0.9626 O   0  0  0  0  0  0  0  0  0  0  0  0
   -0.9087   -1.7839    1.6239 C   0  0  0  0  0  0  0  0  0  0  0  0
   -1.4788   -3.1988    1.7530 C   0  0  0  0  0  0  0  0  0  0  0  0
   -1.7132   -3.7761    0.3536 C   0  0  0  0  0  0  0  0  0  0  0  0
   -0.3944   -3.7495   -0.4251 C   0  0  0  0  0  0  0  0  0  0  0  0
    0.1339   -2.3133   -0.4700 C   0  0  0  0  0  0  0  0  0  0  0  0
    0.3002   -1.8264    0.8632 O   0  0  0  0  0  0  0  0  0  0  0  0
    1.4812   -2.2876   -1.1944 C   0  0  0  0  0  0  0  0  0  0  0  0
    1.9185   -0.9349   -1.3392 O   0  0  0  0  0  0  0  0  0  0  0  0
    3.1745   -0.7984   -2.0069 C   0  0  0  0  0  0  0  0  0  0  0  0
    3.4827    0.6865   -2.2163 C   0  0  0  0  0  0  0  0  0  0  0  0
    3.6047    1.3720   -0.8519 C   0  0  0  0  0  0  0  0  0  0  0  0
    4.6873    0.6636   -0.0319 C   0  0  0  0  0  0  0  0  0  0  0  0
    4.3327   -0.8204    0.0931 C   0  0  0  0  0  0  0  0  0  0  0  0
    4.2040   -1.3896   -1.2113 O   0  0  0  0  0  0  0  0  0  0  0  0
    5.4397   -1.5468    0.8598 C   0  0  0  0  0  0  0  0  0  0  0  0
    5.0553   -2.9057    1.0779 O   0  0  0  0  0  0  0  0  0  0  0  0
    5.9492    0.7993   -0.6886 O   0  0  0  0  0  0  0  0  0  0  0  0
    3.9646    2.7426   -1.0360 O   0  0  0  0  0  0  0  0  0  0  0  0
    4.7127    0.8228   -2.9309 O   0  0  0  0  0  0  0  0  0  0  0  0
    0.5613   -4.5896    0.2253 O   0  0  0  0  0  0  0  0  0  0  0  0
   -2.1762   -5.1235    0.4638 O   0  0  0  0  0  0  0  0  0  0  0  0
   -0.5519   -4.0244    2.4611 O   0  0  0  0  0  0  0  0  0  0  0  0
   -7.1951    1.7424   -0.6125 O   0  0  0  0  0  0  0  0  0  0  0  0
   -7.2331   -0.6913   -1.8957 O   0  0  0  0  0  0  0  0  0  0  0  0
   -2.8131   -1.0542   -1.0796 H   0  0  0  0  0  0  0  0  0  0  0  0
   -4.9208   -1.9088   -2.0108 H   0  0  0  0  0  0  0  0  0  0  0  0
   -4.8503    2.4602    0.2953 H   0  0  0  0  0  0  0  0  0  0  0  0
    0.3479    0.2433    1.8752 H   0  0  0  0  0  0  0  0  0  0  0  0
    2.0286    4.7367    1.8552 H   0  0  0  0  0  0  0  0  0  0  0  0
   -1.7382    4.9708   -0.1497 H   0  0  0  0  0  0  0  0  0  0  0  0
    0.7835    6.5537   -0.1648 H   0  0  0  0  0  0  0  0  0  0  0  0
    2.6253    1.8233    1.7352 H   0  0  0  0  0  0  0  0  0  0  0  0
   -0.7001   -1.3841    2.6163 H   0  0  0  0  0  0  0  0  0  0  0  0
   -2.4238   -3.1627    2.2951 H   0  0  0  0  0  0  0  0  0  0  0  0
   -2.4573   -3.1750   -0.1689 H   0  0  0  0  0  0  0  0  0  0  0  0
   -0.5637   -4.1073   -1.4406 H   0  0  0  0  0  0  0  0  0  0  0  0
   -0.5771   -1.6810   -1.0018 H   0  0  0  0  0  0  0  0  0  0  0  0
    2.2159   -2.8470   -0.6152 H   0  0  0  0  0  0  0  0  0  0  0  0
    1.3729   -2.7418   -2.1794 H   0  0  0  0  0  0  0  0  0  0  0  0
    3.1287   -1.2999   -2.9736 H   0  0  0  0  0  0  0  0  0  0  0  0
    2.6764    1.1491   -2.7855 H   0  0  0  0  0  0  0  0  0  0  0  0
    2.6514    1.3113   -0.3268 H   0  0  0  0  0  0  0  0  0  0  0  0
    4.7426    1.1098    0.9611 H   0  0  0  0  0  0  0  0  0  0  0  0
    3.3898   -0.9249    0.6299 H   0  0  0  0  0  0  0  0  0  0  0  0
    6.3620   -1.5187    0.2796 H   0  0  0  0  0  0  0  0  0  0  0  0
    5.5992   -1.0558    1.8198 H   0  0  0  0  0  0  0  0  0  0  0  0
    5.7115   -3.4276    1.5598 H   0  0  0  0  0  0  0  0  0  0  0  0
    6.2348    1.7156   -0.8062 H   0  0  0  0  0  0  0  0  0  0  0  0
    3.3255    3.2509   -1.5538 H   0  0  0  0  0  0  0  0  0  0  0  0
    4.7085    0.4069   -3.8038 H   0  0  0  0  0  0  0  0  0  0  0  0
    0.2893   -5.5151    0.2936 H   0  0  0  0  0  0  0  0  0  0  0  0
   -3.0056   -5.2157    0.9523 H   0  0  0  0  0  0  0  0  0  0  0  0
   -0.3529   -3.7147    3.3553 H   0  0  0  0  0  0  0  0  0  0  0  0
   -7.7005    1.5499    0.1891 H   0  0  0  0  0  0  0  0  0  0  0  0
   -7.7437   -1.2318   -1.2774 H   0  0  0  0  0  0  0  0  0  0  0  0
  1  2  2  0  0  0  0
  2  3  1  0  0  0  0
  3  4  2  0  0  0  0
  4  5  1  0  0  0  0
  5  6  2  0  0  0  0
  1  6  1  0  0  0  0
  6  7  1  0  0  0  0
  7  8  2  0  0  0  0
  8  9  1  0  0  0  0
  9 10  2  0  0  0  0
 10 11  1  0  0  0  0
 11 12  2  0  0  0  0
 12 13  1  0  0  0  0
 13 14  2  0  0  0  0
 14 15  1  0  0  0  0
 10 15  1  0  0  0  0
 15 16  2  0  0  0  0
  7 16  1  0  0  0  0
 13 17  1  0  0  0  0
 11 18  1  0  0  0  0
  8 19  1  0  0  0  0
 19 20  1  0  0  0  0
 20 21  1  0  0  0  0
 21 22  1  0  0  0  0
 22 23  1  0  0  0  0
 23 24  1  0  0  0  0
 24 25  1  0  0  0  0
 20 25  1  0  0  0  0
 24 26  1  0  0  0  0
 26 27  1  0  0  0  0
 27 28  1  0  0  0  0
 28 29  1  0  0  0  0
 29 30  1  0  0  0  0
 30 31  1  0  0  0  0
 31 32  1  0  0  0  0
 32 33  1  0  0  0  0
 28 33  1  0  0  0  0
 32 34  1  0  0  0  0
 34 35  1  0  0  0  0
 31 36  1  0  0  0  0
 30 37  1  0  0  0  0
 29 38  1  0  0  0  0
 23 39  1  0  0  0  0
 22 40  1  0  0  0  0
 21 41  1  0  0  0  0
  4 42  1  0  0  0  0
  3 43  1  0  0  0  0
  1 44  1  0  0  0  0
  2 45  1  0  0  0  0
  5 46  1  0  0  0  0
  9 47  1  0  0  0  0
 12 48  1  0  0  0  0
 14 49  1  0  0  0  0
 17 50  1  0  0  0  0
 18 51  1  0  0  0  0
 20 52  1  0  0  0  0
 21 53  1  0  0  0  0
 22 54  1  0  0  0  0
 23 55  1  0  0  0  0
 24 56  1  0  0  0  0
 26 57  1  0  0  0  0
 26 58  1  0  0  0  0
 28 59  1  0  0  0  0
 29 60  1  0  0  0  0
 30 61  1  0  0  0  0
 31 62  1  0  0  0  0
 32 63  1  0  0  0  0
 34 64  1  0  0  0  0
 34 65  1  0  0  0  0
 35 66  1  0  0  0  0
 36 67  1  0  0  0  0
 37 68  1  0  0  0  0
 38 69  1  0  0  0  0
 39 70  1  0  0  0  0
 40 71  1  0  0  0  0
 41 72  1  0  0  0  0
 42 73  1  0  0  0  0
 43 74  1  0  0  0  0
M  CHG  1  16   1
M  END
$$$$
