C20H18O5
APtclcactv06291803083D 0   0.00000     0.00000
 
 43 47  0  0  0  0  0  0  0  0999 V2000
    5.0152   -0.4440   -1.8925 C   0  0  0  0  0  0  0  0  0  0  0  0
    5.2287   -0.3998   -0.3781 C   0  0  0  0  0  0  0  0  0  0  0  0
    5.3637    1.0334    0.0642 C   0  0  0  0  0  0  0  0  0  0  0  0
    4.2814    1.7311    0.3984 C   0  0  0  0  0  0  0  0  0  0  0  0
    2.9648    1.0558    0.3323 C   0  0  0  0  0  0  0  0  0  0  0  0
    1.7883    1.8086    0.3389 C   0  0  0  0  0  0  0  0  0  0  0  0
    0.5871    1.1154    0.2762 C   0  0  0  0  0  0  0  0  0  0  0  0
    0.5760   -0.2950    0.1963 C   0  0  0  0  0  0  0  0  0  0  0  0
    1.7378   -1.0371    0.1973 C   0  0  0  0  0  0  0  0  0  0  0  0
    2.9400   -0.3433    0.2672 C   0  0  0  0  0  0  0  0  0  0  0  0
    4.1197   -1.0202    0.2733 O   0  0  0  0  0  0  0  0  0  0  0  0
   -0.8563   -0.6695    0.1038 C   0  0  0  0  0  0  0  0  0  0  0  0
   -1.3626   -1.8899    0.8310 C   0  0  0  0  0  0  0  0  0  0  0  0
   -2.7910   -1.8297    0.9193 O   0  0  0  0  0  0  0  0  0  0  0  0
   -3.5024   -0.7803    0.4430 C   0  0  0  0  0  0  0  0  0  0  0  0
   -2.9335    0.4998    0.3667 C   0  0  0  0  0  0  0  0  0  0  0  0
   -1.5085    0.5725    0.8058 C   0  0  0  0  0  0  0  0  0  0  0  0
   -0.6833    1.6141    0.3010 O   0  0  0  0  0  0  0  0  0  0  0  0
   -3.6549    1.5712   -0.0890 C   0  0  0  0  0  0  0  0  0  0  0  0
   -4.9659    1.3953   -0.4989 C   0  0  0  0  0  0  0  0  0  0  0  0
   -5.5399    0.1328   -0.4447 C   0  0  0  0  0  0  0  0  0  0  0  0
   -4.8130   -0.9495    0.0236 C   0  0  0  0  0  0  0  0  0  0  0  0
   -6.8238   -0.0428   -0.8540 O   0  0  0  0  0  0  0  0  0  0  0  0
   -1.2556   -0.7225   -1.2673 O   0  0  0  0  0  0  0  0  0  0  0  0
    6.5081   -1.1609   -0.0252 C   0  0  0  0  0  0  0  0  0  0  0  0
    5.8685    0.0135   -2.3932 H   0  0  0  0  0  0  0  0  0  0  0  0
    4.9171   -1.4804   -2.2155 H   0  0  0  0  0  0  0  0  0  0  0  0
    4.1079    0.1036   -2.1476 H   0  0  0  0  0  0  0  0  0  0  0  0
    6.3391    1.4948    0.1098 H   0  0  0  0  0  0  0  0  0  0  0  0
    4.3608    2.7622    0.7099 H   0  0  0  0  0  0  0  0  0  0  0  0
    1.8122    2.8871    0.3910 H   0  0  0  0  0  0  0  0  0  0  0  0
    1.7147   -2.1157    0.1460 H   0  0  0  0  0  0  0  0  0  0  0  0
   -1.0692   -2.7865    0.2851 H   0  0  0  0  0  0  0  0  0  0  0  0
   -0.9369   -1.9184    1.8341 H   0  0  0  0  0  0  0  0  0  0  0  0
   -1.4327    0.4965    1.8905 H   0  0  0  0  0  0  0  0  0  0  0  0
   -3.2024    2.5510   -0.1282 H   0  0  0  0  0  0  0  0  0  0  0  0
   -5.5392    2.2369   -0.8587 H   0  0  0  0  0  0  0  0  0  0  0  0
   -5.2684   -1.9280    0.0616 H   0  0  0  0  0  0  0  0  0  0  0  0
   -6.9115   -0.2579   -1.7927 H   0  0  0  0  0  0  0  0  0  0  0  0
   -0.7769   -1.3792   -1.7913 H   0  0  0  0  0  0  0  0  0  0  0  0
    7.3572   -0.6967   -0.5269 H   0  0  0  0  0  0  0  0  0  0  0  0
    6.6628   -1.1312    1.0534 H   0  0  0  0  0  0  0  0  0  0  0  0
    6.4160   -2.1971   -0.3505 H   0  0  0  0  0  0  0  0  0  0  0  0
  1  2  1  0  0  0  0
  2  3  1  0  0  0  0
  3  4  2  0  0  0  0
  4  5  1  0  0  0  0
  5  6  2  0  0  0  0
  6  7  1  0  0  0  0
  7  8  2  0  0  0  0
  8  9  1  0  0  0  0
  9 10  2  0  0  0  0
  5 10  1  0  0  0  0
 10 11  1  0  0  0  0
  2 11  1  0  0  0  0
  8 12  1  0  0  0  0
 12 13  1  0  0  0  0
 13 14  1  0  0  0  0
 14 15  1  0  0  0  0
 15 16  2  0  0  0  0
 16 17  1  0  0  0  0
 12 17  1  0  0  0  0
 17 18  1  0  0  0  0
  7 18  1  0  0  0  0
 16 19  1  0  0  0  0
 19 20  2  0  0  0  0
 20 21  1  0  0  0  0
 21 22  2  0  0  0  0
 15 22  1  0  0  0  0
 21 23  1  0  0  0  0
 12 24  1  0  0  0  0
  2 25  1  0  0  0  0
  1 26  1  0  0  0  0
  1 27  1  0  0  0  0
  1 28  1  0  0  0  0
  3 29  1  0  0  0  0
  4 30  1  0  0  0  0
  6 31  1  0  0  0  0
  9 32  1  0  0  0  0
 13 33  1  0  0  0  0
 13 34  1  0  0  0  0
 17 35  1  0  0  0  0
 19 36  1  0  0  0  0
 20 37  1  0  0  0  0
 22 38  1  0  0  0  0
 23 39  1  0  0  0  0
 24 40  1  0  0  0  0
 25 41  1  0  0  0  0
 25 42  1  0  0  0  0
 25 43  1  0  0  0  0
M  END
$$$$
