C18H16O6
APtclcactv06291803083D 0   0.00000     0.00000
 
 40 42  0  0  0  0  0  0  0  0999 V2000
    3.2873   -1.2217    0.2965 C   0  0  0  0  0  0  0  0  0  0  0  0
    1.9415   -1.4975    0.3778 C   0  0  0  0  0  0  0  0  0  0  0  0
    1.0058   -0.5600   -0.0471 C   0  0  0  0  0  0  0  0  0  0  0  0
    1.4275    0.6647   -0.5611 C   0  0  0  0  0  0  0  0  0  0  0  0
    2.7768    0.9508   -0.6455 C   0  0  0  0  0  0  0  0  0  0  0  0
    3.7190    0.0081   -0.2165 C   0  0  0  0  0  0  0  0  0  0  0  0
    5.1533    0.3072   -0.3043 C   0  0  0  0  0  0  0  0  0  0  0  0
    6.0632   -0.6075    0.1119 C   0  0  0  0  0  0  0  0  0  0  0  0
    7.4389   -0.3206    0.0276 C   0  0  0  0  0  0  0  0  0  0  0  0
    8.2542   -1.1402    0.4006 O   0  0  0  0  0  0  0  0  0  0  0  0
    0.5235    1.5890   -0.9876 O   0  0  0  0  0  0  0  0  0  0  0  0
   -0.8265    1.4219   -0.5410 C   0  0  0  0  0  0  0  0  0  0  0  0
   -1.2145   -0.0513   -0.7266 C   0  0  0  0  0  0  0  0  0  0  0  0
   -0.3184   -0.8528    0.0504 O   0  0  0  0  0  0  0  0  0  0  0  0
   -2.6291   -0.2675   -0.2542 C   0  0  0  0  0  0  0  0  0  0  0  0
   -3.6613   -0.3263   -1.1719 C   0  0  0  0  0  0  0  0  0  0  0  0
   -4.9625   -0.5251   -0.7393 C   0  0  0  0  0  0  0  0  0  0  0  0
   -5.2269   -0.6650    0.6197 C   0  0  0  0  0  0  0  0  0  0  0  0
   -4.1877   -0.6051    1.5343 C   0  0  0  0  0  0  0  0  0  0  0  0
   -2.8910   -0.4122    1.0956 C   0  0  0  0  0  0  0  0  0  0  0  0
   -6.5024   -0.8598    1.0493 O   0  0  0  0  0  0  0  0  0  0  0  0
   -5.9791   -0.5828   -1.6408 O   0  0  0  0  0  0  0  0  0  0  0  0
   -0.9316    1.8010    0.9375 C   0  0  0  0  0  0  0  0  0  0  0  0
   -0.6546    3.1942    1.0929 O   0  0  0  0  0  0  0  0  0  0  0  0
    4.0097   -1.9510    0.6321 H   0  0  0  0  0  0  0  0  0  0  0  0
    1.6102   -2.4465    0.7729 H   0  0  0  0  0  0  0  0  0  0  0  0
    3.1042    1.9005   -1.0421 H   0  0  0  0  0  0  0  0  0  0  0  0
    5.4838    1.2560   -0.7005 H   0  0  0  0  0  0  0  0  0  0  0  0
    5.7327   -1.5563    0.5081 H   0  0  0  0  0  0  0  0  0  0  0  0
    7.7694    0.6282   -0.3686 H   0  0  0  0  0  0  0  0  0  0  0  0
   -1.4899    2.0540   -1.1313 H   0  0  0  0  0  0  0  0  0  0  0  0
   -1.1322   -0.3232   -1.7789 H   0  0  0  0  0  0  0  0  0  0  0  0
   -3.4534   -0.2171   -2.2261 H   0  0  0  0  0  0  0  0  0  0  0  0
   -4.3902   -0.7134    2.5897 H   0  0  0  0  0  0  0  0  0  0  0  0
   -2.0820   -0.3656    1.8094 H   0  0  0  0  0  0  0  0  0  0  0  0
   -6.7610   -1.7900    1.1050 H   0  0  0  0  0  0  0  0  0  0  0  0
   -6.1625   -1.4732   -1.9703 H   0  0  0  0  0  0  0  0  0  0  0  0
   -1.9386    1.5885    1.2964 H   0  0  0  0  0  0  0  0  0  0  0  0
   -0.2107    1.2208    1.5135 H   0  0  0  0  0  0  0  0  0  0  0  0
   -0.7033    3.5054    2.0072 H   0  0  0  0  0  0  0  0  0  0  0  0
  1  2  2  0  0  0  0
  2  3  1  0  0  0  0
  3  4  2  0  0  0  0
  4  5  1  0  0  0  0
  5  6  2  0  0  0  0
  1  6  1  0  0  0  0
  6  7  1  0  0  0  0
  7  8  2  0  0  0  0
  8  9  1  0  0  0  0
  9 10  2  0  0  0  0
  4 11  1  0  0  0  0
 11 12  1  0  0  0  0
 12 13  1  0  0  0  0
 13 14  1  0  0  0  0
  3 14  1  0  0  0  0
 13 15  1  0  0  0  0
 15 16  2  0  0  0  0
 16 17  1  0  0  0  0
 17 18  2  0  0  0  0
 18 19  1  0  0  0  0
 19 20  2  0  0  0  0
 15 20  1  0  0  0  0
 18 21  1  0  0  0  0
 17 22  1  0  0  0  0
 12 23  1  0  0  0  0
 23 24  1  0  0  0  0
  1 25  1  0  0  0  0
  2 26  1  0  0  0  0
  5 27  1  0  0  0  0
  7 28  1  0  0  0  0
  8 29  1  0  0  0  0
  9 30  1  0  0  0  0
 12 31  1  0  0  0  0
 13 32  1  0  0  0  0
 16 33  1  0  0  0  0
 19 34  1  0  0  0  0
 20 35  1  0  0  0  0
 21 36  1  0  0  0  0
 22 37  1  0  0  0  0
 23 38  1  0  0  0  0
 23 39  1  0  0  0  0
 24 40  1  0  0  0  0
M  END
$$$$
