C27H36O9
APtclcactv06291803123D 0   0.00000     0.00000
 
 72 72  0  0  0  0  0  0  0  0999 V2000
   -6.6757    1.4569    1.0901 C   0  0  0  0  0  0  0  0  0  0  0  0
   -6.6810    0.2042    0.2524 C   0  0  0  0  0  0  0  0  0  0  0  0
   -5.4942   -0.4132   -0.0695 C   0  0  0  0  0  0  0  0  0  0  0  0
   -4.2799    0.1232    0.3818 C   0  0  0  0  0  0  0  0  0  0  0  0
   -3.0929   -0.4943    0.0598 C   0  0  0  0  0  0  0  0  0  0  0  0
   -1.8787    0.0421    0.5112 C   0  0  0  0  0  0  0  0  0  0  0  0
   -0.6918   -0.5753    0.1893 C   0  0  0  0  0  0  0  0  0  0  0  0
   -0.6971   -1.8280   -0.6484 C   0  0  0  0  0  0  0  0  0  0  0  0
    0.5229   -0.0387    0.6408 C   0  0  0  0  0  0  0  0  0  0  0  0
    1.7007   -0.6514    0.3213 C   0  0  0  0  0  0  0  0  0  0  0  0
    2.9170   -0.1141    0.7734 C   0  0  0  0  0  0  0  0  0  0  0  0
    4.0922   -0.7254    0.4547 C   0  0  0  0  0  0  0  0  0  0  0  0
    4.0869   -1.9781   -0.3830 C   0  0  0  0  0  0  0  0  0  0  0  0
    5.3154   -0.1851    0.9093 C   0  0  0  0  0  0  0  0  0  0  0  0
    5.3197    0.8267    1.5860 O   0  0  0  0  0  0  0  0  0  0  0  0
    6.4800   -0.7909    0.5935 O   0  0  0  0  0  0  0  0  0  0  0  0
    7.6788   -0.1897    1.0869 C   0  0  0  0  0  0  0  0  0  0  0  0
    8.8764   -1.0769    0.7371 C   0  0  0  0  0  0  0  0  0  0  0  0
    8.9998   -1.1773   -0.7864 C   0  0  0  0  0  0  0  0  0  0  0  0
    9.1303    0.2325   -1.3710 C   0  0  0  0  0  0  0  0  0  0  0  0
    7.9229    1.0692   -0.9398 C   0  0  0  0  0  0  0  0  0  0  0  0
    7.8489    1.0961    0.4871 O   0  0  0  0  0  0  0  0  0  0  0  0
    8.0755    2.4963   -1.4698 C   0  0  0  0  0  0  0  0  0  0  0  0
    6.8966    3.2452   -1.1677 O   0  0  0  0  0  0  0  0  0  0  0  0
   10.3298    0.8407   -0.8879 O   0  0  0  0  0  0  0  0  0  0  0  0
   10.1582   -1.9434   -1.1227 O   0  0  0  0  0  0  0  0  0  0  0  0
   10.0691   -0.5035    1.2761 O   0  0  0  0  0  0  0  0  0  0  0  0
   -7.8958   -0.3324   -0.1992 C   0  0  0  0  0  0  0  0  0  0  0  0
   -9.0735    0.2803    0.1203 C   0  0  0  0  0  0  0  0  0  0  0  0
  -10.2899   -0.2570   -0.3318 C   0  0  0  0  0  0  0  0  0  0  0  0
  -11.4651    0.3543   -0.0130 C   0  0  0  0  0  0  0  0  0  0  0  0
  -11.4598    1.6070    0.8247 C   0  0  0  0  0  0  0  0  0  0  0  0
  -12.6883   -0.1860   -0.4677 C   0  0  0  0  0  0  0  0  0  0  0  0
  -12.6925   -1.1979   -1.1443 O   0  0  0  0  0  0  0  0  0  0  0  0
  -13.8529    0.4198   -0.1518 O   0  0  0  0  0  0  0  0  0  0  0  0
  -15.0516   -0.1814   -0.6453 C   0  0  0  0  0  0  0  0  0  0  0  0
   -6.6092    2.3288    0.4394 H   0  0  0  0  0  0  0  0  0  0  0  0
   -7.5952    1.5080    1.6732 H   0  0  0  0  0  0  0  0  0  0  0  0
   -5.8188    1.4400    1.7636 H   0  0  0  0  0  0  0  0  0  0  0  0
   -5.4980   -1.3110   -0.6699 H   0  0  0  0  0  0  0  0  0  0  0  0
   -4.2762    1.0210    0.9822 H   0  0  0  0  0  0  0  0  0  0  0  0
   -3.0967   -1.3921   -0.5405 H   0  0  0  0  0  0  0  0  0  0  0  0
   -1.8749    0.9398    1.1115 H   0  0  0  0  0  0  0  0  0  0  0  0
   -0.6332   -1.5601   -1.7031 H   0  0  0  0  0  0  0  0  0  0  0  0
    0.1572   -2.4490   -0.3789 H   0  0  0  0  0  0  0  0  0  0  0  0
   -1.6192   -2.3810   -0.4693 H   0  0  0  0  0  0  0  0  0  0  0  0
    0.5267    0.8591    1.2411 H   0  0  0  0  0  0  0  0  0  0  0  0
    1.6969   -1.5491   -0.2790 H   0  0  0  0  0  0  0  0  0  0  0  0
    2.9208    0.7837    1.3738 H   0  0  0  0  0  0  0  0  0  0  0  0
    4.1509   -1.7103   -1.4377 H   0  0  0  0  0  0  0  0  0  0  0  0
    4.9413   -2.5991   -0.1135 H   0  0  0  0  0  0  0  0  0  0  0  0
    3.1649   -2.5311   -0.2038 H   0  0  0  0  0  0  0  0  0  0  0  0
    7.6115   -0.0801    2.1693 H   0  0  0  0  0  0  0  0  0  0  0  0
    8.7275   -2.0718    1.1568 H   0  0  0  0  0  0  0  0  0  0  0  0
    8.1111   -1.6599   -1.1932 H   0  0  0  0  0  0  0  0  0  0  0  0
    9.1631    0.1741   -2.4590 H   0  0  0  0  0  0  0  0  0  0  0  0
    7.0117    0.6270   -1.3427 H   0  0  0  0  0  0  0  0  0  0  0  0
    8.9370    2.9689   -0.9981 H   0  0  0  0  0  0  0  0  0  0  0  0
    8.2219    2.4691   -2.5496 H   0  0  0  0  0  0  0  0  0  0  0  0
    6.9232    4.1616   -1.4752 H   0  0  0  0  0  0  0  0  0  0  0  0
   11.1359    0.3600   -1.1208 H   0  0  0  0  0  0  0  0  0  0  0  0
   10.1460   -2.8468   -0.7780 H   0  0  0  0  0  0  0  0  0  0  0  0
   10.0586   -0.4055    2.2380 H   0  0  0  0  0  0  0  0  0  0  0  0
   -7.8996   -1.2302   -0.7995 H   0  0  0  0  0  0  0  0  0  0  0  0
   -9.0698    1.1780    0.7207 H   0  0  0  0  0  0  0  0  0  0  0  0
  -10.2937   -1.1548   -0.9321 H   0  0  0  0  0  0  0  0  0  0  0  0
  -11.3933    2.4790    0.1740 H   0  0  0  0  0  0  0  0  0  0  0  0
  -12.3793    1.6581    1.4078 H   0  0  0  0  0  0  0  0  0  0  0  0
  -10.6029    1.5901    1.4982 H   0  0  0  0  0  0  0  0  0  0  0  0
  -15.0222   -0.2096   -1.7345 H   0  0  0  0  0  0  0  0  0  0  0  0
  -15.1351   -1.1967   -0.2577 H   0  0  0  0  0  0  0  0  0  0  0  0
  -15.9120    0.4035   -0.3201 H   0  0  0  0  0  0  0  0  0  0  0  0
  1  2  1  0  0  0  0
  2  3  2  0  0  0  0
  3  4  1  0  0  0  0
  4  5  2  0  0  0  0
  5  6  1  0  0  0  0
  6  7  2  0  0  0  0
  7  8  1  0  0  0  0
  7  9  1  0  0  0  0
  9 10  2  0  0  0  0
 10 11  1  0  0  0  0
 11 12  2  0  0  0  0
 12 13  1  0  0  0  0
 12 14  1  0  0  0  0
 14 15  2  0  0  0  0
 14 16  1  0  0  0  0
 16 17  1  0  0  0  0
 17 18  1  0  0  0  0
 18 19  1  0  0  0  0
 19 20  1  0  0  0  0
 20 21  1  0  0  0  0
 21 22  1  0  0  0  0
 17 22  1  0  0  0  0
 21 23  1  0  0  0  0
 23 24  1  0  0  0  0
 20 25  1  0  0  0  0
 19 26  1  0  0  0  0
 18 27  1  0  0  0  0
  2 28  1  0  0  0  0
 28 29  2  0  0  0  0
 29 30  1  0  0  0  0
 30 31  2  0  0  0  0
 31 32  1  0  0  0  0
 31 33  1  0  0  0  0
 33 34  2  0  0  0  0
 33 35  1  0  0  0  0
 35 36  1  0  0  0  0
  1 37  1  0  0  0  0
  1 38  1  0  0  0  0
  1 39  1  0  0  0  0
  3 40  1  0  0  0  0
  4 41  1  0  0  0  0
  5 42  1  0  0  0  0
  6 43  1  0  0  0  0
  8 44  1  0  0  0  0
  8 45  1  0  0  0  0
  8 46  1  0  0  0  0
  9 47  1  0  0  0  0
 10 48  1  0  0  0  0
 11 49  1  0  0  0  0
 13 50  1  0  0  0  0
 13 51  1  0  0  0  0
 13 52  1  0  0  0  0
 17 53  1  0  0  0  0
 18 54  1  0  0  0  0
 19 55  1  0  0  0  0
 20 56  1  0  0  0  0
 21 57  1  0  0  0  0
 23 58  1  0  0  0  0
 23 59  1  0  0  0  0
 24 60  1  0  0  0  0
 25 61  1  0  0  0  0
 26 62  1  0  0  0  0
 27 63  1  0  0  0  0
 28 64  1  0  0  0  0
 29 65  1  0  0  0  0
 30 66  1  0  0  0  0
 32 67  1  0  0  0  0
 32 68  1  0  0  0  0
 32 69  1  0  0  0  0
 36 70  1  0  0  0  0
 36 71  1  0  0  0  0
 36 72  1  0  0  0  0
M  END
$$$$
