C17H21NO3
APtclcactv06291803133D 0   0.00000     0.00000
 
 42 43  0  0  0  0  0  0  0  0999 V2000
    6.1961    2.2421    0.2495 C   0  0  0  0  0  0  0  0  0  0  0  0
    6.2784    0.8192    0.1470 O   0  0  0  0  0  0  0  0  0  0  0  0
    5.1049    0.1377    0.0582 C   0  0  0  0  0  0  0  0  0  0  0  0
    5.1126   -1.2530   -0.0443 C   0  0  0  0  0  0  0  0  0  0  0  0
    3.9170   -1.9535   -0.1347 C   0  0  0  0  0  0  0  0  0  0  0  0
    2.7164   -1.2784   -0.1237 C   0  0  0  0  0  0  0  0  0  0  0  0
    2.7000    0.1179   -0.0210 C   0  0  0  0  0  0  0  0  0  0  0  0
    3.9060    0.8227    0.0754 C   0  0  0  0  0  0  0  0  0  0  0  0
    1.4213    0.8408   -0.0090 C   0  0  0  0  0  0  0  0  0  0  0  0
    0.2562    0.1568   -0.0972 C   0  0  0  0  0  0  0  0  0  0  0  0
   -0.9717    0.8510   -0.0857 C   0  0  0  0  0  0  0  0  0  0  0  0
   -2.1402    0.1650   -0.1742 C   0  0  0  0  0  0  0  0  0  0  0  0
   -3.3724    0.8617   -0.1626 C   0  0  0  0  0  0  0  0  0  0  0  0
   -3.3894    2.0659    0.0176 O   0  0  0  0  0  0  0  0  0  0  0  0
   -4.5269    0.1921   -0.3509 N   0  0  0  0  0  0  0  0  0  0  0  0
   -4.5339   -1.2735   -0.4544 C   0  0  0  0  0  0  0  0  0  0  0  0
   -5.5317   -1.8348    0.5635 C   0  0  0  0  0  0  0  0  0  0  0  0
   -6.8988   -1.1827    0.3447 C   0  0  0  0  0  0  0  0  0  0  0  0
   -6.7859    0.3280    0.5617 C   0  0  0  0  0  0  0  0  0  0  0  0
   -5.8030    0.9135   -0.4506 C   0  0  0  0  0  0  0  0  0  0  0  0
    6.2933   -1.9245   -0.0562 O   0  0  0  0  0  0  0  0  0  0  0  0
    5.6915    2.6412   -0.6305 H   0  0  0  0  0  0  0  0  0  0  0  0
    5.6335    2.5101    1.1437 H   0  0  0  0  0  0  0  0  0  0  0  0
    7.2006    2.6605    0.3132 H   0  0  0  0  0  0  0  0  0  0  0  0
    3.9285   -3.0305   -0.2143 H   0  0  0  0  0  0  0  0  0  0  0  0
    1.7881   -1.8258   -0.1945 H   0  0  0  0  0  0  0  0  0  0  0  0
    3.8989    1.8997    0.1548 H   0  0  0  0  0  0  0  0  0  0  0  0
    1.4106    1.9178    0.0703 H   0  0  0  0  0  0  0  0  0  0  0  0
    0.2669   -0.9202   -0.1765 H   0  0  0  0  0  0  0  0  0  0  0  0
   -0.9824    1.9280   -0.0064 H   0  0  0  0  0  0  0  0  0  0  0  0
   -2.1295   -0.9120   -0.2534 H   0  0  0  0  0  0  0  0  0  0  0  0
   -4.8337   -1.5673   -1.4603 H   0  0  0  0  0  0  0  0  0  0  0  0
   -3.5374   -1.6597   -0.2404 H   0  0  0  0  0  0  0  0  0  0  0  0
   -5.6179   -2.9134    0.4317 H   0  0  0  0  0  0  0  0  0  0  0  0
   -5.1825   -1.6179    1.5730 H   0  0  0  0  0  0  0  0  0  0  0  0
   -7.2362   -1.3792   -0.6730 H   0  0  0  0  0  0  0  0  0  0  0  0
   -7.6168   -1.5984    1.0517 H   0  0  0  0  0  0  0  0  0  0  0  0
   -7.7646    0.7889    0.4287 H   0  0  0  0  0  0  0  0  0  0  0  0
   -6.4248    0.5246    1.5712 H   0  0  0  0  0  0  0  0  0  0  0  0
   -5.6443    1.9704   -0.2366 H   0  0  0  0  0  0  0  0  0  0  0  0
   -6.2038    0.7986   -1.4577 H   0  0  0  0  0  0  0  0  0  0  0  0
    6.6071   -2.1840    0.8209 H   0  0  0  0  0  0  0  0  0  0  0  0
  1  2  1  0  0  0  0
  2  3  1  0  0  0  0
  3  4  2  0  0  0  0
  4  5  1  0  0  0  0
  5  6  2  0  0  0  0
  6  7  1  0  0  0  0
  7  8  2  0  0  0  0
  3  8  1  0  0  0  0
  7  9  1  0  0  0  0
  9 10  2  0  0  0  0
 10 11  1  0  0  0  0
 11 12  2  0  0  0  0
 12 13  1  0  0  0  0
 13 14  2  0  0  0  0
 13 15  1  0  0  0  0
 15 16  1  0  0  0  0
 16 17  1  0  0  0  0
 17 18  1  0  0  0  0
 18 19  1  0  0  0  0
 19 20  1  0  0  0  0
 15 20  1  0  0  0  0
  4 21  1  0  0  0  0
  1 22  1  0  0  0  0
  1 23  1  0  0  0  0
  1 24  1  0  0  0  0
  5 25  1  0  0  0  0
  6 26  1  0  0  0  0
  8 27  1  0  0  0  0
  9 28  1  0  0  0  0
 10 29  1  0  0  0  0
 11 30  1  0  0  0  0
 12 31  1  0  0  0  0
 16 32  1  0  0  0  0
 16 33  1  0  0  0  0
 17 34  1  0  0  0  0
 17 35  1  0  0  0  0
 18 36  1  0  0  0  0
 18 37  1  0  0  0  0
 19 38  1  0  0  0  0
 19 39  1  0  0  0  0
 20 40  1  0  0  0  0
 20 41  1  0  0  0  0
 21 42  1  0  0  0  0
M  END
$$$$
