C26H33N3O6
APtclcactv06291803093D 0   0.00000     0.00000
 
 68 69  0  0  0  0  0  0  0  0999 V2000
   13.4717    2.2913   -0.0047 C   0  0  0  0  0  0  0  0  0  0  0  0
   13.5786    0.8663   -0.0047 O   0  0  0  0  0  0  0  0  0  0  0  0
   12.4165    0.1599   -0.0041 C   0  0  0  0  0  0  0  0  0  0  0  0
   12.4483   -1.2341   -0.0041 C   0  0  0  0  0  0  0  0  0  0  0  0
   11.2642   -1.9596   -0.0038 C   0  0  0  0  0  0  0  0  0  0  0  0
   10.0517   -1.3059   -0.0036 C   0  0  0  0  0  0  0  0  0  0  0  0
   10.0115    0.0931   -0.0031 C   0  0  0  0  0  0  0  0  0  0  0  0
   11.2055    0.8234    0.0023 C   0  0  0  0  0  0  0  0  0  0  0  0
    8.7190    0.7934   -0.0034 C   0  0  0  0  0  0  0  0  0  0  0  0
    7.5687    0.0870   -0.0041 C   0  0  0  0  0  0  0  0  0  0  0  0
    6.2828    0.7838   -0.0043 C   0  0  0  0  0  0  0  0  0  0  0  0
    6.2499    2.0005   -0.0039 O   0  0  0  0  0  0  0  0  0  0  0  0
    5.1343    0.0786   -0.0050 N   0  0  0  0  0  0  0  0  0  0  0  0
    3.8462    0.7764   -0.0052 C   0  0  0  0  0  0  0  0  0  0  0  0
    2.7106   -0.2489   -0.0060 C   0  0  0  0  0  0  0  0  0  0  0  0
    1.3654    0.4800   -0.0063 C   0  0  0  0  0  0  0  0  0  0  0  0
    0.2298   -0.5454   -0.0071 C   0  0  0  0  0  0  0  0  0  0  0  0
   -1.0618    0.1544   -0.0073 N   0  0  0  0  0  0  0  0  0  0  0  0
   -2.1780   -0.8006   -0.0081 C   0  0  0  0  0  0  0  0  0  0  0  0
   -3.5033   -0.0361   -0.0084 C   0  0  0  0  0  0  0  0  0  0  0  0
   -4.6659   -1.0308   -0.0091 C   0  0  0  0  0  0  0  0  0  0  0  0
   -5.9349   -0.2988   -0.0094 N   0  0  0  0  0  0  0  0  0  0  0  0
   -7.1018   -0.9731   -0.0101 C   0  0  0  0  0  0  0  0  0  0  0  0
   -7.1013   -2.1903   -0.0105 O   0  0  0  0  0  0  0  0  0  0  0  0
   -8.3687   -0.2424   -0.0103 C   0  0  0  0  0  0  0  0  0  0  0  0
   -9.5374   -0.9177   -0.0110 C   0  0  0  0  0  0  0  0  0  0  0  0
  -10.8108   -0.1832   -0.0112 C   0  0  0  0  0  0  0  0  0  0  0  0
  -12.0238   -0.8815   -0.0119 C   0  0  0  0  0  0  0  0  0  0  0  0
  -13.2167   -0.1859   -0.0122 C   0  0  0  0  0  0  0  0  0  0  0  0
  -13.2112    1.2085   -0.0117 C   0  0  0  0  0  0  0  0  0  0  0  0
  -12.0083    1.9021   -0.0110 C   0  0  0  0  0  0  0  0  0  0  0  0
  -10.8136    1.2163   -0.0049 C   0  0  0  0  0  0  0  0  0  0  0  0
  -14.3860    1.8903   -0.0124 O   0  0  0  0  0  0  0  0  0  0  0  0
  -14.3973   -0.8610   -0.0133 O   0  0  0  0  0  0  0  0  0  0  0  0
   13.6408   -1.8843   -0.0047 O   0  0  0  0  0  0  0  0  0  0  0  0
   12.9316    2.6151   -0.8943 H   0  0  0  0  0  0  0  0  0  0  0  0
   12.9326    2.6151    0.8856 H   0  0  0  0  0  0  0  0  0  0  0  0
   14.4692    2.7305   -0.0052 H   0  0  0  0  0  0  0  0  0  0  0  0
   11.2941   -3.0391   -0.0042 H   0  0  0  0  0  0  0  0  0  0  0  0
    9.1324   -1.8727   -0.0041 H   0  0  0  0  0  0  0  0  0  0  0  0
   11.1797    1.9031    0.0027 H   0  0  0  0  0  0  0  0  0  0  0  0
    8.6898    1.8730   -0.0030 H   0  0  0  0  0  0  0  0  0  0  0  0
    7.5980   -0.9926   -0.0044 H   0  0  0  0  0  0  0  0  0  0  0  0
    5.1605   -0.8911   -0.0053 H   0  0  0  0  0  0  0  0  0  0  0  0
    3.7712    1.4010    0.8849 H   0  0  0  0  0  0  0  0  0  0  0  0
    3.7719    1.4016   -0.8950 H   0  0  0  0  0  0  0  0  0  0  0  0
    2.7856   -0.8735   -0.8962 H   0  0  0  0  0  0  0  0  0  0  0  0
    2.7849   -0.8741    0.8837 H   0  0  0  0  0  0  0  0  0  0  0  0
    1.2903    1.1045    0.8839 H   0  0  0  0  0  0  0  0  0  0  0  0
    1.2910    1.1051   -0.8961 H   0  0  0  0  0  0  0  0  0  0  0  0
    0.3048   -1.1699   -0.8973 H   0  0  0  0  0  0  0  0  0  0  0  0
    0.3041   -1.1706    0.8827 H   0  0  0  0  0  0  0  0  0  0  0  0
   -1.1294    0.7890    0.7742 H   0  0  0  0  0  0  0  0  0  0  0  0
   -2.1197   -1.4269   -0.8983 H   0  0  0  0  0  0  0  0  0  0  0  0
   -2.1204   -1.4276    0.8817 H   0  0  0  0  0  0  0  0  0  0  0  0
   -3.5616    0.5902    0.8818 H   0  0  0  0  0  0  0  0  0  0  0  0
   -3.5610    0.5908   -0.8981 H   0  0  0  0  0  0  0  0  0  0  0  0
   -4.6075   -1.6571   -0.8993 H   0  0  0  0  0  0  0  0  0  0  0  0
   -4.6082   -1.6578    0.8806 H   0  0  0  0  0  0  0  0  0  0  0  0
   -5.9352    0.6712   -0.0090 H   0  0  0  0  0  0  0  0  0  0  0  0
   -8.3691    0.8376   -0.0099 H   0  0  0  0  0  0  0  0  0  0  0  0
   -9.5370   -1.9977   -0.0114 H   0  0  0  0  0  0  0  0  0  0  0  0
  -12.0268   -1.9615   -0.0126 H   0  0  0  0  0  0  0  0  0  0  0  0
  -12.0093    2.9821   -0.0107 H   0  0  0  0  0  0  0  0  0  0  0  0
   -9.8796    1.7584   -0.0041 H   0  0  0  0  0  0  0  0  0  0  0  0
  -14.7268    2.0874    0.8708 H   0  0  0  0  0  0  0  0  0  0  0  0
  -14.7392   -1.0568    0.8698 H   0  0  0  0  0  0  0  0  0  0  0  0
   13.9866   -2.0725    0.8785 H   0  0  0  0  0  0  0  0  0  0  0  0
  1  2  1  0  0  0  0
  2  3  1  0  0  0  0
  3  4  2  0  0  0  0
  4  5  1  0  0  0  0
  5  6  2  0  0  0  0
  6  7  1  0  0  0  0
  7  8  2  0  0  0  0
  3  8  1  0  0  0  0
  7  9  1  0  0  0  0
  9 10  2  0  0  0  0
 10 11  1  0  0  0  0
 11 12  2  0  0  0  0
 11 13  1  0  0  0  0
 13 14  1  0  0  0  0
 14 15  1  0  0  0  0
 15 16  1  0  0  0  0
 16 17  1  0  0  0  0
 17 18  1  0  0  0  0
 18 19  1  0  0  0  0
 19 20  1  0  0  0  0
 20 21  1  0  0  0  0
 21 22  1  0  0  0  0
 22 23  1  0  0  0  0
 23 24  2  0  0  0  0
 23 25  1  0  0  0  0
 25 26  2  0  0  0  0
 26 27  1  0  0  0  0
 27 28  2  0  0  0  0
 28 29  1  0  0  0  0
 29 30  2  0  0  0  0
 30 31  1  0  0  0  0
 31 32  2  0  0  0  0
 27 32  1  0  0  0  0
 30 33  1  0  0  0  0
 29 34  1  0  0  0  0
  4 35  1  0  0  0  0
  1 36  1  0  0  0  0
  1 37  1  0  0  0  0
  1 38  1  0  0  0  0
  5 39  1  0  0  0  0
  6 40  1  0  0  0  0
  8 41  1  0  0  0  0
  9 42  1  0  0  0  0
 10 43  1  0  0  0  0
 13 44  1  0  0  0  0
 14 45  1  0  0  0  0
 14 46  1  0  0  0  0
 15 47  1  0  0  0  0
 15 48  1  0  0  0  0
 16 49  1  0  0  0  0
 16 50  1  0  0  0  0
 17 51  1  0  0  0  0
 17 52  1  0  0  0  0
 18 53  1  0  0  0  0
 19 54  1  0  0  0  0
 19 55  1  0  0  0  0
 20 56  1  0  0  0  0
 20 57  1  0  0  0  0
 21 58  1  0  0  0  0
 21 59  1  0  0  0  0
 22 60  1  0  0  0  0
 25 61  1  0  0  0  0
 26 62  1  0  0  0  0
 28 63  1  0  0  0  0
 31 64  1  0  0  0  0
 32 65  1  0  0  0  0
 33 66  1  0  0  0  0
 34 67  1  0  0  0  0
 35 68  1  0  0  0  0
M  END
$$$$
