C25H34O6
APtclcactv06281817013D 0   0.00000     0.00000
 
 65 67  0  0  0  0  0  0  0  0999 V2000
    5.8945   -0.6900    0.6274 C   0  0  0  0  0  0  0  0  0  0  0  0
    4.7429   -1.0245   -0.2852 C   0  0  0  0  0  0  0  0  0  0  0  0
    3.5118   -1.1318    0.2087 C   0  0  0  0  0  0  0  0  0  0  0  0
    3.2693   -0.9189    1.6808 C   0  0  0  0  0  0  0  0  0  0  0  0
    2.3888   -1.4580   -0.6812 C   0  0  0  0  0  0  0  0  0  0  0  0
    2.5989   -1.7546   -1.8410 O   0  0  0  0  0  0  0  0  0  0  0  0
    1.1258   -1.4282   -0.2113 O   0  0  0  0  0  0  0  0  0  0  0  0
    0.0790   -1.8916   -1.1045 C   0  0  0  0  0  0  0  0  0  0  0  0
   -0.0826   -3.4150   -0.9754 C   0  0  0  0  0  0  0  0  0  0  0  0
   -0.4969   -3.8170    0.4367 C   0  0  0  0  0  0  0  0  0  0  0  0
   -1.7686   -3.0761    0.8828 C   0  0  0  0  0  0  0  0  0  0  0  0
   -1.4801   -1.5917    0.7843 C   0  0  0  0  0  0  0  0  0  0  0  0
   -1.2471   -1.2637   -0.7160 C   0  0  0  0  0  0  0  0  0  0  0  0
   -1.2815    0.2703   -0.7090 C   0  0  0  0  0  0  0  0  0  0  0  0
   -2.4427    0.5815    0.2621 C   0  0  0  0  0  0  0  0  0  0  0  0
   -2.6109   -0.6456    1.1798 C   0  0  0  0  0  0  0  0  0  0  0  0
   -2.1319    1.8126    1.0743 C   0  0  0  0  0  0  0  0  0  0  0  0
   -1.1198    2.0097    1.8823 C   0  0  0  0  0  0  0  0  0  0  0  0
   -3.2580    2.7701    0.7417 C   0  0  0  0  0  0  0  0  0  0  0  0
   -4.1363    2.1033   -0.1992 O   0  0  0  0  0  0  0  0  0  0  0  0
   -3.7069    0.8710   -0.4906 C   0  0  0  0  0  0  0  0  0  0  0  0
   -4.2555    0.1053   -1.2473 O   0  0  0  0  0  0  0  0  0  0  0  0
   -0.0312    0.8107   -0.2058 O   0  0  0  0  0  0  0  0  0  0  0  0
    0.3850    1.9805   -0.7305 C   0  0  0  0  0  0  0  0  0  0  0  0
   -0.2233    2.4824   -1.6552 O   0  0  0  0  0  0  0  0  0  0  0  0
    1.5743    2.6489   -0.1843 C   0  0  0  0  0  0  0  0  0  0  0  0
    2.0000    3.7910   -0.7186 C   0  0  0  0  0  0  0  0  0  0  0  0
    3.2196    4.4765   -0.1586 C   0  0  0  0  0  0  0  0  0  0  0  0
    2.3119    2.0411    0.9808 C   0  0  0  0  0  0  0  0  0  0  0  0
   -0.2224   -1.2553    1.5881 C   0  0  0  0  0  0  0  0  0  0  0  0
   -2.9348   -3.4424   -0.0372 C   0  0  0  0  0  0  0  0  0  0  0  0
    5.7151    0.2758    1.0997 H   0  0  0  0  0  0  0  0  0  0  0  0
    5.9848   -1.4586    1.3950 H   0  0  0  0  0  0  0  0  0  0  0  0
    6.8164   -0.6454    0.0477 H   0  0  0  0  0  0  0  0  0  0  0  0
    4.9166   -1.1771   -1.3402 H   0  0  0  0  0  0  0  0  0  0  0  0
    3.1475    0.1460    1.8787 H   0  0  0  0  0  0  0  0  0  0  0  0
    2.3659   -1.4499    1.9808 H   0  0  0  0  0  0  0  0  0  0  0  0
    4.1193   -1.2989    2.2477 H   0  0  0  0  0  0  0  0  0  0  0  0
    0.3271   -1.6307   -2.1333 H   0  0  0  0  0  0  0  0  0  0  0  0
   -0.8429   -3.7533   -1.6794 H   0  0  0  0  0  0  0  0  0  0  0  0
    0.8651   -3.8954   -1.2188 H   0  0  0  0  0  0  0  0  0  0  0  0
   -0.6829   -4.8907    0.4614 H   0  0  0  0  0  0  0  0  0  0  0  0
    0.3134   -3.5810    1.1266 H   0  0  0  0  0  0  0  0  0  0  0  0
   -2.0099   -3.3399    1.9126 H   0  0  0  0  0  0  0  0  0  0  0  0
   -2.0533   -1.6714   -1.3258 H   0  0  0  0  0  0  0  0  0  0  0  0
   -1.4972    0.6563   -1.7052 H   0  0  0  0  0  0  0  0  0  0  0  0
   -3.5779   -1.1181    1.0073 H   0  0  0  0  0  0  0  0  0  0  0  0
   -2.5122   -0.3533    2.2253 H   0  0  0  0  0  0  0  0  0  0  0  0
   -0.3536    1.2551    1.9820 H   0  0  0  0  0  0  0  0  0  0  0  0
   -1.0516    2.9267    2.4486 H   0  0  0  0  0  0  0  0  0  0  0  0
   -3.8093    3.0216    1.6478 H   0  0  0  0  0  0  0  0  0  0  0  0
   -2.8523    3.6758    0.2909 H   0  0  0  0  0  0  0  0  0  0  0  0
    1.4714    4.2266   -1.5537 H   0  0  0  0  0  0  0  0  0  0  0  0
    3.0485    4.7236    0.8892 H   0  0  0  0  0  0  0  0  0  0  0  0
    4.0794    3.8114   -0.2393 H   0  0  0  0  0  0  0  0  0  0  0  0
    3.4130    5.3902   -0.7205 H   0  0  0  0  0  0  0  0  0  0  0  0
    3.1431    1.4406    0.6113 H   0  0  0  0  0  0  0  0  0  0  0  0
    2.6942    2.8347    1.6228 H   0  0  0  0  0  0  0  0  0  0  0  0
    1.6318    1.4083    1.5512 H   0  0  0  0  0  0  0  0  0  0  0  0
    0.5568   -1.9844    1.3656 H   0  0  0  0  0  0  0  0  0  0  0  0
    0.1254   -0.2582    1.3183 H   0  0  0  0  0  0  0  0  0  0  0  0
   -0.4533   -1.2839    2.6530 H   0  0  0  0  0  0  0  0  0  0  0  0
   -3.1943   -4.4915    0.1051 H   0  0  0  0  0  0  0  0  0  0  0  0
   -3.7964   -2.8193    0.2026 H   0  0  0  0  0  0  0  0  0  0  0  0
   -2.6447   -3.2774   -1.0749 H   0  0  0  0  0  0  0  0  0  0  0  0
  1  2  1  0  0  0  0
  2  3  2  0  0  0  0
  3  4  1  0  0  0  0
  3  5  1  0  0  0  0
  5  6  2  0  0  0  0
  5  7  1  0  0  0  0
  7  8  1  0  0  0  0
  8  9  1  0  0  0  0
  9 10  1  0  0  0  0
 10 11  1  0  0  0  0
 11 12  1  0  0  0  0
 12 13  1  0  0  0  0
  8 13  1  0  0  0  0
 13 14  1  0  0  0  0
 14 15  1  0  0  0  0
 15 16  1  0  0  0  0
 12 16  1  0  0  0  0
 15 17  1  0  0  0  0
 17 18  2  0  0  0  0
 17 19  1  0  0  0  0
 19 20  1  0  0  0  0
 20 21  1  0  0  0  0
 15 21  1  0  0  0  0
 21 22  2  0  0  0  0
 14 23  1  0  0  0  0
 23 24  1  0  0  0  0
 24 25  2  0  0  0  0
 24 26  1  0  0  0  0
 26 27  2  0  0  0  0
 27 28  1  0  0  0  0
 26 29  1  0  0  0  0
 12 30  1  0  0  0  0
 11 31  1  0  0  0  0
  1 32  1  0  0  0  0
  1 33  1  0  0  0  0
  1 34  1  0  0  0  0
  2 35  1  0  0  0  0
  4 36  1  0  0  0  0
  4 37  1  0  0  0  0
  4 38  1  0  0  0  0
  8 39  1  0  0  0  0
  9 40  1  0  0  0  0
  9 41  1  0  0  0  0
 10 42  1  0  0  0  0
 10 43  1  0  0  0  0
 11 44  1  0  0  0  0
 13 45  1  0  0  0  0
 14 46  1  0  0  0  0
 16 47  1  0  0  0  0
 16 48  1  0  0  0  0
 18 49  1  0  0  0  0
 18 50  1  0  0  0  0
 19 51  1  0  0  0  0
 19 52  1  0  0  0  0
 27 53  1  0  0  0  0
 28 54  1  0  0  0  0
 28 55  1  0  0  0  0
 28 56  1  0  0  0  0
 29 57  1  0  0  0  0
 29 58  1  0  0  0  0
 29 59  1  0  0  0  0
 30 60  1  0  0  0  0
 30 61  1  0  0  0  0
 30 62  1  0  0  0  0
 31 63  1  0  0  0  0
 31 64  1  0  0  0  0
 31 65  1  0  0  0  0
M  END
$$$$
