C15H20O3
APtclcactv06291803103D 0   0.00000     0.00000
 
 38 39  0  0  0  0  0  0  0  0999 V2000
    3.8789    2.0406   -0.3395 C   0  0  0  0  0  0  0  0  0  0  0  0
    2.6791    1.1347   -0.2353 C   0  0  0  0  0  0  0  0  0  0  0  0
    2.8470   -0.2118    0.0514 C   0  0  0  0  0  0  0  0  0  0  0  0
    1.7415   -1.0411    0.1427 C   0  0  0  0  0  0  0  0  0  0  0  0
    0.4654   -0.5331   -0.0497 C   0  0  0  0  0  0  0  0  0  0  0  0
   -0.7001   -1.4826    0.0524 C   0  0  0  0  0  0  0  0  0  0  0  0
   -1.8534   -1.0252   -0.8400 C   0  0  0  0  0  0  0  0  0  0  0  0
   -2.7708   -0.0999   -0.0291 C   0  0  0  0  0  0  0  0  0  0  0  0
   -1.9354    1.0873    0.4635 C   0  0  0  0  0  0  0  0  0  0  0  0
   -0.9301    1.3551   -0.5180 O   0  0  0  0  0  0  0  0  0  0  0  0
    0.2994    0.8095   -0.3301 C   0  0  0  0  0  0  0  0  0  0  0  0
    1.4098    1.6433   -0.4192 C   0  0  0  0  0  0  0  0  0  0  0  0
   -2.8318    2.3153    0.6348 C   0  0  0  0  0  0  0  0  0  0  0  0
   -1.2751    0.7369    1.7985 C   0  0  0  0  0  0  0  0  0  0  0  0
   -3.8359    0.3704   -0.8576 O   0  0  0  0  0  0  0  0  0  0  0  0
   -0.2577   -2.8582   -0.3753 C   0  0  0  0  0  0  0  0  0  0  0  0
   -0.3377   -3.8620    0.4627 C   0  0  0  0  0  0  0  0  0  0  0  0
    4.0949   -0.7170    0.2422 O   0  0  0  0  0  0  0  0  0  0  0  0
    4.2360    2.0535   -1.3692 H   0  0  0  0  0  0  0  0  0  0  0  0
    3.5989    3.0503   -0.0393 H   0  0  0  0  0  0  0  0  0  0  0  0
    4.6696    1.6731    0.3147 H   0  0  0  0  0  0  0  0  0  0  0  0
    1.8740   -2.0897    0.3646 H   0  0  0  0  0  0  0  0  0  0  0  0
   -1.0410   -1.5218    1.0870 H   0  0  0  0  0  0  0  0  0  0  0  0
   -1.4577   -0.4850   -1.7000 H   0  0  0  0  0  0  0  0  0  0  0  0
   -2.4184   -1.8931   -1.1800 H   0  0  0  0  0  0  0  0  0  0  0  0
   -3.1791   -0.6418    0.8239 H   0  0  0  0  0  0  0  0  0  0  0  0
    1.2779    2.6926   -0.6383 H   0  0  0  0  0  0  0  0  0  0  0  0
   -3.6124    2.0966    1.3635 H   0  0  0  0  0  0  0  0  0  0  0  0
   -2.2331    3.1561    0.9851 H   0  0  0  0  0  0  0  0  0  0  0  0
   -3.2885    2.5681   -0.3220 H   0  0  0  0  0  0  0  0  0  0  0  0
   -0.5433   -0.0562    1.6448 H   0  0  0  0  0  0  0  0  0  0  0  0
   -0.7760    1.6191    2.1995 H   0  0  0  0  0  0  0  0  0  0  0  0
   -2.0355    0.3984    2.5022 H   0  0  0  0  0  0  0  0  0  0  0  0
   -4.3921   -0.3327   -1.2201 H   0  0  0  0  0  0  0  0  0  0  0  0
    0.1252   -3.0166   -1.3726 H   0  0  0  0  0  0  0  0  0  0  0  0
   -0.0207   -4.8479    0.1562 H   0  0  0  0  0  0  0  0  0  0  0  0
   -0.7206   -3.7036    1.4600 H   0  0  0  0  0  0  0  0  0  0  0  0
    4.3953   -0.6869    1.1608 H   0  0  0  0  0  0  0  0  0  0  0  0
  1  2  1  0  0  0  0
  2  3  2  0  0  0  0
  3  4  1  0  0  0  0
  4  5  2  0  0  0  0
  5  6  1  0  0  0  0
  6  7  1  0  0  0  0
  7  8  1  0  0  0  0
  8  9  1  0  0  0  0
  9 10  1  0  0  0  0
 10 11  1  0  0  0  0
  5 11  1  0  0  0  0
 11 12  2  0  0  0  0
  2 12  1  0  0  0  0
  9 13  1  0  0  0  0
  9 14  1  0  0  0  0
  8 15  1  0  0  0  0
  6 16  1  0  0  0  0
 16 17  2  0  0  0  0
  3 18  1  0  0  0  0
  1 19  1  0  0  0  0
  1 20  1  0  0  0  0
  1 21  1  0  0  0  0
  4 22  1  0  0  0  0
  6 23  1  0  0  0  0
  7 24  1  0  0  0  0
  7 25  1  0  0  0  0
  8 26  1  0  0  0  0
 12 27  1  0  0  0  0
 13 28  1  0  0  0  0
 13 29  1  0  0  0  0
 13 30  1  0  0  0  0
 14 31  1  0  0  0  0
 14 32  1  0  0  0  0
 14 33  1  0  0  0  0
 15 34  1  0  0  0  0
 16 35  1  0  0  0  0
 17 36  1  0  0  0  0
 17 37  1  0  0  0  0
 18 38  1  0  0  0  0
M  END
$$$$
