C40H56O4
APtclcactv06291803113D 0   0.00000     0.00000
 
100103  0  0  0  0  0  0  0  0999 V2000
   -3.0182    0.2477    1.7763 C   0  0  0  0  0  0  0  0  0  0  0  0
   -2.9924    0.2477    0.2695 C   0  0  0  0  0  0  0  0  0  0  0  0
   -1.8002    0.2477   -0.3918 C   0  0  0  0  0  0  0  0  0  0  0  0
   -0.5966    0.2477    0.3309 C   0  0  0  0  0  0  0  0  0  0  0  0
    0.5966    0.2477   -0.3309 C   0  0  0  0  0  0  0  0  0  0  0  0
    1.8002    0.2477    0.3918 C   0  0  0  0  0  0  0  0  0  0  0  0
    2.9924    0.2477   -0.2695 C   0  0  0  0  0  0  0  0  0  0  0  0
    3.0182    0.2477   -1.7763 C   0  0  0  0  0  0  0  0  0  0  0  0
    4.1986    0.2477    0.4548 C   0  0  0  0  0  0  0  0  0  0  0  0
    5.3862    0.2477   -0.2040 C   0  0  0  0  0  0  0  0  0  0  0  0
    6.6020    0.2477    0.5261 C   0  0  0  0  0  0  0  0  0  0  0  0
    7.7704    0.2477   -0.1220 C   0  0  0  0  0  0  0  0  0  0  0  0
    7.7963    0.2477   -1.6288 C   0  0  0  0  0  0  0  0  0  0  0  0
    9.0624    0.2477    0.6537 C   0  0  0  0  0  0  0  0  0  0  0  0
    9.8215   -1.0414    0.4084 C   0  0  0  0  0  0  0  0  0  0  0  0
   11.0709   -0.7448    0.2401 C   0  0  0  0  0  0  0  0  0  0  0  0
   12.2614   -1.6204   -0.0785 C   0  0  0  0  0  0  0  0  0  0  0  0
   13.5078   -0.7844    0.2390 C   0  0  0  0  0  0  0  0  0  0  0  0
   13.5529    0.5043   -0.5641 C   0  0  0  0  0  0  0  0  0  0  0  0
   12.1968    1.1735   -0.7480 C   0  0  0  0  0  0  0  0  0  0  0  0
   11.2437    0.7648    0.3764 C   0  0  0  0  0  0  0  0  0  0  0  0
    9.9292    1.3022    0.1810 O   0  0  0  0  0  0  0  0  0  0  0  0
   11.8130    1.1380    1.7466 C   0  0  0  0  0  0  0  0  0  0  0  0
   14.4262    1.4216    0.0977 O   0  0  0  0  0  0  0  0  0  0  0  0
   12.2366   -2.8782    0.7923 C   0  0  0  0  0  0  0  0  0  0  0  0
   12.2498   -2.0045   -1.5595 C   0  0  0  0  0  0  0  0  0  0  0  0
   -4.1986    0.2477   -0.4548 C   0  0  0  0  0  0  0  0  0  0  0  0
   -5.3862    0.2477    0.2040 C   0  0  0  0  0  0  0  0  0  0  0  0
   -6.6020    0.2477   -0.5261 C   0  0  0  0  0  0  0  0  0  0  0  0
   -7.7704    0.2477    0.1220 C   0  0  0  0  0  0  0  0  0  0  0  0
   -7.7963    0.2477    1.6288 C   0  0  0  0  0  0  0  0  0  0  0  0
   -9.0624    0.2477   -0.6537 C   0  0  0  0  0  0  0  0  0  0  0  0
   -9.8215   -1.0414   -0.4084 C   0  0  0  0  0  0  0  0  0  0  0  0
  -11.0709   -0.7448   -0.2401 C   0  0  0  0  0  0  0  0  0  0  0  0
  -12.2614   -1.6204    0.0785 C   0  0  0  0  0  0  0  0  0  0  0  0
  -13.5078   -0.7844   -0.2390 C   0  0  0  0  0  0  0  0  0  0  0  0
  -13.5529    0.5043    0.5641 C   0  0  0  0  0  0  0  0  0  0  0  0
  -12.1968    1.1735    0.7480 C   0  0  0  0  0  0  0  0  0  0  0  0
  -11.2437    0.7648   -0.3764 C   0  0  0  0  0  0  0  0  0  0  0  0
   -9.9292    1.3022   -0.1810 O   0  0  0  0  0  0  0  0  0  0  0  0
  -11.8129    1.1380   -1.7466 C   0  0  0  0  0  0  0  0  0  0  0  0
  -14.4262    1.4216   -0.0977 O   0  0  0  0  0  0  0  0  0  0  0  0
  -12.2366   -2.8782   -0.7923 C   0  0  0  0  0  0  0  0  0  0  0  0
  -12.2498   -2.0045    1.5595 C   0  0  0  0  0  0  0  0  0  0  0  0
   -3.0245    1.2753    2.1396 H   0  0  0  0  0  0  0  0  0  0  0  0
   -3.9143   -0.2661    2.1243 H   0  0  0  0  0  0  0  0  0  0  0  0
   -2.1346   -0.2661    2.1548 H   0  0  0  0  0  0  0  0  0  0  0  0
   -1.7817    0.2477   -1.4716 H   0  0  0  0  0  0  0  0  0  0  0  0
   -0.6152    0.2477    1.4108 H   0  0  0  0  0  0  0  0  0  0  0  0
    0.6152    0.2477   -1.4108 H   0  0  0  0  0  0  0  0  0  0  0  0
    1.7817    0.2477    1.4716 H   0  0  0  0  0  0  0  0  0  0  0  0
    3.0245    1.2753   -2.1396 H   0  0  0  0  0  0  0  0  0  0  0  0
    3.9143   -0.2661   -2.1243 H   0  0  0  0  0  0  0  0  0  0  0  0
    2.1346   -0.2661   -2.1548 H   0  0  0  0  0  0  0  0  0  0  0  0
    4.1801    0.2477    1.5346 H   0  0  0  0  0  0  0  0  0  0  0  0
    5.4048    0.2477   -1.2838 H   0  0  0  0  0  0  0  0  0  0  0  0
    6.5835    0.2477    1.6059 H   0  0  0  0  0  0  0  0  0  0  0  0
    7.8025    1.2753   -1.9921 H   0  0  0  0  0  0  0  0  0  0  0  0
    8.6924   -0.2661   -1.9768 H   0  0  0  0  0  0  0  0  0  0  0  0
    6.9127   -0.2661   -2.0074 H   0  0  0  0  0  0  0  0  0  0  0  0
    8.8625    0.3708    1.7182 H   0  0  0  0  0  0  0  0  0  0  0  0
    9.3952   -2.0332    0.3796 H   0  0  0  0  0  0  0  0  0  0  0  0
   13.5086   -0.5397    1.3012 H   0  0  0  0  0  0  0  0  0  0  0  0
   14.3963   -1.3738    0.0126 H   0  0  0  0  0  0  0  0  0  0  0  0
   13.9674    0.2851   -1.5481 H   0  0  0  0  0  0  0  0  0  0  0  0
   12.3245    2.2560   -0.7367 H   0  0  0  0  0  0  0  0  0  0  0  0
   11.7736    0.8732   -1.7065 H   0  0  0  0  0  0  0  0  0  0  0  0
   11.8146    2.2225    1.8562 H   0  0  0  0  0  0  0  0  0  0  0  0
   11.1969    0.6947    2.5290 H   0  0  0  0  0  0  0  0  0  0  0  0
   12.8329    0.7628    1.8308 H   0  0  0  0  0  0  0  0  0  0  0  0
   14.5132    2.2744   -0.3499 H   0  0  0  0  0  0  0  0  0  0  0  0
   11.3202   -3.4359    0.5990 H   0  0  0  0  0  0  0  0  0  0  0  0
   13.0984   -3.5017    0.5547 H   0  0  0  0  0  0  0  0  0  0  0  0
   12.2733   -2.5929    1.8437 H   0  0  0  0  0  0  0  0  0  0  0  0
   12.2958   -1.1021   -2.1692 H   0  0  0  0  0  0  0  0  0  0  0  0
   13.1115   -2.6351   -1.7781 H   0  0  0  0  0  0  0  0  0  0  0  0
   11.3336   -2.5498   -1.7862 H   0  0  0  0  0  0  0  0  0  0  0  0
   -4.1801    0.2477   -1.5346 H   0  0  0  0  0  0  0  0  0  0  0  0
   -5.4048    0.2477    1.2838 H   0  0  0  0  0  0  0  0  0  0  0  0
   -6.5835    0.2477   -1.6059 H   0  0  0  0  0  0  0  0  0  0  0  0
   -7.8025    1.2753    1.9921 H   0  0  0  0  0  0  0  0  0  0  0  0
   -8.6924   -0.2661    1.9768 H   0  0  0  0  0  0  0  0  0  0  0  0
   -6.9127   -0.2661    2.0074 H   0  0  0  0  0  0  0  0  0  0  0  0
   -8.8625    0.3708   -1.7182 H   0  0  0  0  0  0  0  0  0  0  0  0
   -9.3952   -2.0332   -0.3796 H   0  0  0  0  0  0  0  0  0  0  0  0
  -13.5086   -0.5397   -1.3012 H   0  0  0  0  0  0  0  0  0  0  0  0
  -14.3963   -1.3738   -0.0126 H   0  0  0  0  0  0  0  0  0  0  0  0
  -13.9674    0.2851    1.5481 H   0  0  0  0  0  0  0  0  0  0  0  0
  -12.3245    2.2560    0.7367 H   0  0  0  0  0  0  0  0  0  0  0  0
  -11.7736    0.8732    1.7065 H   0  0  0  0  0  0  0  0  0  0  0  0
  -11.8111    2.2223   -1.8577 H   0  0  0  0  0  0  0  0  0  0  0  0
  -11.1991    0.6916   -2.5289 H   0  0  0  0  0  0  0  0  0  0  0  0
  -12.8342    0.7660   -1.8294 H   0  0  0  0  0  0  0  0  0  0  0  0
  -14.5132    2.2744    0.3499 H   0  0  0  0  0  0  0  0  0  0  0  0
  -11.3202   -3.4359   -0.5990 H   0  0  0  0  0  0  0  0  0  0  0  0
  -13.0984   -3.5017   -0.5547 H   0  0  0  0  0  0  0  0  0  0  0  0
  -12.2733   -2.5929   -1.8437 H   0  0  0  0  0  0  0  0  0  0  0  0
  -12.2959   -1.1021    2.1692 H   0  0  0  0  0  0  0  0  0  0  0  0
  -13.1115   -2.6351    1.7781 H   0  0  0  0  0  0  0  0  0  0  0  0
  -11.3336   -2.5498    1.7862 H   0  0  0  0  0  0  0  0  0  0  0  0
  1  2  1  0  0  0  0
  2  3  2  0  0  0  0
  3  4  1  0  0  0  0
  4  5  2  0  0  0  0
  5  6  1  0  0  0  0
  6  7  2  0  0  0  0
  7  8  1  0  0  0  0
  7  9  1  0  0  0  0
  9 10  2  0  0  0  0
 10 11  1  0  0  0  0
 11 12  2  0  0  0  0
 12 13  1  0  0  0  0
 12 14  1  0  0  0  0
 14 15  1  0  0  0  0
 15 16  2  0  0  0  0
 16 17  1  0  0  0  0
 17 18  1  0  0  0  0
 18 19  1  0  0  0  0
 19 20  1  0  0  0  0
 20 21  1  0  0  0  0
 16 21  1  0  0  0  0
 21 22  1  0  0  0  0
 14 22  1  0  0  0  0
 21 23  1  0  0  0  0
 19 24  1  0  0  0  0
 17 25  1  0  0  0  0
 17 26  1  0  0  0  0
  2 27  1  0  0  0  0
 27 28  2  0  0  0  0
 28 29  1  0  0  0  0
 29 30  2  0  0  0  0
 30 31  1  0  0  0  0
 30 32  1  0  0  0  0
 32 33  1  0  0  0  0
 33 34  2  0  0  0  0
 34 35  1  0  0  0  0
 35 36  1  0  0  0  0
 36 37  1  0  0  0  0
 37 38  1  0  0  0  0
 38 39  1  0  0  0  0
 34 39  1  0  0  0  0
 39 40  1  0  0  0  0
 32 40  1  0  0  0  0
 39 41  1  0  0  0  0
 37 42  1  0  0  0  0
 35 43  1  0  0  0  0
 35 44  1  0  0  0  0
  1 45  1  0  0  0  0
  1 46  1  0  0  0  0
  1 47  1  0  0  0  0
  3 48  1  0  0  0  0
  4 49  1  0  0  0  0
  5 50  1  0  0  0  0
  6 51  1  0  0  0  0
  8 52  1  0  0  0  0
  8 53  1  0  0  0  0
  8 54  1  0  0  0  0
  9 55  1  0  0  0  0
 10 56  1  0  0  0  0
 11 57  1  0  0  0  0
 13 58  1  0  0  0  0
 13 59  1  0  0  0  0
 13 60  1  0  0  0  0
 14 61  1  0  0  0  0
 15 62  1  0  0  0  0
 18 63  1  0  0  0  0
 18 64  1  0  0  0  0
 19 65  1  0  0  0  0
 20 66  1  0  0  0  0
 20 67  1  0  0  0  0
 23 68  1  0  0  0  0
 23 69  1  0  0  0  0
 23 70  1  0  0  0  0
 24 71  1  0  0  0  0
 25 72  1  0  0  0  0
 25 73  1  0  0  0  0
 25 74  1  0  0  0  0
 26 75  1  0  0  0  0
 26 76  1  0  0  0  0
 26 77  1  0  0  0  0
 27 78  1  0  0  0  0
 28 79  1  0  0  0  0
 29 80  1  0  0  0  0
 31 81  1  0  0  0  0
 31 82  1  0  0  0  0
 31 83  1  0  0  0  0
 32 84  1  0  0  0  0
 33 85  1  0  0  0  0
 36 86  1  0  0  0  0
 36 87  1  0  0  0  0
 37 88  1  0  0  0  0
 38 89  1  0  0  0  0
 38 90  1  0  0  0  0
 41 91  1  0  0  0  0
 41 92  1  0  0  0  0
 41 93  1  0  0  0  0
 42 94  1  0  0  0  0
 43 95  1  0  0  0  0
 43 96  1  0  0  0  0
 43 97  1  0  0  0  0
 44 98  1  0  0  0  0
 44 99  1  0  0  0  0
 44100  1  0  0  0  0
M  END
$$$$
