C25H24O14
APtclcactv06291803113D 0   0.00000     0.00000
 
 63 66  0  0  0  0  0  0  0  0999 V2000
   -6.0170   -2.7147   -2.4167 C   0  0  0  0  0  0  0  0  0  0  0  0
   -7.0374   -1.7618   -2.1120 O   0  0  0  0  0  0  0  0  0  0  0  0
   -6.7066   -0.7537   -1.2613 C   0  0  0  0  0  0  0  0  0  0  0  0
   -7.6541    0.2104   -0.9212 C   0  0  0  0  0  0  0  0  0  0  0  0
   -7.3200    1.2408   -0.0532 C   0  0  0  0  0  0  0  0  0  0  0  0
   -6.0500    1.3152    0.4769 C   0  0  0  0  0  0  0  0  0  0  0  0
   -5.0951    0.3517    0.1407 C   0  0  0  0  0  0  0  0  0  0  0  0
   -5.4331   -0.6884   -0.7296 C   0  0  0  0  0  0  0  0  0  0  0  0
   -3.7351    0.4298    0.7065 C   0  0  0  0  0  0  0  0  0  0  0  0
   -3.4369    1.4512    1.5539 C   0  0  0  0  0  0  0  0  0  0  0  0
   -2.1375    1.5424    2.1066 C   0  0  0  0  0  0  0  0  0  0  0  0
   -1.8353    2.4450    2.8704 O   0  0  0  0  0  0  0  0  0  0  0  0
   -1.1641    0.5054    1.7244 C   0  0  0  0  0  0  0  0  0  0  0  0
    0.1440    0.5165    2.2239 C   0  0  0  0  0  0  0  0  0  0  0  0
    1.0275   -0.4762    1.8412 C   0  0  0  0  0  0  0  0  0  0  0  0
    0.6180   -1.4768    0.9670 C   0  0  0  0  0  0  0  0  0  0  0  0
   -0.6757   -1.4935    0.4683 C   0  0  0  0  0  0  0  0  0  0  0  0
   -1.5755   -0.5074    0.8406 C   0  0  0  0  0  0  0  0  0  0  0  0
   -2.8406   -0.5129    0.3696 O   0  0  0  0  0  0  0  0  0  0  0  0
    1.4933   -2.4465    0.5978 O   0  0  0  0  0  0  0  0  0  0  0  0
    2.8112   -2.3736    1.1454 C   0  0  0  0  0  0  0  0  0  0  0  0
    3.6102   -3.6079    0.7191 C   0  0  0  0  0  0  0  0  0  0  0  0
    3.7410   -3.6197   -0.8070 C   0  0  0  0  0  0  0  0  0  0  0  0
    4.4009   -2.3144   -1.2620 C   0  0  0  0  0  0  0  0  0  0  0  0
    3.5714   -1.1301   -0.7591 C   0  0  0  0  0  0  0  0  0  0  0  0
    3.4628   -1.1964    0.6642 O   0  0  0  0  0  0  0  0  0  0  0  0
    4.2562    0.1786   -1.1582 C   0  0  0  0  0  0  0  0  0  0  0  0
    3.4120    1.2998   -0.7859 O   0  0  0  0  0  0  0  0  0  0  0  0
    3.8714    2.5289   -1.0690 C   0  0  0  0  0  0  0  0  0  0  0  0
    4.9434    2.6634   -1.6099 O   0  0  0  0  0  0  0  0  0  0  0  0
    3.0500    3.7409   -0.7121 C   0  0  0  0  0  0  0  0  0  0  0  0
    3.7848    4.9874   -1.1334 C   0  0  0  0  0  0  0  0  0  0  0  0
    4.8646    4.9005   -1.6685 O   0  0  0  0  0  0  0  0  0  0  0  0
    3.2396    6.1943   -0.9141 O   0  0  0  0  0  0  0  0  0  0  0  0
    5.7224   -2.2345   -0.7240 O   0  0  0  0  0  0  0  0  0  0  0  0
    4.5477   -4.7286   -1.2091 O   0  0  0  0  0  0  0  0  0  0  0  0
    4.9107   -3.5623    1.3095 O   0  0  0  0  0  0  0  0  0  0  0  0
    0.5419    1.4942    3.0768 O   0  0  0  0  0  0  0  0  0  0  0  0
   -8.9073    0.1417   -1.4409 O   0  0  0  0  0  0  0  0  0  0  0  0
   -5.1715   -2.2061   -2.8799 H   0  0  0  0  0  0  0  0  0  0  0  0
   -5.6892   -3.2021   -1.4985 H   0  0  0  0  0  0  0  0  0  0  0  0
   -6.4120   -3.4628   -3.1040 H   0  0  0  0  0  0  0  0  0  0  0  0
   -8.0569    1.9862    0.2072 H   0  0  0  0  0  0  0  0  0  0  0  0
   -5.7926    2.1181    1.1517 H   0  0  0  0  0  0  0  0  0  0  0  0
   -4.6982   -1.4352   -0.9917 H   0  0  0  0  0  0  0  0  0  0  0  0
   -4.1866    2.1876    1.8030 H   0  0  0  0  0  0  0  0  0  0  0  0
    2.0381   -0.4741    2.2221 H   0  0  0  0  0  0  0  0  0  0  0  0
   -0.9824   -2.2755   -0.2105 H   0  0  0  0  0  0  0  0  0  0  0  0
    2.7513   -2.3373    2.2332 H   0  0  0  0  0  0  0  0  0  0  0  0
    3.0916   -4.5088    1.0472 H   0  0  0  0  0  0  0  0  0  0  0  0
    2.7519   -3.7045   -1.2572 H   0  0  0  0  0  0  0  0  0  0  0  0
    4.4478   -2.2901   -2.3507 H   0  0  0  0  0  0  0  0  0  0  0  0
    2.5761   -1.1694   -1.2018 H   0  0  0  0  0  0  0  0  0  0  0  0
    5.2142    0.2588   -0.6444 H   0  0  0  0  0  0  0  0  0  0  0  0
    4.4199    0.1891   -2.2358 H   0  0  0  0  0  0  0  0  0  0  0  0
    2.0901    3.6937   -1.2264 H   0  0  0  0  0  0  0  0  0  0  0  0
    2.8844    3.7633    0.3650 H   0  0  0  0  0  0  0  0  0  0  0  0
    3.7484    6.9646   -1.2017 H   0  0  0  0  0  0  0  0  0  0  0  0
    6.3029   -2.9578   -0.9979 H   0  0  0  0  0  0  0  0  0  0  0  0
    4.1923   -5.5890   -0.9472 H   0  0  0  0  0  0  0  0  0  0  0  0
    4.9034   -3.5477    2.2764 H   0  0  0  0  0  0  0  0  0  0  0  0
    0.3994    1.2842    4.0099 H   0  0  0  0  0  0  0  0  0  0  0  0
   -9.5273   -0.3726   -0.9060 H   0  0  0  0  0  0  0  0  0  0  0  0
  1  2  1  0  0  0  0
  2  3  1  0  0  0  0
  3  4  2  0  0  0  0
  4  5  1  0  0  0  0
  5  6  2  0  0  0  0
  6  7  1  0  0  0  0
  7  8  2  0  0  0  0
  3  8  1  0  0  0  0
  7  9  1  0  0  0  0
  9 10  2  0  0  0  0
 10 11  1  0  0  0  0
 11 12  2  0  0  0  0
 11 13  1  0  0  0  0
 13 14  2  0  0  0  0
 14 15  1  0  0  0  0
 15 16  2  0  0  0  0
 16 17  1  0  0  0  0
 17 18  2  0  0  0  0
 13 18  1  0  0  0  0
 18 19  1  0  0  0  0
  9 19  1  0  0  0  0
 16 20  1  0  0  0  0
 20 21  1  0  0  0  0
 21 22  1  0  0  0  0
 22 23  1  0  0  0  0
 23 24  1  0  0  0  0
 24 25  1  0  0  0  0
 25 26  1  0  0  0  0
 21 26  1  0  0  0  0
 25 27  1  0  0  0  0
 27 28  1  0  0  0  0
 28 29  1  0  0  0  0
 29 30  2  0  0  0  0
 29 31  1  0  0  0  0
 31 32  1  0  0  0  0
 32 33  2  0  0  0  0
 32 34  1  0  0  0  0
 24 35  1  0  0  0  0
 23 36  1  0  0  0  0
 22 37  1  0  0  0  0
 14 38  1  0  0  0  0
  4 39  1  0  0  0  0
  1 40  1  0  0  0  0
  1 41  1  0  0  0  0
  1 42  1  0  0  0  0
  5 43  1  0  0  0  0
  6 44  1  0  0  0  0
  8 45  1  0  0  0  0
 10 46  1  0  0  0  0
 15 47  1  0  0  0  0
 17 48  1  0  0  0  0
 21 49  1  0  0  0  0
 22 50  1  0  0  0  0
 23 51  1  0  0  0  0
 24 52  1  0  0  0  0
 25 53  1  0  0  0  0
 27 54  1  0  0  0  0
 27 55  1  0  0  0  0
 31 56  1  0  0  0  0
 31 57  1  0  0  0  0
 34 58  1  0  0  0  0
 35 59  1  0  0  0  0
 36 60  1  0  0  0  0
 37 61  1  0  0  0  0
 38 62  1  0  0  0  0
 39 63  1  0  0  0  0
M  END
$$$$
