C37H38O18
APtclcactv06291803113D 0   0.00000     0.00000
 
 93 98  0  0  0  0  0  0  0  0999 V2000
  -11.6789   -1.4827    1.7711 C   0  0  0  0  0  0  0  0  0  0  0  0
  -10.9794   -2.6215    1.2654 O   0  0  0  0  0  0  0  0  0  0  0  0
   -9.6591   -2.4595    0.9824 C   0  0  0  0  0  0  0  0  0  0  0  0
   -8.9163   -3.5301    0.4856 C   0  0  0  0  0  0  0  0  0  0  0  0
   -7.5678   -3.3695    0.1952 C   0  0  0  0  0  0  0  0  0  0  0  0
   -6.9565   -2.1517    0.3962 C   0  0  0  0  0  0  0  0  0  0  0  0
   -7.6954   -1.0721    0.8941 C   0  0  0  0  0  0  0  0  0  0  0  0
   -9.0558   -1.2336    1.1816 C   0  0  0  0  0  0  0  0  0  0  0  0
   -7.0459    0.2284    1.1096 C   0  0  0  0  0  0  0  0  0  0  0  0
   -5.7339    0.3833    0.8272 C   0  0  0  0  0  0  0  0  0  0  0  0
   -5.1073    1.6380    1.0351 C   0  0  0  0  0  0  0  0  0  0  0  0
   -5.7511    2.5751    1.4679 O   0  0  0  0  0  0  0  0  0  0  0  0
   -3.7969    1.7927    0.7530 O   0  0  0  0  0  0  0  0  0  0  0  0
   -3.2310    3.0839    0.9866 C   0  0  0  0  0  0  0  0  0  0  0  0
   -1.7478    3.0663    0.6113 C   0  0  0  0  0  0  0  0  0  0  0  0
   -1.1711    4.4783    0.7427 C   0  0  0  0  0  0  0  0  0  0  0  0
    0.3266    4.4414    0.4238 C   0  0  0  0  0  0  0  0  0  0  0  0
    1.0128    3.4436    1.3619 C   0  0  0  0  0  0  0  0  0  0  0  0
    0.3517    2.0715    1.2066 C   0  0  0  0  0  0  0  0  0  0  0  0
   -1.0451    2.1827    1.4874 O   0  0  0  0  0  0  0  0  0  0  0  0
    0.5330    1.6039   -0.1315 O   0  0  0  0  0  0  0  0  0  0  0  0
    0.0499    0.2775   -0.3541 C   0  0  0  0  0  0  0  0  0  0  0  0
   -1.4160    0.3339   -0.7948 C   0  0  0  0  0  0  0  0  0  0  0  0
   -1.5083    1.0808   -2.1289 C   0  0  0  0  0  0  0  0  0  0  0  0
   -0.6184    0.3809   -3.1594 C   0  0  0  0  0  0  0  0  0  0  0  0
    0.7249    0.3352   -2.6739 O   0  0  0  0  0  0  0  0  0  0  0  0
    0.8797   -0.3914   -1.4531 C   0  0  0  0  0  0  0  0  0  0  0  0
    2.3325   -0.3974   -1.0527 C   0  0  0  0  0  0  0  0  0  0  0  0
    3.0747    0.7764   -1.1178 C   0  0  0  0  0  0  0  0  0  0  0  0
    4.4125    0.7878   -0.7534 C   0  0  0  0  0  0  0  0  0  0  0  0
    5.0231   -0.3780   -0.3190 C   0  0  0  0  0  0  0  0  0  0  0  0
    4.2748   -1.5662   -0.2518 C   0  0  0  0  0  0  0  0  0  0  0  0
    2.9228   -1.5693   -0.6159 C   0  0  0  0  0  0  0  0  0  0  0  0
    2.1999   -2.7160   -0.5512 O   0  0  0  0  0  0  0  0  0  0  0  0
    4.9445   -2.7929    0.2127 C   0  0  0  0  0  0  0  0  0  0  0  0
    4.3439   -3.8525    0.2906 O   0  0  0  0  0  0  0  0  0  0  0  0
    6.3115   -2.6951    0.5647 C   0  0  0  0  0  0  0  0  0  0  0  0
    6.9459   -1.4961    0.4639 C   0  0  0  0  0  0  0  0  0  0  0  0
    6.3248   -0.3845    0.0387 O   0  0  0  0  0  0  0  0  0  0  0  0
    8.3711   -1.4142    0.8354 C   0  0  0  0  0  0  0  0  0  0  0  0
    9.0507   -0.1964    0.7426 C   0  0  0  0  0  0  0  0  0  0  0  0
   10.3813   -0.1243    1.0910 C   0  0  0  0  0  0  0  0  0  0  0  0
   11.0481   -1.2602    1.5343 C   0  0  0  0  0  0  0  0  0  0  0  0
   10.3763   -2.4732    1.6277 C   0  0  0  0  0  0  0  0  0  0  0  0
    9.0442   -2.5530    1.2868 C   0  0  0  0  0  0  0  0  0  0  0  0
   12.3596   -1.1848    1.8767 O   0  0  0  0  0  0  0  0  0  0  0  0
    2.4841    1.9225   -1.5427 O   0  0  0  0  0  0  0  0  0  0  0  0
   -1.1268   -1.0438   -3.3888 C   0  0  0  0  0  0  0  0  0  0  0  0
   -0.3939   -1.6447   -4.4583 O   0  0  0  0  0  0  0  0  0  0  0  0
   -2.8623    1.0766   -2.5859 O   0  0  0  0  0  0  0  0  0  0  0  0
   -1.9185   -0.9943   -0.9548 O   0  0  0  0  0  0  0  0  0  0  0  0
    2.3982    3.3469    1.0255 O   0  0  0  0  0  0  0  0  0  0  0  0
    0.5168    4.0314   -0.9319 O   0  0  0  0  0  0  0  0  0  0  0  0
   -1.8332    5.3518   -0.1742 O   0  0  0  0  0  0  0  0  0  0  0  0
   -9.5133   -4.7335    0.2857 O   0  0  0  0  0  0  0  0  0  0  0  0
  -11.6328   -0.6743    1.0414 H   0  0  0  0  0  0  0  0  0  0  0  0
  -12.7201   -1.7478    1.9544 H   0  0  0  0  0  0  0  0  0  0  0  0
  -11.2173   -1.1573    2.7034 H   0  0  0  0  0  0  0  0  0  0  0  0
   -6.9968   -4.2018   -0.1890 H   0  0  0  0  0  0  0  0  0  0  0  0
   -5.9075   -2.0299    0.1701 H   0  0  0  0  0  0  0  0  0  0  0  0
   -9.6303   -0.4035    1.5656 H   0  0  0  0  0  0  0  0  0  0  0  0
   -7.6174    1.0604    1.4939 H   0  0  0  0  0  0  0  0  0  0  0  0
   -5.1623   -0.4486    0.4429 H   0  0  0  0  0  0  0  0  0  0  0  0
   -3.7509    3.8240    0.3783 H   0  0  0  0  0  0  0  0  0  0  0  0
   -3.3360    3.3413    2.0406 H   0  0  0  0  0  0  0  0  0  0  0  0
   -1.6372    2.7227   -0.4171 H   0  0  0  0  0  0  0  0  0  0  0  0
   -1.3179    4.8384    1.7610 H   0  0  0  0  0  0  0  0  0  0  0  0
    0.7551    5.4330    0.5697 H   0  0  0  0  0  0  0  0  0  0  0  0
    0.9101    3.7828    2.3926 H   0  0  0  0  0  0  0  0  0  0  0  0
    0.8075    1.3675    1.9028 H   0  0  0  0  0  0  0  0  0  0  0  0
    0.1315   -0.2992    0.5671 H   0  0  0  0  0  0  0  0  0  0  0  0
   -2.0033    0.8590   -0.0415 H   0  0  0  0  0  0  0  0  0  0  0  0
   -1.1714    2.1087   -1.9950 H   0  0  0  0  0  0  0  0  0  0  0  0
   -0.6468    0.9328   -4.0989 H   0  0  0  0  0  0  0  0  0  0  0  0
    0.5371   -1.4165   -1.5942 H   0  0  0  0  0  0  0  0  0  0  0  0
    4.9791    1.7056   -0.8085 H   0  0  0  0  0  0  0  0  0  0  0  0
    1.7656   -2.8596    0.3008 H   0  0  0  0  0  0  0  0  0  0  0  0
    6.8474   -3.5663    0.9114 H   0  0  0  0  0  0  0  0  0  0  0  0
    8.5334    0.6867    0.3979 H   0  0  0  0  0  0  0  0  0  0  0  0
   10.9073    0.8162    1.0193 H   0  0  0  0  0  0  0  0  0  0  0  0
   10.8984   -3.3537    1.9719 H   0  0  0  0  0  0  0  0  0  0  0  0
    8.5228   -3.4960    1.3599 H   0  0  0  0  0  0  0  0  0  0  0  0
   12.5114   -0.9722    2.8078 H   0  0  0  0  0  0  0  0  0  0  0  0
    2.0844    2.4452   -0.8341 H   0  0  0  0  0  0  0  0  0  0  0  0
   -0.9890   -1.6295   -2.4799 H   0  0  0  0  0  0  0  0  0  0  0  0
   -2.1858   -1.0148   -3.6453 H   0  0  0  0  0  0  0  0  0  0  0  0
   -0.6637   -2.5512   -4.6594 H   0  0  0  0  0  0  0  0  0  0  0  0
   -2.9947    1.5334   -3.4279 H   0  0  0  0  0  0  0  0  0  0  0  0
   -2.8436   -1.0339   -1.2334 H   0  0  0  0  0  0  0  0  0  0  0  0
    2.8957    2.7310    1.5806 H   0  0  0  0  0  0  0  0  0  0  0  0
    1.4440    3.9860   -1.2027 H   0  0  0  0  0  0  0  0  0  0  0  0
   -1.5172    6.2652   -0.1451 H   0  0  0  0  0  0  0  0  0  0  0  0
   -9.8927   -4.8425   -0.5971 H   0  0  0  0  0  0  0  0  0  0  0  0
  1  2  1  0  0  0  0
  2  3  1  0  0  0  0
  3  4  2  0  0  0  0
  4  5  1  0  0  0  0
  5  6  2  0  0  0  0
  6  7  1  0  0  0  0
  7  8  2  0  0  0  0
  3  8  1  0  0  0  0
  7  9  1  0  0  0  0
  9 10  2  0  0  0  0
 10 11  1  0  0  0  0
 11 12  2  0  0  0  0
 11 13  1  0  0  0  0
 13 14  1  0  0  0  0
 14 15  1  0  0  0  0
 15 16  1  0  0  0  0
 16 17  1  0  0  0  0
 17 18  1  0  0  0  0
 18 19  1  0  0  0  0
 19 20  1  0  0  0  0
 15 20  1  0  0  0  0
 19 21  1  0  0  0  0
 21 22  1  0  0  0  0
 22 23  1  0  0  0  0
 23 24  1  0  0  0  0
 24 25  1  0  0  0  0
 25 26  1  0  0  0  0
 26 27  1  0  0  0  0
 22 27  1  0  0  0  0
 27 28  1  0  0  0  0
 28 29  2  0  0  0  0
 29 30  1  0  0  0  0
 30 31  2  0  0  0  0
 31 32  1  0  0  0  0
 32 33  2  0  0  0  0
 28 33  1  0  0  0  0
 33 34  1  0  0  0  0
 32 35  1  0  0  0  0
 35 36  2  0  0  0  0
 35 37  1  0  0  0  0
 37 38  2  0  0  0  0
 38 39  1  0  0  0  0
 31 39  1  0  0  0  0
 38 40  1  0  0  0  0
 40 41  2  0  0  0  0
 41 42  1  0  0  0  0
 42 43  2  0  0  0  0
 43 44  1  0  0  0  0
 44 45  2  0  0  0  0
 40 45  1  0  0  0  0
 43 46  1  0  0  0  0
 29 47  1  0  0  0  0
 25 48  1  0  0  0  0
 48 49  1  0  0  0  0
 24 50  1  0  0  0  0
 23 51  1  0  0  0  0
 18 52  1  0  0  0  0
 17 53  1  0  0  0  0
 16 54  1  0  0  0  0
  4 55  1  0  0  0  0
  1 56  1  0  0  0  0
  1 57  1  0  0  0  0
  1 58  1  0  0  0  0
  5 59  1  0  0  0  0
  6 60  1  0  0  0  0
  8 61  1  0  0  0  0
  9 62  1  0  0  0  0
 10 63  1  0  0  0  0
 14 64  1  0  0  0  0
 14 65  1  0  0  0  0
 15 66  1  0  0  0  0
 16 67  1  0  0  0  0
 17 68  1  0  0  0  0
 18 69  1  0  0  0  0
 19 70  1  0  0  0  0
 22 71  1  0  0  0  0
 23 72  1  0  0  0  0
 24 73  1  0  0  0  0
 25 74  1  0  0  0  0
 27 75  1  0  0  0  0
 30 76  1  0  0  0  0
 34 77  1  0  0  0  0
 37 78  1  0  0  0  0
 41 79  1  0  0  0  0
 42 80  1  0  0  0  0
 44 81  1  0  0  0  0
 45 82  1  0  0  0  0
 46 83  1  0  0  0  0
 47 84  1  0  0  0  0
 48 85  1  0  0  0  0
 48 86  1  0  0  0  0
 49 87  1  0  0  0  0
 50 88  1  0  0  0  0
 51 89  1  0  0  0  0
 52 90  1  0  0  0  0
 53 91  1  0  0  0  0
 54 92  1  0  0  0  0
 55 93  1  0  0  0  0
M  END
$$$$
