C33H41O21
APtclcactv06291803123D 0   0.00000     0.00000
 
 95100  0  0  0  0  0  0  0  0999 V2000
   -4.3598    1.5599   -0.7543 C   0  0  0  0  0  0  0  0  0  0  0  0
   -5.7295    1.5673   -0.9123 C   0  0  0  0  0  0  0  0  0  0  0  0
   -6.5203    2.3666   -0.0992 C   0  0  0  0  0  0  0  0  0  0  0  0
   -5.9333    3.1655    0.8800 C   0  0  0  0  0  0  0  0  0  0  0  0
   -4.5607    3.1622    1.0430 C   0  0  0  0  0  0  0  0  0  0  0  0
   -3.7656    2.3575    0.2250 C   0  0  0  0  0  0  0  0  0  0  0  0
   -2.2963    2.3501    0.3959 C   0  0  0  0  0  0  0  0  0  0  0  0
   -1.6112    1.1265    0.2868 C   0  0  0  0  0  0  0  0  0  0  0  0
   -0.2426    1.1378    0.4482 C   0  0  0  0  0  0  0  0  0  0  0  0
    0.3280    2.4010    0.7099 C   0  0  0  0  0  0  0  0  0  0  0  0
    1.7137    2.5583    0.8953 C   0  0  0  0  0  0  0  0  0  0  0  0
    2.2249    3.8010    1.1464 C   0  0  0  0  0  0  0  0  0  0  0  0
    1.3834    4.9127    1.2205 C   0  0  0  0  0  0  0  0  0  0  0  0
    0.0230    4.7862    1.0432 C   0  0  0  0  0  0  0  0  0  0  0  0
   -0.5337    3.5246    0.7829 C   0  0  0  0  0  0  0  0  0  0  0  0
   -1.7335    3.3972    0.6186 O   0  3  0  0  0  0  0  0  0  0  0  0
    1.9140    6.1374    1.4716 O   0  0  0  0  0  0  0  0  0  0  0  0
    2.5383    1.4820    0.8256 O   0  0  0  0  0  0  0  0  0  0  0  0
    3.9333    1.7197    1.0245 C   0  0  0  0  0  0  0  0  0  0  0  0
    4.6823    0.3845    1.0344 C   0  0  0  0  0  0  0  0  0  0  0  0
    4.5162   -0.2952   -0.3282 C   0  0  0  0  0  0  0  0  0  0  0  0
    5.0244    0.6484   -1.4226 C   0  0  0  0  0  0  0  0  0  0  0  0
    4.2622    1.9733   -1.3375 C   0  0  0  0  0  0  0  0  0  0  0  0
    4.4334    2.5371   -0.0356 O   0  0  0  0  0  0  0  0  0  0  0  0
    4.8055    2.9430   -2.3889 C   0  0  0  0  0  0  0  0  0  0  0  0
    4.0188    4.1359   -2.3885 O   0  0  0  0  0  0  0  0  0  0  0  0
    6.4208    0.8879   -1.2360 O   0  0  0  0  0  0  0  0  0  0  0  0
    5.2726   -1.5074   -0.3531 O   0  0  0  0  0  0  0  0  0  0  0  0
    6.0696    0.6171    1.2860 O   0  0  0  0  0  0  0  0  0  0  0  0
   -2.2778   -0.0302    0.0309 O   0  0  0  0  0  0  0  0  0  0  0  0
   -1.4958   -1.2227   -0.0620 C   0  0  0  0  0  0  0  0  0  0  0  0
   -2.4229   -2.4296   -0.2279 C   0  0  0  0  0  0  0  0  0  0  0  0
   -3.2074   -2.2851   -1.5355 C   0  0  0  0  0  0  0  0  0  0  0  0
   -2.2196   -2.1467   -2.6981 C   0  0  0  0  0  0  0  0  0  0  0  0
   -1.3003   -0.9508   -2.4368 C   0  0  0  0  0  0  0  0  0  0  0  0
   -0.6244   -1.1343   -1.1912 O   0  0  0  0  0  0  0  0  0  0  0  0
   -0.2718   -0.8420   -3.5642 C   0  0  0  0  0  0  0  0  0  0  0  0
    0.5110    0.3397   -3.3825 O   0  0  0  0  0  0  0  0  0  0  0  0
   -1.4362   -3.3372   -2.8032 O   0  0  0  0  0  0  0  0  0  0  0  0
   -4.0214   -3.4425   -1.7351 O   0  0  0  0  0  0  0  0  0  0  0  0
   -1.6449   -3.6275   -0.2676 O   0  0  0  0  0  0  0  0  0  0  0  0
   -1.4239   -4.2198    1.0139 C   0  0  0  0  0  0  0  0  0  0  0  0
   -0.6921   -5.5533    0.8407 C   0  0  0  0  0  0  0  0  0  0  0  0
    0.6776   -5.2964    0.2049 C   0  0  0  0  0  0  0  0  0  0  0  0
    1.4594   -4.3140    1.0824 C   0  0  0  0  0  0  0  0  0  0  0  0
    0.6445   -3.0284    1.2463 C   0  0  0  0  0  0  0  0  0  0  0  0
   -0.6289   -3.3422    1.8138 O   0  0  0  0  0  0  0  0  0  0  0  0
    1.3917   -2.0651    2.1708 C   0  0  0  0  0  0  0  0  0  0  0  0
    0.6896   -0.8219    2.2313 O   0  0  0  0  0  0  0  0  0  0  0  0
    1.6908   -4.8995    2.3653 O   0  0  0  0  0  0  0  0  0  0  0  0
    1.3974   -6.5269    0.1067 O   0  0  0  0  0  0  0  0  0  0  0  0
   -0.5176   -6.1717    2.1171 O   0  0  0  0  0  0  0  0  0  0  0  0
   -6.7107    3.9486    1.6749 O   0  0  0  0  0  0  0  0  0  0  0  0
   -7.8698    2.3707   -0.2585 O   0  0  0  0  0  0  0  0  0  0  0  0
   -3.7469    0.9335   -1.3855 H   0  0  0  0  0  0  0  0  0  0  0  0
   -6.1878    0.9499   -1.6707 H   0  0  0  0  0  0  0  0  0  0  0  0
   -4.1043    3.7811    1.8013 H   0  0  0  0  0  0  0  0  0  0  0  0
    0.3531    0.2396    0.3794 H   0  0  0  0  0  0  0  0  0  0  0  0
    3.2884    3.9238    1.2891 H   0  0  0  0  0  0  0  0  0  0  0  0
   -0.6138    5.6563    1.1044 H   0  0  0  0  0  0  0  0  0  0  0  0
    2.1685    6.6262    0.6770 H   0  0  0  0  0  0  0  0  0  0  0  0
    4.0833    2.2277    1.9772 H   0  0  0  0  0  0  0  0  0  0  0  0
    4.2723   -0.2574    1.8141 H   0  0  0  0  0  0  0  0  0  0  0  0
    3.4628   -0.5176   -0.4988 H   0  0  0  0  0  0  0  0  0  0  0  0
    4.8591    0.1951   -2.4000 H   0  0  0  0  0  0  0  0  0  0  0  0
    3.2024    1.7954   -1.5201 H   0  0  0  0  0  0  0  0  0  0  0  0
    5.8408    3.1904   -2.1544 H   0  0  0  0  0  0  0  0  0  0  0  0
    4.7574    2.4764   -3.3728 H   0  0  0  0  0  0  0  0  0  0  0  0
    4.3070    4.7973   -3.0324 H   0  0  0  0  0  0  0  0  0  0  0  0
    6.9652    0.0896   -1.2728 H   0  0  0  0  0  0  0  0  0  0  0  0
    5.0082   -2.1498    0.3197 H   0  0  0  0  0  0  0  0  0  0  0  0
    6.2487    1.0505    2.1318 H   0  0  0  0  0  0  0  0  0  0  0  0
   -0.9040   -1.3409    0.8457 H   0  0  0  0  0  0  0  0  0  0  0  0
   -3.1178   -2.4731    0.6108 H   0  0  0  0  0  0  0  0  0  0  0  0
   -3.8387   -1.3978   -1.4859 H   0  0  0  0  0  0  0  0  0  0  0  0
   -2.7690   -1.9880   -3.6260 H   0  0  0  0  0  0  0  0  0  0  0  0
   -1.8942   -0.0377   -2.3970 H   0  0  0  0  0  0  0  0  0  0  0  0
    0.3799   -1.7156   -3.5471 H   0  0  0  0  0  0  0  0  0  0  0  0
   -0.7876   -0.7922   -4.5231 H   0  0  0  0  0  0  0  0  0  0  0  0
    1.1852    0.4733   -4.0627 H   0  0  0  0  0  0  0  0  0  0  0  0
   -0.7878   -3.3193   -3.5205 H   0  0  0  0  0  0  0  0  0  0  0  0
   -4.5469   -3.4186   -2.5465 H   0  0  0  0  0  0  0  0  0  0  0  0
   -2.3817   -4.3919    1.5050 H   0  0  0  0  0  0  0  0  0  0  0  0
   -1.2766   -6.2083    0.1945 H   0  0  0  0  0  0  0  0  0  0  0  0
    0.5439   -4.8703   -0.7894 H   0  0  0  0  0  0  0  0  0  0  0  0
    2.4136   -4.0826    0.6091 H   0  0  0  0  0  0  0  0  0  0  0  0
    0.5030   -2.5610    0.2718 H   0  0  0  0  0  0  0  0  0  0  0  0
    1.4547   -2.4958    3.1701 H   0  0  0  0  0  0  0  0  0  0  0  0
    2.3967   -1.8962    1.7839 H   0  0  0  0  0  0  0  0  0  0  0  0
    1.1074   -0.1616    2.8009 H   0  0  0  0  0  0  0  0  0  0  0  0
    2.1986   -5.7220    2.3364 H   0  0  0  0  0  0  0  0  0  0  0  0
    0.9559   -7.1991   -0.4302 H   0  0  0  0  0  0  0  0  0  0  0  0
   -1.3458   -6.3592    2.5798 H   0  0  0  0  0  0  0  0  0  0  0  0
   -7.0065    3.5141    2.4866 H   0  0  0  0  0  0  0  0  0  0  0  0
   -8.3310    1.7106    0.2768 H   0  0  0  0  0  0  0  0  0  0  0  0
  1  2  2  0  0  0  0
  2  3  1  0  0  0  0
  3  4  2  0  0  0  0
  4  5  1  0  0  0  0
  5  6  2  0  0  0  0
  1  6  1  0  0  0  0
  6  7  1  0  0  0  0
  7  8  2  0  0  0  0
  8  9  1  0  0  0  0
  9 10  2  0  0  0  0
 10 11  1  0  0  0  0
 11 12  2  0  0  0  0
 12 13  1  0  0  0  0
 13 14  2  0  0  0  0
 14 15  1  0  0  0  0
 10 15  1  0  0  0  0
 15 16  2  0  0  0  0
  7 16  1  0  0  0  0
 13 17  1  0  0  0  0
 11 18  1  0  0  0  0
 18 19  1  0  0  0  0
 19 20  1  0  0  0  0
 20 21  1  0  0  0  0
 21 22  1  0  0  0  0
 22 23  1  0  0  0  0
 23 24  1  0  0  0  0
 19 24  1  0  0  0  0
 23 25  1  0  0  0  0
 25 26  1  0  0  0  0
 22 27  1  0  0  0  0
 21 28  1  0  0  0  0
 20 29  1  0  0  0  0
  8 30  1  0  0  0  0
 30 31  1  0  0  0  0
 31 32  1  0  0  0  0
 32 33  1  0  0  0  0
 33 34  1  0  0  0  0
 34 35  1  0  0  0  0
 35 36  1  0  0  0  0
 31 36  1  0  0  0  0
 35 37  1  0  0  0  0
 37 38  1  0  0  0  0
 34 39  1  0  0  0  0
 33 40  1  0  0  0  0
 32 41  1  0  0  0  0
 41 42  1  0  0  0  0
 42 43  1  0  0  0  0
 43 44  1  0  0  0  0
 44 45  1  0  0  0  0
 45 46  1  0  0  0  0
 46 47  1  0  0  0  0
 42 47  1  0  0  0  0
 46 48  1  0  0  0  0
 48 49  1  0  0  0  0
 45 50  1  0  0  0  0
 44 51  1  0  0  0  0
 43 52  1  0  0  0  0
  4 53  1  0  0  0  0
  3 54  1  0  0  0  0
  1 55  1  0  0  0  0
  2 56  1  0  0  0  0
  5 57  1  0  0  0  0
  9 58  1  0  0  0  0
 12 59  1  0  0  0  0
 14 60  1  0  0  0  0
 17 61  1  0  0  0  0
 19 62  1  0  0  0  0
 20 63  1  0  0  0  0
 21 64  1  0  0  0  0
 22 65  1  0  0  0  0
 23 66  1  0  0  0  0
 25 67  1  0  0  0  0
 25 68  1  0  0  0  0
 26 69  1  0  0  0  0
 27 70  1  0  0  0  0
 28 71  1  0  0  0  0
 29 72  1  0  0  0  0
 31 73  1  0  0  0  0
 32 74  1  0  0  0  0
 33 75  1  0  0  0  0
 34 76  1  0  0  0  0
 35 77  1  0  0  0  0
 37 78  1  0  0  0  0
 37 79  1  0  0  0  0
 38 80  1  0  0  0  0
 39 81  1  0  0  0  0
 40 82  1  0  0  0  0
 42 83  1  0  0  0  0
 43 84  1  0  0  0  0
 44 85  1  0  0  0  0
 45 86  1  0  0  0  0
 46 87  1  0  0  0  0
 48 88  1  0  0  0  0
 48 89  1  0  0  0  0
 49 90  1  0  0  0  0
 50 91  1  0  0  0  0
 51 92  1  0  0  0  0
 52 93  1  0  0  0  0
 53 94  1  0  0  0  0
 54 95  1  0  0  0  0
M  CHG  1  16   1
M  END
$$$$
