C18H20O6
APtclcactv06291803133D 0   0.00000     0.00000
 
 44 46  0  0  0  0  0  0  0  0999 V2000
    1.0531    2.7396   -1.3296 C   0  0  0  0  0  0  0  0  0  0  0  0
    1.3425    2.2293   -0.0266 O   0  0  0  0  0  0  0  0  0  0  0  0
    1.7323    0.9281    0.0547 C   0  0  0  0  0  0  0  0  0  0  0  0
    3.0808    0.6001   -0.0272 C   0  0  0  0  0  0  0  0  0  0  0  0
    3.4758   -0.7287    0.0560 C   0  0  0  0  0  0  0  0  0  0  0  0
    2.5214   -1.7259    0.2209 C   0  0  0  0  0  0  0  0  0  0  0  0
    1.1784   -1.3932    0.3020 C   0  0  0  0  0  0  0  0  0  0  0  0
    0.7855   -0.0696    0.2249 C   0  0  0  0  0  0  0  0  0  0  0  0
   -0.6758    0.2876    0.3140 C   0  0  0  0  0  0  0  0  0  0  0  0
   -1.4428   -0.3897   -0.8244 C   0  0  0  0  0  0  0  0  0  0  0  0
   -2.9256   -0.2824   -0.5723 C   0  0  0  0  0  0  0  0  0  0  0  0
   -3.4236    0.0127    0.6851 C   0  0  0  0  0  0  0  0  0  0  0  0
   -4.7976    0.0978    0.8807 C   0  0  0  0  0  0  0  0  0  0  0  0
   -5.6654   -0.1089   -0.1781 C   0  0  0  0  0  0  0  0  0  0  0  0
   -5.1608   -0.4014   -1.4376 C   0  0  0  0  0  0  0  0  0  0  0  0
   -3.7970   -0.4869   -1.6300 C   0  0  0  0  0  0  0  0  0  0  0  0
   -7.0080   -0.0261    0.0154 O   0  0  0  0  0  0  0  0  0  0  0  0
   -2.6041    0.2304    1.7467 O   0  0  0  0  0  0  0  0  0  0  0  0
   -1.2499   -0.2119    1.6460 C   0  0  0  0  0  0  0  0  0  0  0  0
    2.9056   -3.0287    0.3023 O   0  0  0  0  0  0  0  0  0  0  0  0
    4.7948   -1.0541   -0.0242 O   0  0  0  0  0  0  0  0  0  0  0  0
    5.3188   -1.3227   -1.3263 C   0  0  0  0  0  0  0  0  0  0  0  0
    4.0119    1.5793   -0.1891 O   0  0  0  0  0  0  0  0  0  0  0  0
    4.5600    2.1560    0.9979 C   0  0  0  0  0  0  0  0  0  0  0  0
    1.9413    2.6603   -1.9564 H   0  0  0  0  0  0  0  0  0  0  0  0
    0.2421    2.1626   -1.7739 H   0  0  0  0  0  0  0  0  0  0  0  0
    0.7551    3.7853   -1.2523 H   0  0  0  0  0  0  0  0  0  0  0  0
    0.4377   -2.1687    0.4301 H   0  0  0  0  0  0  0  0  0  0  0  0
   -0.7945    1.3689    0.2445 H   0  0  0  0  0  0  0  0  0  0  0  0
   -1.1989    0.0994   -1.7674 H   0  0  0  0  0  0  0  0  0  0  0  0
   -1.1591   -1.4408   -0.8777 H   0  0  0  0  0  0  0  0  0  0  0  0
   -5.1890    0.3254    1.8613 H   0  0  0  0  0  0  0  0  0  0  0  0
   -5.8348   -0.5622   -2.2660 H   0  0  0  0  0  0  0  0  0  0  0  0
   -3.4065   -0.7145   -2.6109 H   0  0  0  0  0  0  0  0  0  0  0  0
   -7.3707    0.8603   -0.1181 H   0  0  0  0  0  0  0  0  0  0  0  0
   -1.2162   -1.3010    1.6748 H   0  0  0  0  0  0  0  0  0  0  0  0
   -0.6680    0.1959    2.4726 H   0  0  0  0  0  0  0  0  0  0  0  0
    3.0888   -3.3292    1.2030 H   0  0  0  0  0  0  0  0  0  0  0  0
    4.7829   -2.1632   -1.7672 H   0  0  0  0  0  0  0  0  0  0  0  0
    5.1951   -0.4420   -1.9565 H   0  0  0  0  0  0  0  0  0  0  0  0
    6.3780   -1.5678   -1.2482 H   0  0  0  0  0  0  0  0  0  0  0  0
    3.7601    2.6059    1.5860 H   0  0  0  0  0  0  0  0  0  0  0  0
    5.0508    1.3803    1.5856 H   0  0  0  0  0  0  0  0  0  0  0  0
    5.2870    2.9218    0.7276 H   0  0  0  0  0  0  0  0  0  0  0  0
  1  2  1  0  0  0  0
  2  3  1  0  0  0  0
  3  4  2  0  0  0  0
  4  5  1  0  0  0  0
  5  6  2  0  0  0  0
  6  7  1  0  0  0  0
  7  8  2  0  0  0  0
  3  8  1  0  0  0  0
  8  9  1  0  0  0  0
  9 10  1  0  0  0  0
 10 11  1  0  0  0  0
 11 12  2  0  0  0  0
 12 13  1  0  0  0  0
 13 14  2  0  0  0  0
 14 15  1  0  0  0  0
 15 16  2  0  0  0  0
 11 16  1  0  0  0  0
 14 17  1  0  0  0  0
 12 18  1  0  0  0  0
 18 19  1  0  0  0  0
  9 19  1  0  0  0  0
  6 20  1  0  0  0  0
  5 21  1  0  0  0  0
 21 22  1  0  0  0  0
  4 23  1  0  0  0  0
 23 24  1  0  0  0  0
  1 25  1  0  0  0  0
  1 26  1  0  0  0  0
  1 27  1  0  0  0  0
  7 28  1  0  0  0  0
  9 29  1  0  0  0  0
 10 30  1  0  0  0  0
 10 31  1  0  0  0  0
 13 32  1  0  0  0  0
 15 33  1  0  0  0  0
 16 34  1  0  0  0  0
 17 35  1  0  0  0  0
 19 36  1  0  0  0  0
 19 37  1  0  0  0  0
 20 38  1  0  0  0  0
 22 39  1  0  0  0  0
 22 40  1  0  0  0  0
 22 41  1  0  0  0  0
 24 42  1  0  0  0  0
 24 43  1  0  0  0  0
 24 44  1  0  0  0  0
M  END
$$$$
