C18H28O9
APtclcactv06291803133D 0   0.00000     0.00000
 
 55 56  0  0  0  0  0  0  0  0999 V2000
    1.7429    2.4241   -0.5757 C   0  0  0  0  0  0  0  0  0  0  0  0
    1.0218    1.2346    0.0613 C   0  0  0  0  0  0  0  0  0  0  0  0
   -0.3481    1.0915   -0.5501 C   0  0  0  0  0  0  0  0  0  0  0  0
   -1.4148    1.1743    0.2059 C   0  0  0  0  0  0  0  0  0  0  0  0
   -2.7847    1.0313   -0.4056 C   0  0  0  0  0  0  0  0  0  0  0  0
   -3.5522   -0.0780    0.3166 C   0  0  0  0  0  0  0  0  0  0  0  0
   -4.9986   -0.1507   -0.2153 C   0  0  0  0  0  0  0  0  0  0  0  0
   -5.3086   -1.6691   -0.2331 C   0  0  0  0  0  0  0  0  0  0  0  0
   -3.9521   -2.2787   -0.6660 C   0  0  0  0  0  0  0  0  0  0  0  0
   -2.9117   -1.4205    0.0317 C   0  0  0  0  0  0  0  0  0  0  0  0
   -1.7826   -1.7477    0.3080 O   0  0  0  0  0  0  0  0  0  0  0  0
   -5.9554    0.5823    0.7273 C   0  0  0  0  0  0  0  0  0  0  0  0
   -7.3367    0.6021    0.1251 C   0  0  0  0  0  0  0  0  0  0  0  0
   -7.5355    0.0833   -0.9478 O   0  0  0  0  0  0  0  0  0  0  0  0
   -8.3461    1.1962    0.7806 O   0  0  0  0  0  0  0  0  0  0  0  0
    1.7739    0.0418   -0.1705 O   0  0  0  0  0  0  0  0  0  0  0  0
    2.7356   -0.2458    0.8465 C   0  0  0  0  0  0  0  0  0  0  0  0
    3.3904   -1.6000    0.5616 C   0  0  0  0  0  0  0  0  0  0  0  0
    4.1349   -1.5273   -0.7750 C   0  0  0  0  0  0  0  0  0  0  0  0
    5.1573   -0.3881   -0.7162 C   0  0  0  0  0  0  0  0  0  0  0  0
    4.4343    0.9193   -0.3820 C   0  0  0  0  0  0  0  0  0  0  0  0
    3.7373    0.7734    0.8570 O   0  0  0  0  0  0  0  0  0  0  0  0
    5.4565    2.0514   -0.2622 C   0  0  0  0  0  0  0  0  0  0  0  0
    4.7734    3.2911   -0.0659 O   0  0  0  0  0  0  0  0  0  0  0  0
    6.1276   -0.6691    0.2946 O   0  0  0  0  0  0  0  0  0  0  0  0
    4.8102   -2.7638   -1.0140 O   0  0  0  0  0  0  0  0  0  0  0  0
    4.3139   -1.9130    1.6062 O   0  0  0  0  0  0  0  0  0  0  0  0
    1.8395    2.2583   -1.6487 H   0  0  0  0  0  0  0  0  0  0  0  0
    1.1693    3.3339   -0.3989 H   0  0  0  0  0  0  0  0  0  0  0  0
    2.7338    2.5276   -0.1335 H   0  0  0  0  0  0  0  0  0  0  0  0
    0.9252    1.4005    1.1343 H   0  0  0  0  0  0  0  0  0  0  0  0
   -0.4505    0.9207   -1.6116 H   0  0  0  0  0  0  0  0  0  0  0  0
   -1.3124    1.3452    1.2674 H   0  0  0  0  0  0  0  0  0  0  0  0
   -3.3267    1.9718   -0.3068 H   0  0  0  0  0  0  0  0  0  0  0  0
   -2.6867    0.7775   -1.4611 H   0  0  0  0  0  0  0  0  0  0  0  0
   -3.5590    0.1120    1.3899 H   0  0  0  0  0  0  0  0  0  0  0  0
   -5.0580    0.2642   -1.2215 H   0  0  0  0  0  0  0  0  0  0  0  0
   -5.5916   -2.0187    0.7597 H   0  0  0  0  0  0  0  0  0  0  0  0
   -6.0864   -1.8974   -0.9619 H   0  0  0  0  0  0  0  0  0  0  0  0
   -3.8766   -3.3140   -0.3335 H   0  0  0  0  0  0  0  0  0  0  0  0
   -3.8342   -2.2156   -1.7477 H   0  0  0  0  0  0  0  0  0  0  0  0
   -5.9850    0.0673    1.6875 H   0  0  0  0  0  0  0  0  0  0  0  0
   -5.6083    1.6050    0.8740 H   0  0  0  0  0  0  0  0  0  0  0  0
   -9.2141    1.1834    0.3546 H   0  0  0  0  0  0  0  0  0  0  0  0
    2.2400   -0.2785    1.8167 H   0  0  0  0  0  0  0  0  0  0  0  0
    2.6227   -2.3720    0.5095 H   0  0  0  0  0  0  0  0  0  0  0  0
    3.4236   -1.3376   -1.5788 H   0  0  0  0  0  0  0  0  0  0  0  0
    5.6532   -0.2935   -1.6822 H   0  0  0  0  0  0  0  0  0  0  0  0
    3.7229    1.1539   -1.1738 H   0  0  0  0  0  0  0  0  0  0  0  0
    6.1129    1.8599    0.5866 H   0  0  0  0  0  0  0  0  0  0  0  0
    6.0493    2.1038   -1.1754 H   0  0  0  0  0  0  0  0  0  0  0  0
    5.3606    4.0547    0.0186 H   0  0  0  0  0  0  0  0  0  0  0  0
    6.6213   -1.4877    0.1491 H   0  0  0  0  0  0  0  0  0  0  0  0
    4.2229   -3.5308   -1.0566 H   0  0  0  0  0  0  0  0  0  0  0  0
    3.9110   -1.9703    2.4834 H   0  0  0  0  0  0  0  0  0  0  0  0
  1  2  1  0  0  0  0
  2  3  1  0  0  0  0
  3  4  2  0  0  0  0
  4  5  1  0  0  0  0
  5  6  1  0  0  0  0
  6  7  1  0  0  0  0
  7  8  1  0  0  0  0
  8  9  1  0  0  0  0
  9 10  1  0  0  0  0
  6 10  1  0  0  0  0
 10 11  2  0  0  0  0
  7 12  1  0  0  0  0
 12 13  1  0  0  0  0
 13 14  2  0  0  0  0
 13 15  1  0  0  0  0
  2 16  1  0  0  0  0
 16 17  1  0  0  0  0
 17 18  1  0  0  0  0
 18 19  1  0  0  0  0
 19 20  1  0  0  0  0
 20 21  1  0  0  0  0
 21 22  1  0  0  0  0
 17 22  1  0  0  0  0
 21 23  1  0  0  0  0
 23 24  1  0  0  0  0
 20 25  1  0  0  0  0
 19 26  1  0  0  0  0
 18 27  1  0  0  0  0
  1 28  1  0  0  0  0
  1 29  1  0  0  0  0
  1 30  1  0  0  0  0
  2 31  1  0  0  0  0
  3 32  1  0  0  0  0
  4 33  1  0  0  0  0
  5 34  1  0  0  0  0
  5 35  1  0  0  0  0
  6 36  1  0  0  0  0
  7 37  1  0  0  0  0
  8 38  1  0  0  0  0
  8 39  1  0  0  0  0
  9 40  1  0  0  0  0
  9 41  1  0  0  0  0
 12 42  1  0  0  0  0
 12 43  1  0  0  0  0
 15 44  1  0  0  0  0
 17 45  1  0  0  0  0
 18 46  1  0  0  0  0
 19 47  1  0  0  0  0
 20 48  1  0  0  0  0
 21 49  1  0  0  0  0
 23 50  1  0  0  0  0
 23 51  1  0  0  0  0
 24 52  1  0  0  0  0
 25 53  1  0  0  0  0
 26 54  1  0  0  0  0
 27 55  1  0  0  0  0
M  END
$$$$
