C20H26O5
APtclcactv06291803093D 0   0.00000     0.00000
 
 51 55  0  0  0  0  0  0  0  0999 V2000
    3.0370    1.6174    0.7974 C   0  0  0  0  0  0  0  0  0  0  0  0
    2.5752    0.2201    0.3788 C   0  0  0  0  0  0  0  0  0  0  0  0
    3.1555   -0.8582    1.3219 C   0  0  0  0  0  0  0  0  0  0  0  0
    2.6727   -2.2450    0.9032 C   0  0  0  0  0  0  0  0  0  0  0  0
    1.1395   -2.3324    0.8821 C   0  0  0  0  0  0  0  0  0  0  0  0
    0.6211   -1.2753   -0.0737 C   0  0  0  0  0  0  0  0  0  0  0  0
    1.0771    0.1002    0.4720 C   0  0  0  0  0  0  0  0  0  0  0  0
    0.2018    1.0878   -0.3028 C   0  0  0  0  0  0  0  0  0  0  0  0
   -1.1572    0.3917   -0.2194 C   0  0  0  0  0  0  0  0  0  0  0  0
   -0.8950   -1.1339   -0.1635 C   0  0  0  0  0  0  0  0  0  0  0  0
   -1.6404   -1.6973    1.0408 C   0  0  0  0  0  0  0  0  0  0  0  0
   -3.1339   -1.3624    0.8786 C   0  0  0  0  0  0  0  0  0  0  0  0
   -3.2941    0.1662    0.7836 C   0  0  0  0  0  0  0  0  0  0  0  0
   -1.8920    0.7687    1.0890 C   0  0  0  0  0  0  0  0  0  0  0  0
   -3.5268    0.5268   -0.6799 C   0  0  0  0  0  0  0  0  0  0  0  0
   -4.6869    0.6550   -1.2748 C   0  0  0  0  0  0  0  0  0  0  0  0
   -2.1556    0.7099   -1.3200 C   0  0  0  0  0  0  0  0  0  0  0  0
   -3.6343   -1.9712   -0.3135 O   0  0  0  0  0  0  0  0  0  0  0  0
    0.1667    2.4325    0.3766 C   0  0  0  0  0  0  0  0  0  0  0  0
    0.3069    2.5081    1.5744 O   0  0  0  0  0  0  0  0  0  0  0  0
   -0.0204    3.5463   -0.3487 O   0  0  0  0  0  0  0  0  0  0  0  0
    1.1683   -1.4943   -1.4845 C   0  0  0  0  0  0  0  0  0  0  0  0
    2.6051   -1.2995   -1.5243 O   0  0  0  0  0  0  0  0  0  0  0  0
    3.0490   -0.1070   -1.0231 C   0  0  0  0  0  0  0  0  0  0  0  0
    3.7601    0.6305   -1.6636 O   0  0  0  0  0  0  0  0  0  0  0  0
    4.1260    1.6441    0.8348 H   0  0  0  0  0  0  0  0  0  0  0  0
    2.6802    2.3501    0.0735 H   0  0  0  0  0  0  0  0  0  0  0  0
    2.6338    1.8535    1.7822 H   0  0  0  0  0  0  0  0  0  0  0  0
    4.2442   -0.8271    1.2789 H   0  0  0  0  0  0  0  0  0  0  0  0
    2.8316   -0.6566    2.3430 H   0  0  0  0  0  0  0  0  0  0  0  0
    3.0550   -2.4685   -0.0928 H   0  0  0  0  0  0  0  0  0  0  0  0
    3.0610   -2.9832    1.6050 H   0  0  0  0  0  0  0  0  0  0  0  0
    0.8317   -3.3206    0.5403 H   0  0  0  0  0  0  0  0  0  0  0  0
    0.7465   -2.1492    1.8822 H   0  0  0  0  0  0  0  0  0  0  0  0
    0.7921    0.1587    1.5224 H   0  0  0  0  0  0  0  0  0  0  0  0
    0.5336    1.1803   -1.3369 H   0  0  0  0  0  0  0  0  0  0  0  0
   -1.2564   -1.6046   -1.0778 H   0  0  0  0  0  0  0  0  0  0  0  0
   -1.5080   -2.7784    1.0828 H   0  0  0  0  0  0  0  0  0  0  0  0
   -1.2586   -1.2434    1.9553 H   0  0  0  0  0  0  0  0  0  0  0  0
   -3.6873   -1.7346    1.7408 H   0  0  0  0  0  0  0  0  0  0  0  0
   -4.0693    0.5471    1.4485 H   0  0  0  0  0  0  0  0  0  0  0  0
   -1.4337    0.2895    1.9541 H   0  0  0  0  0  0  0  0  0  0  0  0
   -1.9438    1.8498    1.2181 H   0  0  0  0  0  0  0  0  0  0  0  0
   -5.5993    0.5006   -0.7180 H   0  0  0  0  0  0  0  0  0  0  0  0
   -4.7308    0.9152   -2.3221 H   0  0  0  0  0  0  0  0  0  0  0  0
   -2.0305    1.7385   -1.6584 H   0  0  0  0  0  0  0  0  0  0  0  0
   -2.0322    0.0189   -2.1539 H   0  0  0  0  0  0  0  0  0  0  0  0
   -3.5559   -2.9349   -0.3257 H   0  0  0  0  0  0  0  0  0  0  0  0
   -0.0354    4.3856    0.1314 H   0  0  0  0  0  0  0  0  0  0  0  0
    0.9362   -2.5101   -1.8043 H   0  0  0  0  0  0  0  0  0  0  0  0
    0.6929   -0.7886   -2.1658 H   0  0  0  0  0  0  0  0  0  0  0  0
  1  2  1  0  0  0  0
  2  3  1  0  0  0  0
  3  4  1  0  0  0  0
  4  5  1  0  0  0  0
  5  6  1  0  0  0  0
  6  7  1  0  0  0  0
  2  7  1  0  0  0  0
  7  8  1  0  0  0  0
  8  9  1  0  0  0  0
  9 10  1  0  0  0  0
  6 10  1  0  0  0  0
 10 11  1  0  0  0  0
 11 12  1  0  0  0  0
 12 13  1  0  0  0  0
 13 14  1  0  0  0  0
  9 14  1  0  0  0  0
 13 15  1  0  0  0  0
 15 16  2  0  0  0  0
 15 17  1  0  0  0  0
  9 17  1  0  0  0  0
 12 18  1  0  0  0  0
  8 19  1  0  0  0  0
 19 20  2  0  0  0  0
 19 21  1  0  0  0  0
  6 22  1  0  0  0  0
 22 23  1  0  0  0  0
 23 24  1  0  0  0  0
  2 24  1  0  0  0  0
 24 25  2  0  0  0  0
  1 26  1  0  0  0  0
  1 27  1  0  0  0  0
  1 28  1  0  0  0  0
  3 29  1  0  0  0  0
  3 30  1  0  0  0  0
  4 31  1  0  0  0  0
  4 32  1  0  0  0  0
  5 33  1  0  0  0  0
  5 34  1  0  0  0  0
  7 35  1  0  0  0  0
  8 36  1  0  0  0  0
 10 37  1  0  0  0  0
 11 38  1  0  0  0  0
 11 39  1  0  0  0  0
 12 40  1  0  0  0  0
 13 41  1  0  0  0  0
 14 42  1  0  0  0  0
 14 43  1  0  0  0  0
 16 44  1  0  0  0  0
 16 45  1  0  0  0  0
 17 46  1  0  0  0  0
 17 47  1  0  0  0  0
 18 48  1  0  0  0  0
 21 49  1  0  0  0  0
 22 50  1  0  0  0  0
 22 51  1  0  0  0  0
M  END
$$$$
