C40H56O4
APtclcactv06291803113D 0   0.00000     0.00000
 
100102  0  0  0  0  0  0  0  0999 V2000
    2.0582    1.7069    0.5985 C   0  0  0  0  0  0  0  0  0  0  0  0
    2.0806    0.3838   -0.1225 C   0  0  0  0  0  0  0  0  0  0  0  0
    3.2736   -0.2061   -0.4304 C   0  0  0  0  0  0  0  0  0  0  0  0
    4.4797    0.4207   -0.0747 C   0  0  0  0  0  0  0  0  0  0  0  0
    5.6672   -0.1665   -0.3812 C   0  0  0  0  0  0  0  0  0  0  0  0
    6.8838    0.4658   -0.0224 C   0  0  0  0  0  0  0  0  0  0  0  0
    8.0513   -0.1115   -0.3237 C   0  0  0  0  0  0  0  0  0  0  0  0
    8.0738   -1.4346   -1.0448 C   0  0  0  0  0  0  0  0  0  0  0  0
    9.3450    0.5607    0.0577 C   0  0  0  0  0  0  0  0  0  0  0  0
   10.0904   -0.2769    1.0779 C   0  0  0  0  0  0  0  0  0  0  0  0
   11.3424   -0.2912    0.7468 C   0  0  0  0  0  0  0  0  0  0  0  0
   12.5233   -0.9982    1.3723 C   0  0  0  0  0  0  0  0  0  0  0  0
   13.7787   -0.3278    0.8001 C   0  0  0  0  0  0  0  0  0  0  0  0
   13.8350   -0.4164   -0.7155 C   0  0  0  0  0  0  0  0  0  0  0  0
   12.4855   -0.2482   -1.4016 C   0  0  0  0  0  0  0  0  0  0  0  0
   11.5308    0.5498   -0.5119 C   0  0  0  0  0  0  0  0  0  0  0  0
   10.2214    0.6445   -1.0876 O   0  0  0  0  0  0  0  0  0  0  0  0
   12.1069    1.9276   -0.1793 C   0  0  0  0  0  0  0  0  0  0  0  0
   14.7191    0.5977   -1.1972 O   0  0  0  0  0  0  0  0  0  0  0  0
   12.4876   -0.8355    2.8932 C   0  0  0  0  0  0  0  0  0  0  0  0
   12.5043   -2.4822    1.0005 C   0  0  0  0  0  0  0  0  0  0  0  0
    0.8784   -0.2410   -0.4770 C   0  0  0  0  0  0  0  0  0  0  0  0
   -0.3256    0.3544   -0.1663 C   0  0  0  0  0  0  0  0  0  0  0  0
   -1.5259   -0.2693   -0.5203 C   0  0  0  0  0  0  0  0  0  0  0  0
   -2.7314    0.3268   -0.2092 C   0  0  0  0  0  0  0  0  0  0  0  0
   -2.7538    1.6499    0.5119 C   0  0  0  0  0  0  0  0  0  0  0  0
   -3.9305   -0.2964   -0.5628 C   0  0  0  0  0  0  0  0  0  0  0  0
   -5.1369    0.3002   -0.2514 C   0  0  0  0  0  0  0  0  0  0  0  0
   -6.3353   -0.3226   -0.6048 C   0  0  0  0  0  0  0  0  0  0  0  0
   -7.5422    0.2742   -0.2934 C   0  0  0  0  0  0  0  0  0  0  0  0
   -7.5647    1.5973    0.4277 C   0  0  0  0  0  0  0  0  0  0  0  0
   -8.7402   -0.3484   -0.6466 C   0  0  0  0  0  0  0  0  0  0  0  0
   -9.9475    0.2486   -0.3350 C   0  0  0  0  0  0  0  0  0  0  0  0
  -11.1452   -0.3738   -0.6882 C   0  0  0  0  0  0  0  0  0  0  0  0
  -11.1271   -1.4420   -1.2704 O   0  0  0  0  0  0  0  0  0  0  0  0
  -12.4614    0.2770   -0.3486 C   0  0  0  0  0  0  0  0  0  0  0  0
  -13.6206   -0.5018   -1.0039 C   0  0  0  0  0  0  0  0  0  0  0  0
  -14.1142   -1.4573    0.1108 C   0  0  0  0  0  0  0  0  0  0  0  0
  -13.9948   -0.5858    1.3857 C   0  0  0  0  0  0  0  0  0  0  0  0
  -12.6993    0.2236    1.1707 C   0  0  0  0  0  0  0  0  0  0  0  0
  -11.5252   -0.4736    1.8609 C   0  0  0  0  0  0  0  0  0  0  0  0
  -12.8680    1.6396    1.7249 C   0  0  0  0  0  0  0  0  0  0  0  0
  -15.4722   -1.8405   -0.1154 O   0  0  0  0  0  0  0  0  0  0  0  0
  -12.4672    1.7292   -0.8303 C   0  0  0  0  0  0  0  0  0  0  0  0
    2.0632    2.5178   -0.1299 H   0  0  0  0  0  0  0  0  0  0  0  0
    1.1577    1.7727    1.2092 H   0  0  0  0  0  0  0  0  0  0  0  0
    2.9374    1.7873    1.2378 H   0  0  0  0  0  0  0  0  0  0  0  0
    3.2897   -1.1543   -0.9471 H   0  0  0  0  0  0  0  0  0  0  0  0
    4.4637    1.3689    0.4420 H   0  0  0  0  0  0  0  0  0  0  0  0
    5.6833   -1.1147   -0.8979 H   0  0  0  0  0  0  0  0  0  0  0  0
    6.8677    1.4140    0.4943 H   0  0  0  0  0  0  0  0  0  0  0  0
    8.0896   -1.2618   -2.1209 H   0  0  0  0  0  0  0  0  0  0  0  0
    8.9638   -1.9923   -0.7533 H   0  0  0  0  0  0  0  0  0  0  0  0
    7.1841   -2.0069   -0.7818 H   0  0  0  0  0  0  0  0  0  0  0  0
    9.1488    1.5556    0.4576 H   0  0  0  0  0  0  0  0  0  0  0  0
    9.6540   -0.7740    1.9317 H   0  0  0  0  0  0  0  0  0  0  0  0
   13.7844    0.7219    1.0937 H   0  0  0  0  0  0  0  0  0  0  0  0
   14.6608   -0.8147    1.2161 H   0  0  0  0  0  0  0  0  0  0  0  0
   14.2451   -1.3880   -0.9908 H   0  0  0  0  0  0  0  0  0  0  0  0
   12.6241    0.2789   -2.3456 H   0  0  0  0  0  0  0  0  0  0  0  0
   12.0570   -1.2306   -1.6001 H   0  0  0  0  0  0  0  0  0  0  0  0
   12.3423    2.4557   -1.1033 H   0  0  0  0  0  0  0  0  0  0  0  0
   11.3743    2.5000    0.3898 H   0  0  0  0  0  0  0  0  0  0  0  0
   13.0144    1.8087    0.4126 H   0  0  0  0  0  0  0  0  0  0  0  0
   14.8137    0.6123   -2.1595 H   0  0  0  0  0  0  0  0  0  0  0  0
   11.5652   -1.2659    3.2831 H   0  0  0  0  0  0  0  0  0  0  0  0
   13.3426   -1.3485    3.3336 H   0  0  0  0  0  0  0  0  0  0  0  0
   12.5297    0.2239    3.1463 H   0  0  0  0  0  0  0  0  0  0  0  0
   12.5582   -2.5860   -0.0832 H   0  0  0  0  0  0  0  0  0  0  0  0
   13.3591   -2.9819    1.4562 H   0  0  0  0  0  0  0  0  0  0  0  0
   11.5822   -2.9360    1.3635 H   0  0  0  0  0  0  0  0  0  0  0  0
    0.8945   -1.1892   -0.9938 H   0  0  0  0  0  0  0  0  0  0  0  0
   -0.3417    1.3026    0.3504 H   0  0  0  0  0  0  0  0  0  0  0  0
   -1.5098   -1.2176   -1.0370 H   0  0  0  0  0  0  0  0  0  0  0  0
   -2.7488    2.4607   -0.2165 H   0  0  0  0  0  0  0  0  0  0  0  0
   -3.6542    1.7156    1.1226 H   0  0  0  0  0  0  0  0  0  0  0  0
   -1.8746    1.7302    1.1511 H   0  0  0  0  0  0  0  0  0  0  0  0
   -3.9144   -1.2446   -1.0795 H   0  0  0  0  0  0  0  0  0  0  0  0
   -5.1529    1.2484    0.2653 H   0  0  0  0  0  0  0  0  0  0  0  0
   -6.3192   -1.2708   -1.1216 H   0  0  0  0  0  0  0  0  0  0  0  0
   -7.5597    2.4082   -0.3007 H   0  0  0  0  0  0  0  0  0  0  0  0
   -8.4651    1.6630    1.0384 H   0  0  0  0  0  0  0  0  0  0  0  0
   -6.6855    1.6777    1.0670 H   0  0  0  0  0  0  0  0  0  0  0  0
   -8.7241   -1.2966   -1.1634 H   0  0  0  0  0  0  0  0  0  0  0  0
   -9.9636    1.1968    0.1817 H   0  0  0  0  0  0  0  0  0  0  0  0
  -14.4172    0.1797   -1.3026 H   0  0  0  0  0  0  0  0  0  0  0  0
  -13.2616   -1.0699   -1.8620 H   0  0  0  0  0  0  0  0  0  0  0  0
  -13.4707   -2.3343    0.1807 H   0  0  0  0  0  0  0  0  0  0  0  0
  -14.8519    0.0820    1.4729 H   0  0  0  0  0  0  0  0  0  0  0  0
  -13.9089   -1.2153    2.2714 H   0  0  0  0  0  0  0  0  0  0  0  0
  -11.3226   -1.4221    1.3635 H   0  0  0  0  0  0  0  0  0  0  0  0
  -10.6414    0.1620    1.8050 H   0  0  0  0  0  0  0  0  0  0  0  0
  -11.7750   -0.6574    2.9058 H   0  0  0  0  0  0  0  0  0  0  0  0
  -13.0602    1.5898    2.7967 H   0  0  0  0  0  0  0  0  0  0  0  0
  -11.9572    2.2110    1.5453 H   0  0  0  0  0  0  0  0  0  0  0  0
  -13.7066    2.1269    1.2276 H   0  0  0  0  0  0  0  0  0  0  0  0
  -15.6129   -2.3198   -0.9434 H   0  0  0  0  0  0  0  0  0  0  0  0
  -12.3107    1.7550   -1.9086 H   0  0  0  0  0  0  0  0  0  0  0  0
  -13.4270    2.1874   -0.5914 H   0  0  0  0  0  0  0  0  0  0  0  0
  -11.6682    2.2799   -0.3339 H   0  0  0  0  0  0  0  0  0  0  0  0
  1  2  1  0  0  0  0
  2  3  2  0  0  0  0
  3  4  1  0  0  0  0
  4  5  2  0  0  0  0
  5  6  1  0  0  0  0
  6  7  2  0  0  0  0
  7  8  1  0  0  0  0
  7  9  1  0  0  0  0
  9 10  1  0  0  0  0
 10 11  2  0  0  0  0
 11 12  1  0  0  0  0
 12 13  1  0  0  0  0
 13 14  1  0  0  0  0
 14 15  1  0  0  0  0
 15 16  1  0  0  0  0
 11 16  1  0  0  0  0
 16 17  1  0  0  0  0
  9 17  1  0  0  0  0
 16 18  1  0  0  0  0
 14 19  1  0  0  0  0
 12 20  1  0  0  0  0
 12 21  1  0  0  0  0
  2 22  1  0  0  0  0
 22 23  2  0  0  0  0
 23 24  1  0  0  0  0
 24 25  2  0  0  0  0
 25 26  1  0  0  0  0
 25 27  1  0  0  0  0
 27 28  2  0  0  0  0
 28 29  1  0  0  0  0
 29 30  2  0  0  0  0
 30 31  1  0  0  0  0
 30 32  1  0  0  0  0
 32 33  2  0  0  0  0
 33 34  1  0  0  0  0
 34 35  2  0  0  0  0
 34 36  1  0  0  0  0
 36 37  1  0  0  0  0
 37 38  1  0  0  0  0
 38 39  1  0  0  0  0
 39 40  1  0  0  0  0
 36 40  1  0  0  0  0
 40 41  1  0  0  0  0
 40 42  1  0  0  0  0
 38 43  1  0  0  0  0
 36 44  1  0  0  0  0
  1 45  1  0  0  0  0
  1 46  1  0  0  0  0
  1 47  1  0  0  0  0
  3 48  1  0  0  0  0
  4 49  1  0  0  0  0
  5 50  1  0  0  0  0
  6 51  1  0  0  0  0
  8 52  1  0  0  0  0
  8 53  1  0  0  0  0
  8 54  1  0  0  0  0
  9 55  1  0  0  0  0
 10 56  1  0  0  0  0
 13 57  1  0  0  0  0
 13 58  1  0  0  0  0
 14 59  1  0  0  0  0
 15 60  1  0  0  0  0
 15 61  1  0  0  0  0
 18 62  1  0  0  0  0
 18 63  1  0  0  0  0
 18 64  1  0  0  0  0
 19 65  1  0  0  0  0
 20 66  1  0  0  0  0
 20 67  1  0  0  0  0
 20 68  1  0  0  0  0
 21 69  1  0  0  0  0
 21 70  1  0  0  0  0
 21 71  1  0  0  0  0
 22 72  1  0  0  0  0
 23 73  1  0  0  0  0
 24 74  1  0  0  0  0
 26 75  1  0  0  0  0
 26 76  1  0  0  0  0
 26 77  1  0  0  0  0
 27 78  1  0  0  0  0
 28 79  1  0  0  0  0
 29 80  1  0  0  0  0
 31 81  1  0  0  0  0
 31 82  1  0  0  0  0
 31 83  1  0  0  0  0
 32 84  1  0  0  0  0
 33 85  1  0  0  0  0
 37 86  1  0  0  0  0
 37 87  1  0  0  0  0
 38 88  1  0  0  0  0
 39 89  1  0  0  0  0
 39 90  1  0  0  0  0
 41 91  1  0  0  0  0
 41 92  1  0  0  0  0
 41 93  1  0  0  0  0
 42 94  1  0  0  0  0
 42 95  1  0  0  0  0
 42 96  1  0  0  0  0
 43 97  1  0  0  0  0
 44 98  1  0  0  0  0
 44 99  1  0  0  0  0
 44100  1  0  0  0  0
M  END
$$$$
