C18H22O10
APtclcactv06291803073D 0   0.00000     0.00000
 
 50 52  0  0  0  0  0  0  0  0999 V2000
    5.1876   -0.5423   -1.0201 C   0  0  0  0  0  0  0  0  0  0  0  0
    4.5442   -0.0149    0.2814 C   0  0  0  0  0  0  0  0  0  0  0  0
    5.6392    0.9041    0.8639 C   0  0  0  0  0  0  0  0  0  0  0  0
    6.5376    1.1790   -0.2530 O   0  0  0  0  0  0  0  0  0  0  0  0
    6.5596    0.0995   -1.0560 C   0  0  0  0  0  0  0  0  0  0  0  0
    7.5086   -0.2905   -1.6942 O   0  0  0  0  0  0  0  0  0  0  0  0
    3.3597    0.7307   -0.0068 O   0  0  0  0  0  0  0  0  0  0  0  0
    2.3738    0.6778    1.0262 C   0  0  0  0  0  0  0  0  0  0  0  0
    1.2095    1.6055    0.6689 C   0  0  0  0  0  0  0  0  0  0  0  0
    0.5537    1.1137   -0.6251 C   0  0  0  0  0  0  0  0  0  0  0  0
    0.1034   -0.3382   -0.4366 C   0  0  0  0  0  0  0  0  0  0  0  0
    1.3104   -1.1908   -0.0366 C   0  0  0  0  0  0  0  0  0  0  0  0
    1.8916   -0.6611    1.1567 O   0  0  0  0  0  0  0  0  0  0  0  0
    0.8578   -2.6310    0.2121 C   0  0  0  0  0  0  0  0  0  0  0  0
    1.9991   -3.4509    0.4714 O   0  0  0  0  0  0  0  0  0  0  0  0
   -0.9034   -0.4022    0.6076 O   0  0  0  0  0  0  0  0  0  0  0  0
   -2.1841   -0.2691    0.2283 C   0  0  0  0  0  0  0  0  0  0  0  0
   -2.4548   -0.1045   -0.9376 O   0  0  0  0  0  0  0  0  0  0  0  0
   -3.2842   -0.3250    1.2568 C   0  0  0  0  0  0  0  0  0  0  0  0
   -4.6174   -0.1505    0.5762 C   0  0  0  0  0  0  0  0  0  0  0  0
   -5.3071   -1.2568    0.1154 C   0  0  0  0  0  0  0  0  0  0  0  0
   -6.5294   -1.0995   -0.5088 C   0  0  0  0  0  0  0  0  0  0  0  0
   -7.0648    0.1698   -0.6732 C   0  0  0  0  0  0  0  0  0  0  0  0
   -6.3708    1.2781   -0.2100 C   0  0  0  0  0  0  0  0  0  0  0  0
   -5.1515    1.1151    0.4186 C   0  0  0  0  0  0  0  0  0  0  0  0
   -8.2668    0.3272   -1.2873 O   0  0  0  0  0  0  0  0  0  0  0  0
   -0.5794    1.9303   -0.9270 O   0  0  0  0  0  0  0  0  0  0  0  0
    0.2479    1.5939    1.7259 O   0  0  0  0  0  0  0  0  0  0  0  0
    5.2768   -1.6281   -0.9870 H   0  0  0  0  0  0  0  0  0  0  0  0
    4.6012   -0.2344   -1.8858 H   0  0  0  0  0  0  0  0  0  0  0  0
    4.3271   -0.8363    0.9643 H   0  0  0  0  0  0  0  0  0  0  0  0
    5.1991    1.8307    1.2327 H   0  0  0  0  0  0  0  0  0  0  0  0
    6.1753    0.3940    1.6642 H   0  0  0  0  0  0  0  0  0  0  0  0
    2.8175    0.9980    1.9689 H   0  0  0  0  0  0  0  0  0  0  0  0
    1.5825    2.6196    0.5257 H   0  0  0  0  0  0  0  0  0  0  0  0
    1.2729    1.1693   -1.4423 H   0  0  0  0  0  0  0  0  0  0  0  0
   -0.3146   -0.7141   -1.3705 H   0  0  0  0  0  0  0  0  0  0  0  0
    2.0485   -1.1748   -0.8385 H   0  0  0  0  0  0  0  0  0  0  0  0
    0.1881   -2.6581    1.0717 H   0  0  0  0  0  0  0  0  0  0  0  0
    0.3346   -3.0045   -0.6681 H   0  0  0  0  0  0  0  0  0  0  0  0
    1.7866   -4.3793    0.6384 H   0  0  0  0  0  0  0  0  0  0  0  0
   -3.2587   -1.2894    1.7641 H   0  0  0  0  0  0  0  0  0  0  0  0
   -3.1412    0.4728    1.9855 H   0  0  0  0  0  0  0  0  0  0  0  0
   -4.8897   -2.2446    0.2433 H   0  0  0  0  0  0  0  0  0  0  0  0
   -7.0676   -1.9638   -0.8689 H   0  0  0  0  0  0  0  0  0  0  0  0
   -6.7855    2.2673   -0.3367 H   0  0  0  0  0  0  0  0  0  0  0  0
   -4.6108    1.9776    0.7794 H   0  0  0  0  0  0  0  0  0  0  0  0
   -9.0227    0.3017   -0.6848 H   0  0  0  0  0  0  0  0  0  0  0  0
   -0.3681    2.8656   -1.0525 H   0  0  0  0  0  0  0  0  0  0  0  0
    0.5966    1.8895    2.5780 H   0  0  0  0  0  0  0  0  0  0  0  0
  1  2  1  0  0  0  0
  2  3  1  0  0  0  0
  3  4  1  0  0  0  0
  4  5  1  0  0  0  0
  1  5  1  0  0  0  0
  5  6  2  0  0  0  0
  2  7  1  0  0  0  0
  7  8  1  0  0  0  0
  8  9  1  0  0  0  0
  9 10  1  0  0  0  0
 10 11  1  0  0  0  0
 11 12  1  0  0  0  0
 12 13  1  0  0  0  0
  8 13  1  0  0  0  0
 12 14  1  0  0  0  0
 14 15  1  0  0  0  0
 11 16  1  0  0  0  0
 16 17  1  0  0  0  0
 17 18  2  0  0  0  0
 17 19  1  0  0  0  0
 19 20  1  0  0  0  0
 20 21  2  0  0  0  0
 21 22  1  0  0  0  0
 22 23  2  0  0  0  0
 23 24  1  0  0  0  0
 24 25  2  0  0  0  0
 20 25  1  0  0  0  0
 23 26  1  0  0  0  0
 10 27  1  0  0  0  0
  9 28  1  0  0  0  0
  1 29  1  0  0  0  0
  1 30  1  0  0  0  0
  2 31  1  0  0  0  0
  3 32  1  0  0  0  0
  3 33  1  0  0  0  0
  8 34  1  0  0  0  0
  9 35  1  0  0  0  0
 10 36  1  0  0  0  0
 11 37  1  0  0  0  0
 12 38  1  0  0  0  0
 14 39  1  0  0  0  0
 14 40  1  0  0  0  0
 15 41  1  0  0  0  0
 19 42  1  0  0  0  0
 19 43  1  0  0  0  0
 21 44  1  0  0  0  0
 22 45  1  0  0  0  0
 24 46  1  0  0  0  0
 25 47  1  0  0  0  0
 26 48  1  0  0  0  0
 27 49  1  0  0  0  0
 28 50  1  0  0  0  0
M  END
$$$$
