C17H16O7
APtclcactv06291803133D 0   0.00000     0.00000
 
 40 42  0  0  0  0  0  0  0  0999 V2000
   -6.7819   -1.4935    1.2132 C   0  0  0  0  0  0  0  0  0  0  0  0
   -6.4153   -0.6809    0.0963 O   0  0  0  0  0  0  0  0  0  0  0  0
   -5.0917   -0.4211   -0.0696 C   0  0  0  0  0  0  0  0  0  0  0  0
   -4.6651    0.3611   -1.1330 C   0  0  0  0  0  0  0  0  0  0  0  0
   -3.3191    0.6238   -1.2995 C   0  0  0  0  0  0  0  0  0  0  0  0
   -2.3974    0.1078   -0.4074 C   0  0  0  0  0  0  0  0  0  0  0  0
   -2.8199   -0.6724    0.6530 C   0  0  0  0  0  0  0  0  0  0  0  0
   -4.1654   -0.9329    0.8274 C   0  0  0  0  0  0  0  0  0  0  0  0
   -0.9297    0.3959   -0.5914 C   0  0  0  0  0  0  0  0  0  0  0  0
   -0.5062    1.5258    0.3585 C   0  0  0  0  0  0  0  0  0  0  0  0
    0.9816    1.7494    0.1554 C   0  0  0  0  0  0  0  0  0  0  0  0
    1.4627    2.8637    0.1385 O   0  0  0  0  0  0  0  0  0  0  0  0
    1.8081    0.5500   -0.0198 C   0  0  0  0  0  0  0  0  0  0  0  0
    3.2078    0.6303    0.0416 C   0  0  0  0  0  0  0  0  0  0  0  0
    3.9658   -0.5167   -0.1387 C   0  0  0  0  0  0  0  0  0  0  0  0
    3.3372   -1.7356   -0.3764 C   0  0  0  0  0  0  0  0  0  0  0  0
    1.9519   -1.8189   -0.4322 C   0  0  0  0  0  0  0  0  0  0  0  0
    1.1777   -0.6866   -0.2526 C   0  0  0  0  0  0  0  0  0  0  0  0
   -0.1731   -0.7780   -0.2962 O   0  0  0  0  0  0  0  0  0  0  0  0
    4.0856   -2.8541   -0.5558 O   0  0  0  0  0  0  0  0  0  0  0  0
    5.3248   -0.4505   -0.0837 O   0  0  0  0  0  0  0  0  0  0  0  0
    5.9325   -0.6422    1.1953 C   0  0  0  0  0  0  0  0  0  0  0  0
    3.8148    1.8216    0.2752 O   0  0  0  0  0  0  0  0  0  0  0  0
   -1.2251    2.7203    0.0449 O   0  0  0  0  0  0  0  0  0  0  0  0
   -6.4605   -1.0097    2.1355 H   0  0  0  0  0  0  0  0  0  0  0  0
   -7.8640   -1.6229    1.2287 H   0  0  0  0  0  0  0  0  0  0  0  0
   -6.3007   -2.4677    1.1272 H   0  0  0  0  0  0  0  0  0  0  0  0
   -5.3847    0.7640   -1.8304 H   0  0  0  0  0  0  0  0  0  0  0  0
   -2.9865    1.2323   -2.1274 H   0  0  0  0  0  0  0  0  0  0  0  0
   -2.0979   -1.0748    1.3481 H   0  0  0  0  0  0  0  0  0  0  0  0
   -4.4949   -1.5423    1.6559 H   0  0  0  0  0  0  0  0  0  0  0  0
   -0.7448    0.6988   -1.6220 H   0  0  0  0  0  0  0  0  0  0  0  0
   -0.7003    1.2350    1.3910 H   0  0  0  0  0  0  0  0  0  0  0  0
    1.4773   -2.7713   -0.6168 H   0  0  0  0  0  0  0  0  0  0  0  0
    4.2771   -3.3345    0.2613 H   0  0  0  0  0  0  0  0  0  0  0  0
    5.5739    0.1210    1.8860 H   0  0  0  0  0  0  0  0  0  0  0  0
    5.6716   -1.6293    1.5772 H   0  0  0  0  0  0  0  0  0  0  0  0
    7.0154   -0.5647    1.0984 H   0  0  0  0  0  0  0  0  0  0  0  0
    3.9616    2.0112    1.2120 H   0  0  0  0  0  0  0  0  0  0  0  0
   -1.0029    3.4729    0.6099 H   0  0  0  0  0  0  0  0  0  0  0  0
  1  2  1  0  0  0  0
  2  3  1  0  0  0  0
  3  4  2  0  0  0  0
  4  5  1  0  0  0  0
  5  6  2  0  0  0  0
  6  7  1  0  0  0  0
  7  8  2  0  0  0  0
  3  8  1  0  0  0  0
  6  9  1  0  0  0  0
  9 10  1  0  0  0  0
 10 11  1  0  0  0  0
 11 12  2  0  0  0  0
 11 13  1  0  0  0  0
 13 14  2  0  0  0  0
 14 15  1  0  0  0  0
 15 16  2  0  0  0  0
 16 17  1  0  0  0  0
 17 18  2  0  0  0  0
 13 18  1  0  0  0  0
 18 19  1  0  0  0  0
  9 19  1  0  0  0  0
 16 20  1  0  0  0  0
 15 21  1  0  0  0  0
 21 22  1  0  0  0  0
 14 23  1  0  0  0  0
 10 24  1  0  0  0  0
  1 25  1  0  0  0  0
  1 26  1  0  0  0  0
  1 27  1  0  0  0  0
  4 28  1  0  0  0  0
  5 29  1  0  0  0  0
  7 30  1  0  0  0  0
  8 31  1  0  0  0  0
  9 32  1  0  0  0  0
 10 33  1  0  0  0  0
 17 34  1  0  0  0  0
 20 35  1  0  0  0  0
 22 36  1  0  0  0  0
 22 37  1  0  0  0  0
 22 38  1  0  0  0  0
 23 39  1  0  0  0  0
 24 40  1  0  0  0  0
M  END
$$$$
