C37H66O7
APtclcactv06291803083D 0   0.00000     0.00000
 
110111  0  0  0  0  0  0  0  0999 V2000
  -10.1100    9.2209    0.4573 C   0  0  0  0  0  0  0  0  0  0  0  0
  -10.5325    7.7813    0.7573 C   0  0  0  0  0  0  0  0  0  0  0  0
   -9.4933    6.8151    0.1850 C   0  0  0  0  0  0  0  0  0  0  0  0
   -9.9158    5.3755    0.4849 C   0  0  0  0  0  0  0  0  0  0  0  0
   -8.8767    4.4093   -0.0874 C   0  0  0  0  0  0  0  0  0  0  0  0
   -9.2991    2.9697    0.2126 C   0  0  0  0  0  0  0  0  0  0  0  0
   -8.2600    2.0035   -0.3597 C   0  0  0  0  0  0  0  0  0  0  0  0
   -8.6825    0.5639   -0.0598 C   0  0  0  0  0  0  0  0  0  0  0  0
   -7.6433   -0.4023   -0.6321 C   0  0  0  0  0  0  0  0  0  0  0  0
   -8.0658   -1.8420   -0.3321 C   0  0  0  0  0  0  0  0  0  0  0  0
   -7.0423   -2.7936   -0.8958 C   0  0  0  0  0  0  0  0  0  0  0  0
   -6.4753   -3.6820   -0.1177 C   0  0  0  0  0  0  0  0  0  0  0  0
   -5.4517   -4.6336   -0.6814 C   0  0  0  0  0  0  0  0  0  0  0  0
   -4.1584   -4.5306    0.1295 C   0  0  0  0  0  0  0  0  0  0  0  0
   -3.1193   -5.4968   -0.4428 C   0  0  0  0  0  0  0  0  0  0  0  0
   -1.7882   -5.3051    0.2870 C   0  0  0  0  0  0  0  0  0  0  0  0
   -0.7491   -6.2713   -0.2853 C   0  0  0  0  0  0  0  0  0  0  0  0
    0.5442   -6.1683    0.5256 C   0  0  0  0  0  0  0  0  0  0  0  0
    1.5834   -7.1345   -0.0467 C   0  0  0  0  0  0  0  0  0  0  0  0
    2.9144   -6.9428    0.6831 C   0  0  0  0  0  0  0  0  0  0  0  0
    3.9695   -7.9143    0.1118 C   0  0  0  0  0  0  0  0  0  0  0  0
    5.2517   -7.0381    0.0994 C   0  0  0  0  0  0  0  0  0  0  0  0
    4.6529   -5.6450   -0.2190 C   0  0  0  0  0  0  0  0  0  0  0  0
    3.3954   -5.6099    0.4745 O   0  0  0  0  0  0  0  0  0  0  0  0
    5.5756   -4.5395    0.2983 C   0  0  0  0  0  0  0  0  0  0  0  0
    5.0309   -3.1767   -0.1341 C   0  0  0  0  0  0  0  0  0  0  0  0
    5.9536   -2.0713    0.3832 C   0  0  0  0  0  0  0  0  0  0  0  0
    5.4089   -0.7084   -0.0492 C   0  0  0  0  0  0  0  0  0  0  0  0
    6.3316    0.3970    0.4681 C   0  0  0  0  0  0  0  0  0  0  0  0
    5.7869    1.7598    0.0357 C   0  0  0  0  0  0  0  0  0  0  0  0
    6.7096    2.8652    0.5530 C   0  0  0  0  0  0  0  0  0  0  0  0
    6.1649    4.2281    0.1207 C   0  0  0  0  0  0  0  0  0  0  0  0
    7.0161    5.3377    0.7413 C   0  0  0  0  0  0  0  0  0  0  0  0
    6.4083    6.6780    0.4169 C   0  0  0  0  0  0  0  0  0  0  0  0
    5.5745    7.3535    1.2035 C   0  0  0  0  0  0  0  0  0  0  0  0
    5.2248    8.6324    0.4791 C   0  0  0  0  0  0  0  0  0  0  0  0
    5.9496    8.5905   -0.7821 O   0  0  0  0  0  0  0  0  0  0  0  0
    6.6495    7.4409   -0.8108 C   0  0  0  0  0  0  0  0  0  0  0  0
    7.3682    7.0843   -1.7237 O   0  0  0  0  0  0  0  0  0  0  0  0
    3.7184    8.6958    0.2193 C   0  0  0  0  0  0  0  0  0  0  0  0
    6.2138    4.3305   -1.3038 O   0  0  0  0  0  0  0  0  0  0  0  0
    1.1323   -8.4788    0.1304 O   0  0  0  0  0  0  0  0  0  0  0  0
   -1.3372   -3.9608    0.1099 O   0  0  0  0  0  0  0  0  0  0  0  0
   -3.5704   -6.8411   -0.2657 O   0  0  0  0  0  0  0  0  0  0  0  0
   -9.1403    9.4177    0.9145 H   0  0  0  0  0  0  0  0  0  0  0  0
  -10.0385    9.3613   -0.6212 H   0  0  0  0  0  0  0  0  0  0  0  0
  -10.8503    9.9092    0.8651 H   0  0  0  0  0  0  0  0  0  0  0  0
  -10.6040    7.6409    1.8358 H   0  0  0  0  0  0  0  0  0  0  0  0
  -11.5022    7.5845    0.3001 H   0  0  0  0  0  0  0  0  0  0  0  0
   -9.4218    6.9555   -0.8936 H   0  0  0  0  0  0  0  0  0  0  0  0
   -8.5236    7.0119    0.6421 H   0  0  0  0  0  0  0  0  0  0  0  0
   -9.9873    5.2351    1.5635 H   0  0  0  0  0  0  0  0  0  0  0  0
  -10.8855    5.1787    0.0278 H   0  0  0  0  0  0  0  0  0  0  0  0
   -8.8051    4.5497   -1.1659 H   0  0  0  0  0  0  0  0  0  0  0  0
   -7.9069    4.6061    0.3698 H   0  0  0  0  0  0  0  0  0  0  0  0
   -9.3707    2.8292    1.2911 H   0  0  0  0  0  0  0  0  0  0  0  0
  -10.2689    2.7729   -0.2446 H   0  0  0  0  0  0  0  0  0  0  0  0
   -8.1884    2.1439   -1.4383 H   0  0  0  0  0  0  0  0  0  0  0  0
   -7.2903    2.2003    0.0974 H   0  0  0  0  0  0  0  0  0  0  0  0
   -8.7540    0.4234    1.0188 H   0  0  0  0  0  0  0  0  0  0  0  0
   -9.6522    0.3670   -0.5169 H   0  0  0  0  0  0  0  0  0  0  0  0
   -7.5718   -0.2619   -1.7106 H   0  0  0  0  0  0  0  0  0  0  0  0
   -6.6736   -0.2055   -0.1749 H   0  0  0  0  0  0  0  0  0  0  0  0
   -8.1373   -1.9824    0.7464 H   0  0  0  0  0  0  0  0  0  0  0  0
   -9.0355   -2.0388   -0.7893 H   0  0  0  0  0  0  0  0  0  0  0  0
   -6.7762   -2.7433   -1.9413 H   0  0  0  0  0  0  0  0  0  0  0  0
   -6.7413   -3.7323    0.9278 H   0  0  0  0  0  0  0  0  0  0  0  0
   -5.8344   -5.6528   -0.6269 H   0  0  0  0  0  0  0  0  0  0  0  0
   -5.2502   -4.3763   -1.7212 H   0  0  0  0  0  0  0  0  0  0  0  0
   -3.7757   -3.5114    0.0751 H   0  0  0  0  0  0  0  0  0  0  0  0
   -4.3600   -4.7879    1.1693 H   0  0  0  0  0  0  0  0  0  0  0  0
   -2.9831   -5.2962   -1.5055 H   0  0  0  0  0  0  0  0  0  0  0  0
   -1.9244   -5.5057    1.3497 H   0  0  0  0  0  0  0  0  0  0  0  0
   -1.1318   -7.2905   -0.2309 H   0  0  0  0  0  0  0  0  0  0  0  0
   -0.5475   -6.0140   -1.3251 H   0  0  0  0  0  0  0  0  0  0  0  0
    0.9269   -5.1491    0.4712 H   0  0  0  0  0  0  0  0  0  0  0  0
    0.3426   -6.4256    1.5654 H   0  0  0  0  0  0  0  0  0  0  0  0
    1.7195   -6.9339   -1.1094 H   0  0  0  0  0  0  0  0  0  0  0  0
    2.7812   -7.1267    1.7492 H   0  0  0  0  0  0  0  0  0  0  0  0
    4.0959   -8.7776    0.7651 H   0  0  0  0  0  0  0  0  0  0  0  0
    3.7031   -8.2263   -0.8980 H   0  0  0  0  0  0  0  0  0  0  0  0
    5.7400   -7.0425    1.0739 H   0  0  0  0  0  0  0  0  0  0  0  0
    5.9389   -7.3586   -0.6837 H   0  0  0  0  0  0  0  0  0  0  0  0
    4.4963   -5.5368   -1.2922 H   0  0  0  0  0  0  0  0  0  0  0  0
    5.6214   -4.5840    1.3864 H   0  0  0  0  0  0  0  0  0  0  0  0
    6.5753   -4.6785   -0.1134 H   0  0  0  0  0  0  0  0  0  0  0  0
    4.9852   -3.1323   -1.2222 H   0  0  0  0  0  0  0  0  0  0  0  0
    4.0313   -3.0378    0.2776 H   0  0  0  0  0  0  0  0  0  0  0  0
    5.9994   -2.1157    1.4713 H   0  0  0  0  0  0  0  0  0  0  0  0
    6.9533   -2.2102   -0.0285 H   0  0  0  0  0  0  0  0  0  0  0  0
    5.3632   -0.6640   -1.1373 H   0  0  0  0  0  0  0  0  0  0  0  0
    4.4093   -0.5695    0.3625 H   0  0  0  0  0  0  0  0  0  0  0  0
    6.3774    0.3526    1.5562 H   0  0  0  0  0  0  0  0  0  0  0  0
    7.3313    0.2581    0.0564 H   0  0  0  0  0  0  0  0  0  0  0  0
    5.7412    1.8043   -1.0524 H   0  0  0  0  0  0  0  0  0  0  0  0
    4.7873    1.8987    0.4474 H   0  0  0  0  0  0  0  0  0  0  0  0
    6.7554    2.8208    1.6411 H   0  0  0  0  0  0  0  0  0  0  0  0
    7.7093    2.7263    0.1413 H   0  0  0  0  0  0  0  0  0  0  0  0
    5.1332    4.3303    0.4571 H   0  0  0  0  0  0  0  0  0  0  0  0
    7.0511    5.2069    1.8228 H   0  0  0  0  0  0  0  0  0  0  0  0
    8.0270    5.2896    0.3366 H   0  0  0  0  0  0  0  0  0  0  0  0
    5.2158    7.0460    2.1747 H   0  0  0  0  0  0  0  0  0  0  0  0
    5.5417    9.4948    1.0657 H   0  0  0  0  0  0  0  0  0  0  0  0
    3.1843    8.6656    1.1690 H   0  0  0  0  0  0  0  0  0  0  0  0
    3.4784    9.6218   -0.3032 H   0  0  0  0  0  0  0  0  0  0  0  0
    3.4192    7.8451   -0.3930 H   0  0  0  0  0  0  0  0  0  0  0  0
    7.1035    4.2484   -1.6737 H   0  0  0  0  0  0  0  0  0  0  0  0
    0.9897   -8.7274    1.0540 H   0  0  0  0  0  0  0  0  0  0  0  0
   -1.1946   -3.7122   -0.8136 H   0  0  0  0  0  0  0  0  0  0  0  0
   -3.7130   -7.0897    0.6579 H   0  0  0  0  0  0  0  0  0  0  0  0
  1  2  1  0  0  0  0
  2  3  1  0  0  0  0
  3  4  1  0  0  0  0
  4  5  1  0  0  0  0
  5  6  1  0  0  0  0
  6  7  1  0  0  0  0
  7  8  1  0  0  0  0
  8  9  1  0  0  0  0
  9 10  1  0  0  0  0
 10 11  1  0  0  0  0
 11 12  2  0  0  0  0
 12 13  1  0  0  0  0
 13 14  1  0  0  0  0
 14 15  1  0  0  0  0
 15 16  1  0  0  0  0
 16 17  1  0  0  0  0
 17 18  1  0  0  0  0
 18 19  1  0  0  0  0
 19 20  1  0  0  0  0
 20 21  1  0  0  0  0
 21 22  1  0  0  0  0
 22 23  1  0  0  0  0
 23 24  1  0  0  0  0
 20 24  1  0  0  0  0
 23 25  1  0  0  0  0
 25 26  1  0  0  0  0
 26 27  1  0  0  0  0
 27 28  1  0  0  0  0
 28 29  1  0  0  0  0
 29 30  1  0  0  0  0
 30 31  1  0  0  0  0
 31 32  1  0  0  0  0
 32 33  1  0  0  0  0
 33 34  1  0  0  0  0
 34 35  2  0  0  0  0
 35 36  1  0  0  0  0
 36 37  1  0  0  0  0
 37 38  1  0  0  0  0
 34 38  1  0  0  0  0
 38 39  2  0  0  0  0
 36 40  1  0  0  0  0
 32 41  1  0  0  0  0
 19 42  1  0  0  0  0
 16 43  1  0  0  0  0
 15 44  1  0  0  0  0
  1 45  1  0  0  0  0
  1 46  1  0  0  0  0
  1 47  1  0  0  0  0
  2 48  1  0  0  0  0
  2 49  1  0  0  0  0
  3 50  1  0  0  0  0
  3 51  1  0  0  0  0
  4 52  1  0  0  0  0
  4 53  1  0  0  0  0
  5 54  1  0  0  0  0
  5 55  1  0  0  0  0
  6 56  1  0  0  0  0
  6 57  1  0  0  0  0
  7 58  1  0  0  0  0
  7 59  1  0  0  0  0
  8 60  1  0  0  0  0
  8 61  1  0  0  0  0
  9 62  1  0  0  0  0
  9 63  1  0  0  0  0
 10 64  1  0  0  0  0
 10 65  1  0  0  0  0
 11 66  1  0  0  0  0
 12 67  1  0  0  0  0
 13 68  1  0  0  0  0
 13 69  1  0  0  0  0
 14 70  1  0  0  0  0
 14 71  1  0  0  0  0
 15 72  1  0  0  0  0
 16 73  1  0  0  0  0
 17 74  1  0  0  0  0
 17 75  1  0  0  0  0
 18 76  1  0  0  0  0
 18 77  1  0  0  0  0
 19 78  1  0  0  0  0
 20 79  1  0  0  0  0
 21 80  1  0  0  0  0
 21 81  1  0  0  0  0
 22 82  1  0  0  0  0
 22 83  1  0  0  0  0
 23 84  1  0  0  0  0
 25 85  1  0  0  0  0
 25 86  1  0  0  0  0
 26 87  1  0  0  0  0
 26 88  1  0  0  0  0
 27 89  1  0  0  0  0
 27 90  1  0  0  0  0
 28 91  1  0  0  0  0
 28 92  1  0  0  0  0
 29 93  1  0  0  0  0
 29 94  1  0  0  0  0
 30 95  1  0  0  0  0
 30 96  1  0  0  0  0
 31 97  1  0  0  0  0
 31 98  1  0  0  0  0
 32 99  1  0  0  0  0
 33100  1  0  0  0  0
 33101  1  0  0  0  0
 35102  1  0  0  0  0
 36103  1  0  0  0  0
 40104  1  0  0  0  0
 40105  1  0  0  0  0
 40106  1  0  0  0  0
 41107  1  0  0  0  0
 42108  1  0  0  0  0
 43109  1  0  0  0  0
 44110  1  0  0  0  0
M  END
$$$$
