C40H56O4
APtclcactv06291803143D 0   0.00000     0.00000
 
100103  0  0  0  0  0  0  0  0999 V2000
   -2.9404    0.7743    1.9119 C   0  0  0  0  0  0  0  0  0  0  0  0
   -2.9544    0.2749    0.4902 C   0  0  0  0  0  0  0  0  0  0  0  0
   -1.7780    0.0602   -0.1699 C   0  0  0  0  0  0  0  0  0  0  0  0
   -0.5576    0.3044    0.4753 C   0  0  0  0  0  0  0  0  0  0  0  0
    0.6188    0.0897   -0.1848 C   0  0  0  0  0  0  0  0  0  0  0  0
    1.8401    0.3340    0.4608 C   0  0  0  0  0  0  0  0  0  0  0  0
    3.0149    0.1196   -0.1984 C   0  0  0  0  0  0  0  0  0  0  0  0
    3.0009   -0.3798   -1.6201 C   0  0  0  0  0  0  0  0  0  0  0  0
    4.2393    0.3646    0.4489 C   0  0  0  0  0  0  0  0  0  0  0  0
    5.4093    0.1510   -0.2076 C   0  0  0  0  0  0  0  0  0  0  0  0
    6.6437    0.3980    0.4449 C   0  0  0  0  0  0  0  0  0  0  0  0
    7.7946    0.1879   -0.2008 C   0  0  0  0  0  0  0  0  0  0  0  0
    7.7806   -0.3115   -1.6226 C   0  0  0  0  0  0  0  0  0  0  0  0
    9.1065    0.4504    0.4927 C   0  0  0  0  0  0  0  0  0  0  0  0
    9.8763   -0.8440    0.6659 C   0  0  0  0  0  0  0  0  0  0  0  0
   11.1168   -0.6148    0.3721 C   0  0  0  0  0  0  0  0  0  0  0  0
   12.3103   -1.5416    0.3266 C   0  0  0  0  0  0  0  0  0  0  0  0
   13.5531   -0.6425    0.3124 C   0  0  0  0  0  0  0  0  0  0  0  0
   13.5593    0.3073   -0.8732 C   0  0  0  0  0  0  0  0  0  0  0  0
   12.1898    0.8721   -1.2283 C   0  0  0  0  0  0  0  0  0  0  0  0
   11.2725    0.8553   -0.0044 C   0  0  0  0  0  0  0  0  0  0  0  0
    9.9461    1.2922   -0.3280 O   0  0  0  0  0  0  0  0  0  0  0  0
   11.8726    1.6640    1.1474 C   0  0  0  0  0  0  0  0  0  0  0  0
   14.4372    1.3957   -0.5787 O   0  0  0  0  0  0  0  0  0  0  0  0
   12.3256   -2.4397    1.5652 C   0  0  0  0  0  0  0  0  0  0  0  0
   12.2647   -2.3950   -0.9426 C   0  0  0  0  0  0  0  0  0  0  0  0
   -4.1757    0.0306   -0.1555 C   0  0  0  0  0  0  0  0  0  0  0  0
   -5.3505    0.2450    0.5037 C   0  0  0  0  0  0  0  0  0  0  0  0
   -6.5749    0.0000   -0.1435 C   0  0  0  0  0  0  0  0  0  0  0  0
   -7.7449    0.2136    0.5129 C   0  0  0  0  0  0  0  0  0  0  0  0
   -7.7309    0.7130    1.9347 C   0  0  0  0  0  0  0  0  0  0  0  0
   -8.9793   -0.0334   -0.1396 C   0  0  0  0  0  0  0  0  0  0  0  0
  -10.1302    0.1767    0.5062 C   0  0  0  0  0  0  0  0  0  0  0  0
  -11.4463   -0.0866   -0.1895 C   0  0  0  0  0  0  0  0  0  0  0  0
  -12.3824    1.1395   -0.3187 C   0  0  0  0  0  0  0  0  0  0  0  0
  -13.3276    0.7477   -1.4843 C   0  0  0  0  0  0  0  0  0  0  0  0
  -12.7340   -0.6166   -1.9491 C   0  0  0  0  0  0  0  0  0  0  0  0
  -11.3154   -0.4437   -1.6187 O   0  0  0  0  0  0  0  0  0  0  0  0
  -13.1933   -1.6337   -0.8619 C   0  0  0  0  0  0  0  0  0  0  0  0
  -12.2154   -1.3370    0.3049 C   0  0  0  0  0  0  0  0  0  0  0  0
  -11.2338   -2.5192    0.4480 C   0  0  0  0  0  0  0  0  0  0  0  0
  -12.9034   -1.1593    1.5355 O   0  0  0  0  0  0  0  0  0  0  0  0
  -13.1595    1.4772    0.9465 C   0  0  0  0  0  0  0  0  0  0  0  0
  -11.5546    2.3720   -0.7424 C   0  0  0  0  0  0  0  0  0  0  0  0
   -2.9511    1.8642    1.9143 H   0  0  0  0  0  0  0  0  0  0  0  0
   -3.8199    0.4012    2.4368 H   0  0  0  0  0  0  0  0  0  0  0  0
   -2.0402    0.4187    2.4131 H   0  0  0  0  0  0  0  0  0  0  0  0
   -1.7881   -0.2977   -1.1888 H   0  0  0  0  0  0  0  0  0  0  0  0
   -0.5475    0.6623    1.4942 H   0  0  0  0  0  0  0  0  0  0  0  0
    0.6088   -0.2682   -1.2037 H   0  0  0  0  0  0  0  0  0  0  0  0
    1.8501    0.6919    1.4797 H   0  0  0  0  0  0  0  0  0  0  0  0
    2.9835    0.4694   -2.3033 H   0  0  0  0  0  0  0  0  0  0  0  0
    3.8944   -0.9762   -1.8046 H   0  0  0  0  0  0  0  0  0  0  0  0
    2.1147   -0.9937   -1.7809 H   0  0  0  0  0  0  0  0  0  0  0  0
    4.2493    0.7224    1.4678 H   0  0  0  0  0  0  0  0  0  0  0  0
    5.3993   -0.2069   -1.2265 H   0  0  0  0  0  0  0  0  0  0  0  0
    6.6537    0.7559    1.4639 H   0  0  0  0  0  0  0  0  0  0  0  0
    7.7632    0.5377   -2.3058 H   0  0  0  0  0  0  0  0  0  0  0  0
    8.6741   -0.9079   -1.8070 H   0  0  0  0  0  0  0  0  0  0  0  0
    6.8944   -0.9254   -1.7834 H   0  0  0  0  0  0  0  0  0  0  0  0
    8.9332    0.9186    1.4616 H   0  0  0  0  0  0  0  0  0  0  0  0
    9.4630   -1.7911    0.9799 H   0  0  0  0  0  0  0  0  0  0  0  0
   13.5786   -0.0595    1.2330 H   0  0  0  0  0  0  0  0  0  0  0  0
   14.4433   -1.2699    0.2679 H   0  0  0  0  0  0  0  0  0  0  0  0
   13.9506   -0.2240   -1.7408 H   0  0  0  0  0  0  0  0  0  0  0  0
   12.3030    1.8976   -1.5800 H   0  0  0  0  0  0  0  0  0  0  0  0
   11.7455    0.2693   -2.0203 H   0  0  0  0  0  0  0  0  0  0  0  0
   11.8712    2.7225    0.8875 H   0  0  0  0  0  0  0  0  0  0  0  0
   11.2779    1.5101    2.0478 H   0  0  0  0  0  0  0  0  0  0  0  0
   12.8962    1.3354    1.3274 H   0  0  0  0  0  0  0  0  0  0  0  0
   14.5006    2.0522   -1.2859 H   0  0  0  0  0  0  0  0  0  0  0  0
   11.4122   -3.0337    1.5946 H   0  0  0  0  0  0  0  0  0  0  0  0
   13.1893   -3.1032    1.5222 H   0  0  0  0  0  0  0  0  0  0  0  0
   12.3863   -1.8219    2.4612 H   0  0  0  0  0  0  0  0  0  0  0  0
   12.2823   -1.7456   -1.8178 H   0  0  0  0  0  0  0  0  0  0  0  0
   13.1289   -3.0589   -0.9652 H   0  0  0  0  0  0  0  0  0  0  0  0
   11.3504   -2.9884   -0.9487 H   0  0  0  0  0  0  0  0  0  0  0  0
   -4.1857   -0.3273   -1.1744 H   0  0  0  0  0  0  0  0  0  0  0  0
   -5.3404    0.6029    1.5226 H   0  0  0  0  0  0  0  0  0  0  0  0
   -6.5849   -0.3579   -1.1625 H   0  0  0  0  0  0  0  0  0  0  0  0
   -7.7416    1.8029    1.9371 H   0  0  0  0  0  0  0  0  0  0  0  0
   -8.6104    0.3399    2.4596 H   0  0  0  0  0  0  0  0  0  0  0  0
   -6.8307    0.3573    2.4359 H   0  0  0  0  0  0  0  0  0  0  0  0
   -8.9893   -0.3913   -1.1585 H   0  0  0  0  0  0  0  0  0  0  0  0
  -10.1202    0.5346    1.5251 H   0  0  0  0  0  0  0  0  0  0  0  0
  -14.3496    0.6254   -1.1291 H   0  0  0  0  0  0  0  0  0  0  0  0
  -13.2796    1.4841   -2.2854 H   0  0  0  0  0  0  0  0  0  0  0  0
  -12.9504   -0.8972   -2.9781 H   0  0  0  0  0  0  0  0  0  0  0  0
  -14.2230   -1.4455   -0.5624 H   0  0  0  0  0  0  0  0  0  0  0  0
  -13.0729   -2.6577   -1.2147 H   0  0  0  0  0  0  0  0  0  0  0  0
  -10.6928   -2.6576   -0.4881 H   0  0  0  0  0  0  0  0  0  0  0  0
  -10.5256   -2.3085    1.2493 H   0  0  0  0  0  0  0  0  0  0  0  0
  -11.7898   -3.4266    0.6838 H   0  0  0  0  0  0  0  0  0  0  0  0
  -13.4020   -1.9363    1.8232 H   0  0  0  0  0  0  0  0  0  0  0  0
  -12.4612    1.6956    1.7544 H   0  0  0  0  0  0  0  0  0  0  0  0
  -13.7888    2.3484    0.7647 H   0  0  0  0  0  0  0  0  0  0  0  0
  -13.7848    0.6293    1.2261 H   0  0  0  0  0  0  0  0  0  0  0  0
  -11.0761    2.1760   -1.7019 H   0  0  0  0  0  0  0  0  0  0  0  0
  -12.2117    3.2369   -0.8340 H   0  0  0  0  0  0  0  0  0  0  0  0
  -10.7918    2.5734    0.0097 H   0  0  0  0  0  0  0  0  0  0  0  0
  1  2  1  0  0  0  0
  2  3  2  0  0  0  0
  3  4  1  0  0  0  0
  4  5  2  0  0  0  0
  5  6  1  0  0  0  0
  6  7  2  0  0  0  0
  7  8  1  0  0  0  0
  7  9  1  0  0  0  0
  9 10  2  0  0  0  0
 10 11  1  0  0  0  0
 11 12  2  0  0  0  0
 12 13  1  0  0  0  0
 12 14  1  0  0  0  0
 14 15  1  0  0  0  0
 15 16  2  0  0  0  0
 16 17  1  0  0  0  0
 17 18  1  0  0  0  0
 18 19  1  0  0  0  0
 19 20  1  0  0  0  0
 20 21  1  0  0  0  0
 16 21  1  0  0  0  0
 21 22  1  0  0  0  0
 14 22  1  0  0  0  0
 21 23  1  0  0  0  0
 19 24  1  0  0  0  0
 17 25  1  0  0  0  0
 17 26  1  0  0  0  0
  2 27  1  0  0  0  0
 27 28  2  0  0  0  0
 28 29  1  0  0  0  0
 29 30  2  0  0  0  0
 30 31  1  0  0  0  0
 30 32  1  0  0  0  0
 32 33  2  0  0  0  0
 33 34  1  0  0  0  0
 34 35  1  0  0  0  0
 35 36  1  0  0  0  0
 36 37  1  0  0  0  0
 37 38  1  0  0  0  0
 34 38  1  0  0  0  0
 37 39  1  0  0  0  0
 39 40  1  0  0  0  0
 34 40  1  0  0  0  0
 40 41  1  0  0  0  0
 40 42  1  0  0  0  0
 35 43  1  0  0  0  0
 35 44  1  0  0  0  0
  1 45  1  0  0  0  0
  1 46  1  0  0  0  0
  1 47  1  0  0  0  0
  3 48  1  0  0  0  0
  4 49  1  0  0  0  0
  5 50  1  0  0  0  0
  6 51  1  0  0  0  0
  8 52  1  0  0  0  0
  8 53  1  0  0  0  0
  8 54  1  0  0  0  0
  9 55  1  0  0  0  0
 10 56  1  0  0  0  0
 11 57  1  0  0  0  0
 13 58  1  0  0  0  0
 13 59  1  0  0  0  0
 13 60  1  0  0  0  0
 14 61  1  0  0  0  0
 15 62  1  0  0  0  0
 18 63  1  0  0  0  0
 18 64  1  0  0  0  0
 19 65  1  0  0  0  0
 20 66  1  0  0  0  0
 20 67  1  0  0  0  0
 23 68  1  0  0  0  0
 23 69  1  0  0  0  0
 23 70  1  0  0  0  0
 24 71  1  0  0  0  0
 25 72  1  0  0  0  0
 25 73  1  0  0  0  0
 25 74  1  0  0  0  0
 26 75  1  0  0  0  0
 26 76  1  0  0  0  0
 26 77  1  0  0  0  0
 27 78  1  0  0  0  0
 28 79  1  0  0  0  0
 29 80  1  0  0  0  0
 31 81  1  0  0  0  0
 31 82  1  0  0  0  0
 31 83  1  0  0  0  0
 32 84  1  0  0  0  0
 33 85  1  0  0  0  0
 36 86  1  0  0  0  0
 36 87  1  0  0  0  0
 37 88  1  0  0  0  0
 39 89  1  0  0  0  0
 39 90  1  0  0  0  0
 41 91  1  0  0  0  0
 41 92  1  0  0  0  0
 41 93  1  0  0  0  0
 42 94  1  0  0  0  0
 43 95  1  0  0  0  0
 43 96  1  0  0  0  0
 43 97  1  0  0  0  0
 44 98  1  0  0  0  0
 44 99  1  0  0  0  0
 44100  1  0  0  0  0
M  END
$$$$
