C33H41O19
APtclcactv06291803093D 0   0.00000     0.00000
 
 93 98  0  0  0  0  0  0  0  0999 V2000
    5.6591   -4.4096   -1.7861 C   0  0  0  0  0  0  0  0  0  0  0  0
    5.4583   -3.9243   -0.3490 C   0  0  0  0  0  0  0  0  0  0  0  0
    6.6137   -3.0000    0.0439 C   0  0  0  0  0  0  0  0  0  0  0  0
    6.6052   -1.7691   -0.8678 C   0  0  0  0  0  0  0  0  0  0  0  0
    5.2436   -1.0761   -0.7590 C   0  0  0  0  0  0  0  0  0  0  0  0
    4.1411   -2.0747   -1.1209 C   0  0  0  0  0  0  0  0  0  0  0  0
    4.2248   -3.2089   -0.2556 O   0  0  0  0  0  0  0  0  0  0  0  0
    2.8644   -1.4514   -0.9675 O   0  0  0  0  0  0  0  0  0  0  0  0
    1.7667   -2.2636   -1.3888 C   0  0  0  0  0  0  0  0  0  0  0  0
    0.4575   -1.4997   -1.1803 C   0  0  0  0  0  0  0  0  0  0  0  0
   -0.7065   -2.3177   -1.7456 C   0  0  0  0  0  0  0  0  0  0  0  0
   -2.0193   -1.5746   -1.4795 C   0  0  0  0  0  0  0  0  0  0  0  0
   -2.1583   -1.3295    0.0261 C   0  0  0  0  0  0  0  0  0  0  0  0
   -0.9382   -0.5496    0.5231 C   0  0  0  0  0  0  0  0  0  0  0  0
    0.2504   -1.2815    0.2167 O   0  0  0  0  0  0  0  0  0  0  0  0
   -0.8924    0.7250   -0.1214 O   0  0  0  0  0  0  0  0  0  0  0  0
    0.0756    1.5881    0.2860 C   0  0  0  0  0  0  0  0  0  0  0  0
    0.1986    2.8653   -0.2904 C   0  0  0  0  0  0  0  0  0  0  0  0
    1.0478    3.6567    0.0488 O   0  3  0  0  0  0  0  0  0  0  0  0
    1.8849    3.4574    0.9104 C   0  0  0  0  0  0  0  0  0  0  0  0
    2.8299    4.4437    1.2317 C   0  0  0  0  0  0  0  0  0  0  0  0
    3.7696    4.2012    2.2096 C   0  0  0  0  0  0  0  0  0  0  0  0
    3.7999    2.9834    2.8919 C   0  0  0  0  0  0  0  0  0  0  0  0
    2.8933    2.0020    2.6021 C   0  0  0  0  0  0  0  0  0  0  0  0
    1.9224    2.2238    1.6085 C   0  0  0  0  0  0  0  0  0  0  0  0
    0.9642    1.2419    1.2809 C   0  0  0  0  0  0  0  0  0  0  0  0
    2.9298    0.8202    3.2693 O   0  0  0  0  0  0  0  0  0  0  0  0
    4.6806    5.1612    2.5144 O   0  0  0  0  0  0  0  0  0  0  0  0
   -0.7500    3.2565   -1.3558 C   0  0  0  0  0  0  0  0  0  0  0  0
   -1.2608    4.5552   -1.3957 C   0  0  0  0  0  0  0  0  0  0  0  0
   -2.1438    4.9161   -2.3900 C   0  0  0  0  0  0  0  0  0  0  0  0
   -2.5258    3.9896   -3.3521 C   0  0  0  0  0  0  0  0  0  0  0  0
   -2.0196    2.6964   -3.3156 C   0  0  0  0  0  0  0  0  0  0  0  0
   -1.1321    2.3297   -2.3274 C   0  0  0  0  0  0  0  0  0  0  0  0
   -3.3966    4.3488   -4.3302 O   0  0  0  0  0  0  0  0  0  0  0  0
   -3.3440   -0.5732    0.2794 O   0  0  0  0  0  0  0  0  0  0  0  0
   -3.9431   -0.8394    1.5491 C   0  0  0  0  0  0  0  0  0  0  0  0
   -5.1254    0.1090    1.7647 C   0  0  0  0  0  0  0  0  0  0  0  0
   -6.1828   -0.1527    0.6877 C   0  0  0  0  0  0  0  0  0  0  0  0
   -6.6008   -1.6252    0.7452 C   0  0  0  0  0  0  0  0  0  0  0  0
   -5.3615   -2.5066    0.5690 C   0  0  0  0  0  0  0  0  0  0  0  0
   -4.4059   -2.1910    1.5836 O   0  0  0  0  0  0  0  0  0  0  0  0
   -5.7617   -3.9788    0.6852 C   0  0  0  0  0  0  0  0  0  0  0  0
   -4.6289   -4.8038    0.4057 O   0  0  0  0  0  0  0  0  0  0  0  0
   -7.2067   -1.9006    2.0097 O   0  0  0  0  0  0  0  0  0  0  0  0
   -7.3218    0.6772    0.9245 O   0  0  0  0  0  0  0  0  0  0  0  0
   -5.6923   -0.1205    3.0562 O   0  0  0  0  0  0  0  0  0  0  0  0
   -2.0082   -0.3228   -2.1686 O   0  0  0  0  0  0  0  0  0  0  0  0
   -0.5311   -2.4879   -3.1536 O   0  0  0  0  0  0  0  0  0  0  0  0
    5.0486   -0.6137    0.5790 O   0  0  0  0  0  0  0  0  0  0  0  0
    7.6352   -0.8659   -0.4611 O   0  0  0  0  0  0  0  0  0  0  0  0
    6.4550   -2.5885    1.4031 O   0  0  0  0  0  0  0  0  0  0  0  0
    6.6005   -4.9544   -1.8574 H   0  0  0  0  0  0  0  0  0  0  0  0
    4.8364   -5.0677   -2.0657 H   0  0  0  0  0  0  0  0  0  0  0  0
    5.6835   -3.5524   -2.4590 H   0  0  0  0  0  0  0  0  0  0  0  0
    5.4335   -4.7814    0.3239 H   0  0  0  0  0  0  0  0  0  0  0  0
    7.5591   -3.5305   -0.0691 H   0  0  0  0  0  0  0  0  0  0  0  0
    6.7758   -2.0781   -1.8991 H   0  0  0  0  0  0  0  0  0  0  0  0
    5.2091   -0.2307   -1.4462 H   0  0  0  0  0  0  0  0  0  0  0  0
    4.2669   -2.3962   -2.1548 H   0  0  0  0  0  0  0  0  0  0  0  0
    1.8802   -2.5085   -2.4448 H   0  0  0  0  0  0  0  0  0  0  0  0
    1.7485   -3.1824   -0.8027 H   0  0  0  0  0  0  0  0  0  0  0  0
    0.5108   -0.5400   -1.6943 H   0  0  0  0  0  0  0  0  0  0  0  0
   -0.7355   -3.2934   -1.2606 H   0  0  0  0  0  0  0  0  0  0  0  0
   -2.8571   -2.1776   -1.8296 H   0  0  0  0  0  0  0  0  0  0  0  0
   -2.2166   -2.2852    0.5469 H   0  0  0  0  0  0  0  0  0  0  0  0
   -1.0109   -0.4094    1.6016 H   0  0  0  0  0  0  0  0  0  0  0  0
    2.8209    5.3910    0.7130 H   0  0  0  0  0  0  0  0  0  0  0  0
    4.5458    2.8151    3.6546 H   0  0  0  0  0  0  0  0  0  0  0  0
    0.9318    0.2814    1.7737 H   0  0  0  0  0  0  0  0  0  0  0  0
    2.3912    0.8051    4.0723 H   0  0  0  0  0  0  0  0  0  0  0  0
    4.3951    5.7672    3.2118 H   0  0  0  0  0  0  0  0  0  0  0  0
   -0.9645    5.2759   -0.6479 H   0  0  0  0  0  0  0  0  0  0  0  0
   -2.5396    5.9205   -2.4213 H   0  0  0  0  0  0  0  0  0  0  0  0
   -2.3191    1.9786   -4.0650 H   0  0  0  0  0  0  0  0  0  0  0  0
   -0.7390    1.3242   -2.2997 H   0  0  0  0  0  0  0  0  0  0  0  0
   -2.9725    4.7035   -5.1235 H   0  0  0  0  0  0  0  0  0  0  0  0
   -3.2064   -0.6871    2.3378 H   0  0  0  0  0  0  0  0  0  0  0  0
   -4.7819    1.1411    1.6948 H   0  0  0  0  0  0  0  0  0  0  0  0
   -5.7657    0.0699   -0.2944 H   0  0  0  0  0  0  0  0  0  0  0  0
   -7.3124   -1.8333   -0.0538 H   0  0  0  0  0  0  0  0  0  0  0  0
   -4.9230   -2.3253   -0.4123 H   0  0  0  0  0  0  0  0  0  0  0  0
   -6.1172   -4.1799    1.6958 H   0  0  0  0  0  0  0  0  0  0  0  0
   -6.5554   -4.1970   -0.0293 H   0  0  0  0  0  0  0  0  0  0  0  0
   -4.8098   -5.7521    0.4610 H   0  0  0  0  0  0  0  0  0  0  0  0
   -7.9967   -1.3729    2.1906 H   0  0  0  0  0  0  0  0  0  0  0  0
   -7.1282    1.6245    0.9092 H   0  0  0  0  0  0  0  0  0  0  0  0
   -5.0757    0.0221    3.7873 H   0  0  0  0  0  0  0  0  0  0  0  0
   -1.9157   -0.4027   -3.1279 H   0  0  0  0  0  0  0  0  0  0  0  0
   -1.2339   -2.9983   -3.5786 H   0  0  0  0  0  0  0  0  0  0  0  0
    4.2045   -0.1637    0.7205 H   0  0  0  0  0  0  0  0  0  0  0  0
    7.6875   -0.0622   -0.9964 H   0  0  0  0  0  0  0  0  0  0  0  0
    6.4465   -3.3190    2.0367 H   0  0  0  0  0  0  0  0  0  0  0  0
  1  2  1  0  0  0  0
  2  3  1  0  0  0  0
  3  4  1  0  0  0  0
  4  5  1  0  0  0  0
  5  6  1  0  0  0  0
  6  7  1  0  0  0  0
  2  7  1  0  0  0  0
  6  8  1  0  0  0  0
  8  9  1  0  0  0  0
  9 10  1  0  0  0  0
 10 11  1  0  0  0  0
 11 12  1  0  0  0  0
 12 13  1  0  0  0  0
 13 14  1  0  0  0  0
 14 15  1  0  0  0  0
 10 15  1  0  0  0  0
 14 16  1  0  0  0  0
 16 17  1  0  0  0  0
 17 18  2  0  0  0  0
 18 19  1  0  0  0  0
 19 20  2  0  0  0  0
 20 21  1  0  0  0  0
 21 22  2  0  0  0  0
 22 23  1  0  0  0  0
 23 24  2  0  0  0  0
 24 25  1  0  0  0  0
 20 25  1  0  0  0  0
 25 26  2  0  0  0  0
 17 26  1  0  0  0  0
 24 27  1  0  0  0  0
 22 28  1  0  0  0  0
 18 29  1  0  0  0  0
 29 30  2  0  0  0  0
 30 31  1  0  0  0  0
 31 32  2  0  0  0  0
 32 33  1  0  0  0  0
 33 34  2  0  0  0  0
 29 34  1  0  0  0  0
 32 35  1  0  0  0  0
 13 36  1  0  0  0  0
 36 37  1  0  0  0  0
 37 38  1  0  0  0  0
 38 39  1  0  0  0  0
 39 40  1  0  0  0  0
 40 41  1  0  0  0  0
 41 42  1  0  0  0  0
 37 42  1  0  0  0  0
 41 43  1  0  0  0  0
 43 44  1  0  0  0  0
 40 45  1  0  0  0  0
 39 46  1  0  0  0  0
 38 47  1  0  0  0  0
 12 48  1  0  0  0  0
 11 49  1  0  0  0  0
  5 50  1  0  0  0  0
  4 51  1  0  0  0  0
  3 52  1  0  0  0  0
  1 53  1  0  0  0  0
  1 54  1  0  0  0  0
  1 55  1  0  0  0  0
  2 56  1  0  0  0  0
  3 57  1  0  0  0  0
  4 58  1  0  0  0  0
  5 59  1  0  0  0  0
  6 60  1  0  0  0  0
  9 61  1  0  0  0  0
  9 62  1  0  0  0  0
 10 63  1  0  0  0  0
 11 64  1  0  0  0  0
 12 65  1  0  0  0  0
 13 66  1  0  0  0  0
 14 67  1  0  0  0  0
 21 68  1  0  0  0  0
 23 69  1  0  0  0  0
 26 70  1  0  0  0  0
 27 71  1  0  0  0  0
 28 72  1  0  0  0  0
 30 73  1  0  0  0  0
 31 74  1  0  0  0  0
 33 75  1  0  0  0  0
 34 76  1  0  0  0  0
 35 77  1  0  0  0  0
 37 78  1  0  0  0  0
 38 79  1  0  0  0  0
 39 80  1  0  0  0  0
 40 81  1  0  0  0  0
 41 82  1  0  0  0  0
 43 83  1  0  0  0  0
 43 84  1  0  0  0  0
 44 85  1  0  0  0  0
 45 86  1  0  0  0  0
 46 87  1  0  0  0  0
 47 88  1  0  0  0  0
 48 89  1  0  0  0  0
 49 90  1  0  0  0  0
 50 91  1  0  0  0  0
 51 92  1  0  0  0  0
 52 93  1  0  0  0  0
M  CHG  1  19   1
M  END
$$$$
