C45H80O
APtclcactv06291803123D 0   0.00000     0.00000
 
126125  0  0  0  0  0  0  0  0999 V2000
  -17.7474   -3.9887    1.2530 C   0  0  0  0  0  0  0  0  0  0  0  0
  -18.1398   -3.1315    0.0479 C   0  0  0  0  0  0  0  0  0  0  0  0
  -19.6427   -2.8479    0.0915 C   0  0  0  0  0  0  0  0  0  0  0  0
  -17.3700   -1.8099    0.0898 C   0  0  0  0  0  0  0  0  0  0  0  0
  -15.8745   -2.0852   -0.0791 C   0  0  0  0  0  0  0  0  0  0  0  0
  -15.1047   -0.7636   -0.0373 C   0  0  0  0  0  0  0  0  0  0  0  0
  -13.6092   -1.0390   -0.2062 C   0  0  0  0  0  0  0  0  0  0  0  0
  -13.3508   -1.6139   -1.6003 C   0  0  0  0  0  0  0  0  0  0  0  0
  -12.8284    0.2662   -0.0400 C   0  0  0  0  0  0  0  0  0  0  0  0
  -11.3276   -0.0280   -0.0847 C   0  0  0  0  0  0  0  0  0  0  0  0
  -10.5468    1.2772    0.0815 C   0  0  0  0  0  0  0  0  0  0  0  0
   -9.0460    0.9829    0.0369 C   0  0  0  0  0  0  0  0  0  0  0  0
   -8.6699    0.4601   -1.3510 C   0  0  0  0  0  0  0  0  0  0  0  0
   -8.2657    2.2666    0.3270 C   0  0  0  0  0  0  0  0  0  0  0  0
   -6.7713    1.9482    0.4058 C   0  0  0  0  0  0  0  0  0  0  0  0
   -5.9910    3.2319    0.6959 C   0  0  0  0  0  0  0  0  0  0  0  0
   -4.5190    2.9184    0.7735 C   0  0  0  0  0  0  0  0  0  0  0  0
   -3.7609    3.0679   -0.2843 C   0  0  0  0  0  0  0  0  0  0  0  0
   -2.2743    2.8415   -0.1840 C   0  0  0  0  0  0  0  0  0  0  0  0
   -1.8419    1.8196   -1.2374 C   0  0  0  0  0  0  0  0  0  0  0  0
   -0.3554    1.5932   -1.1371 C   0  0  0  0  0  0  0  0  0  0  0  0
    0.1086    0.5934   -0.4291 C   0  0  0  0  0  0  0  0  0  0  0  0
    1.5889    0.3125   -0.4017 C   0  0  0  0  0  0  0  0  0  0  0  0
    2.0742    0.2754    1.0488 C   0  0  0  0  0  0  0  0  0  0  0  0
    3.5546   -0.0055    1.0762 C   0  0  0  0  0  0  0  0  0  0  0  0
    4.4082    0.9858    1.1446 C   0  0  0  0  0  0  0  0  0  0  0  0
    5.8872    0.7150    1.0426 C   0  0  0  0  0  0  0  0  0  0  0  0
    6.4864    1.5708   -0.0752 C   0  0  0  0  0  0  0  0  0  0  0  0
    7.9654    1.3000   -0.1772 C   0  0  0  0  0  0  0  0  0  0  0  0
    8.4122    0.4195   -1.0382 C   0  0  0  0  0  0  0  0  0  0  0  0
    9.8736    0.0517   -1.0501 C   0  0  0  0  0  0  0  0  0  0  0  0
   10.0236   -1.4503   -0.8003 C   0  0  0  0  0  0  0  0  0  0  0  0
   11.4850   -1.8181   -0.8123 C   0  0  0  0  0  0  0  0  0  0  0  0
   12.1536   -1.8817    0.3125 C   0  0  0  0  0  0  0  0  0  0  0  0
   13.6440   -2.1033    0.2915 C   0  0  0  0  0  0  0  0  0  0  0  0
   14.3427   -0.9392    0.9970 C   0  0  0  0  0  0  0  0  0  0  0  0
   15.8332   -1.1609    0.9760 C   0  0  0  0  0  0  0  0  0  0  0  0
   16.5629   -0.6180    0.0332 C   0  0  0  0  0  0  0  0  0  0  0  0
   18.0534   -0.8397    0.0123 C   0  0  0  0  0  0  0  0  0  0  0  0
   18.4705   -1.1475   -1.3194 O   0  0  0  0  0  0  0  0  0  0  0  0
   16.4842   -2.0070    2.0397 C   0  0  0  0  0  0  0  0  0  0  0  0
   12.1772   -2.1127   -2.1180 C   0  0  0  0  0  0  0  0  0  0  0  0
    8.9303    2.0420    0.7112 C   0  0  0  0  0  0  0  0  0  0  0  0
    4.0529   -1.4268    1.0249 C   0  0  0  0  0  0  0  0  0  0  0  0
    0.5974    2.5169   -1.8512 C   0  0  0  0  0  0  0  0  0  0  0  0
   -3.9192    2.4328    2.0679 C   0  0  0  0  0  0  0  0  0  0  0  0
  -17.9901   -3.4558    2.1723 H   0  0  0  0  0  0  0  0  0  0  0  0
  -18.2958   -4.9302    1.2231 H   0  0  0  0  0  0  0  0  0  0  0  0
  -16.6768   -4.1907    1.2219 H   0  0  0  0  0  0  0  0  0  0  0  0
  -17.8971   -3.6643   -0.8715 H   0  0  0  0  0  0  0  0  0  0  0  0
  -19.8854   -2.3150    1.0108 H   0  0  0  0  0  0  0  0  0  0  0  0
  -19.9222   -2.2372   -0.7670 H   0  0  0  0  0  0  0  0  0  0  0  0
  -20.1911   -3.7894    0.0616 H   0  0  0  0  0  0  0  0  0  0  0  0
  -17.7139   -1.1634   -0.7176 H   0  0  0  0  0  0  0  0  0  0  0  0
  -17.5432   -1.3188    1.0473 H   0  0  0  0  0  0  0  0  0  0  0  0
  -15.5306   -2.7317    0.7282 H   0  0  0  0  0  0  0  0  0  0  0  0
  -15.7014   -2.5764   -1.0367 H   0  0  0  0  0  0  0  0  0  0  0  0
  -15.4486   -0.1171   -0.8446 H   0  0  0  0  0  0  0  0  0  0  0  0
  -15.2779   -0.2725    0.9203 H   0  0  0  0  0  0  0  0  0  0  0  0
  -13.2842   -1.7554    0.5483 H   0  0  0  0  0  0  0  0  0  0  0  0
  -12.2853   -1.8101   -1.7206 H   0  0  0  0  0  0  0  0  0  0  0  0
  -13.9070   -2.5438   -1.7187 H   0  0  0  0  0  0  0  0  0  0  0  0
  -13.6758   -0.8975   -2.3548 H   0  0  0  0  0  0  0  0  0  0  0  0
  -13.0886    0.9506   -0.8475 H   0  0  0  0  0  0  0  0  0  0  0  0
  -13.0811    0.7214    0.9176 H   0  0  0  0  0  0  0  0  0  0  0  0
  -11.0674   -0.7124    0.7228 H   0  0  0  0  0  0  0  0  0  0  0  0
  -11.0749   -0.4832   -1.0423 H   0  0  0  0  0  0  0  0  0  0  0  0
  -10.8070    1.9615   -0.7260 H   0  0  0  0  0  0  0  0  0  0  0  0
  -10.7995    1.7323    1.0392 H   0  0  0  0  0  0  0  0  0  0  0  0
   -8.8007    0.2312    0.7871 H   0  0  0  0  0  0  0  0  0  0  0  0
   -7.6007    0.2504   -1.3827 H   0  0  0  0  0  0  0  0  0  0  0  0
   -9.2258   -0.4544   -1.5577 H   0  0  0  0  0  0  0  0  0  0  0  0
   -8.9152    1.2118   -2.1012 H   0  0  0  0  0  0  0  0  0  0  0  0
   -8.4421    2.9873   -0.4714 H   0  0  0  0  0  0  0  0  0  0  0  0
   -8.5981    2.6871    1.2761 H   0  0  0  0  0  0  0  0  0  0  0  0
   -6.5949    1.2275    1.2042 H   0  0  0  0  0  0  0  0  0  0  0  0
   -6.4389    1.5277   -0.5433 H   0  0  0  0  0  0  0  0  0  0  0  0
   -6.1674    3.9527   -0.1025 H   0  0  0  0  0  0  0  0  0  0  0  0
   -6.3234    3.6525    1.6450 H   0  0  0  0  0  0  0  0  0  0  0  0
   -4.2011    3.3535   -1.2283 H   0  0  0  0  0  0  0  0  0  0  0  0
   -1.7512    3.7825   -0.3544 H   0  0  0  0  0  0  0  0  0  0  0  0
   -2.0304    2.4649    0.8093 H   0  0  0  0  0  0  0  0  0  0  0  0
   -2.3650    0.8786   -1.0670 H   0  0  0  0  0  0  0  0  0  0  0  0
   -2.0859    2.1962   -2.2307 H   0  0  0  0  0  0  0  0  0  0  0  0
   -0.5698   -0.0296    0.1349 H   0  0  0  0  0  0  0  0  0  0  0  0
    1.7850   -0.6495   -0.8752 H   0  0  0  0  0  0  0  0  0  0  0  0
    2.1178    1.0978   -0.9418 H   0  0  0  0  0  0  0  0  0  0  0  0
    1.8782    1.2374    1.5223 H   0  0  0  0  0  0  0  0  0  0  0  0
    1.5454   -0.5099    1.5889 H   0  0  0  0  0  0  0  0  0  0  0  0
    4.0521    1.9971    1.2741 H   0  0  0  0  0  0  0  0  0  0  0  0
    6.3682    0.9640    1.9885 H   0  0  0  0  0  0  0  0  0  0  0  0
    6.0489   -0.3396    0.8193 H   0  0  0  0  0  0  0  0  0  0  0  0
    6.0054    1.3217   -1.0211 H   0  0  0  0  0  0  0  0  0  0  0  0
    6.3247    2.6253    0.1481 H   0  0  0  0  0  0  0  0  0  0  0  0
    7.7333   -0.0428   -1.7394 H   0  0  0  0  0  0  0  0  0  0  0  0
   10.3038    0.3036   -2.0194 H   0  0  0  0  0  0  0  0  0  0  0  0
   10.3937    0.6039   -0.2673 H   0  0  0  0  0  0  0  0  0  0  0  0
    9.5934   -1.7022    0.1690 H   0  0  0  0  0  0  0  0  0  0  0  0
    9.5035   -2.0025   -1.5831 H   0  0  0  0  0  0  0  0  0  0  0  0
   11.6366   -1.7753    1.2547 H   0  0  0  0  0  0  0  0  0  0  0  0
   13.8801   -3.0346    0.8064 H   0  0  0  0  0  0  0  0  0  0  0  0
   13.9882   -2.1617   -0.7411 H   0  0  0  0  0  0  0  0  0  0  0  0
   14.1066   -0.0080    0.4821 H   0  0  0  0  0  0  0  0  0  0  0  0
   13.9985   -0.8809    2.0296 H   0  0  0  0  0  0  0  0  0  0  0  0
   16.0964   -0.0116   -0.7290 H   0  0  0  0  0  0  0  0  0  0  0  0
   18.5599    0.0637    0.3520 H   0  0  0  0  0  0  0  0  0  0  0  0
   18.3068   -1.6686    0.6732 H   0  0  0  0  0  0  0  0  0  0  0  0
   19.4209   -1.3027   -1.4078 H   0  0  0  0  0  0  0  0  0  0  0  0
   16.5087   -3.0465    1.7125 H   0  0  0  0  0  0  0  0  0  0  0  0
   17.5018   -1.6560    2.2110 H   0  0  0  0  0  0  0  0  0  0  0  0
   15.9129   -1.9307    2.9648 H   0  0  0  0  0  0  0  0  0  0  0  0
   12.5432   -1.1827   -2.5532 H   0  0  0  0  0  0  0  0  0  0  0  0
   13.0160   -2.7857   -1.9408 H   0  0  0  0  0  0  0  0  0  0  0  0
   11.4730   -2.5827   -2.8046 H   0  0  0  0  0  0  0  0  0  0  0  0
    9.1488    1.4399    1.5932 H   0  0  0  0  0  0  0  0  0  0  0  0
    9.8536    2.2339    0.1645 H   0  0  0  0  0  0  0  0  0  0  0  0
    8.4865    2.9890    1.0186 H   0  0  0  0  0  0  0  0  0  0  0  0
    4.2906   -1.6916   -0.0054 H   0  0  0  0  0  0  0  0  0  0  0  0
    4.9480   -1.5204    1.6398 H   0  0  0  0  0  0  0  0  0  0  0  0
    3.2806   -2.0965    1.4032 H   0  0  0  0  0  0  0  0  0  0  0  0
    0.9338    3.2936   -1.1644 H   0  0  0  0  0  0  0  0  0  0  0  0
    1.4571    1.9486   -2.2062 H   0  0  0  0  0  0  0  0  0  0  0  0
    0.0904    2.9767   -2.6995 H   0  0  0  0  0  0  0  0  0  0  0  0
   -3.8841    1.3433    2.0659 H   0  0  0  0  0  0  0  0  0  0  0  0
   -2.9089    2.8286    2.1713 H   0  0  0  0  0  0  0  0  0  0  0  0
   -4.5308    2.7751    2.9027 H   0  0  0  0  0  0  0  0  0  0  0  0
  1  2  1  0  0  0  0
  2  3  1  0  0  0  0
  2  4  1  0  0  0  0
  4  5  1  0  0  0  0
  5  6  1  0  0  0  0
  6  7  1  0  0  0  0
  7  8  1  0  0  0  0
  7  9  1  0  0  0  0
  9 10  1  0  0  0  0
 10 11  1  0  0  0  0
 11 12  1  0  0  0  0
 12 13  1  0  0  0  0
 12 14  1  0  0  0  0
 14 15  1  0  0  0  0
 15 16  1  0  0  0  0
 16 17  1  0  0  0  0
 17 18  2  0  0  0  0
 18 19  1  0  0  0  0
 19 20  1  0  0  0  0
 20 21  1  0  0  0  0
 21 22  2  0  0  0  0
 22 23  1  0  0  0  0
 23 24  1  0  0  0  0
 24 25  1  0  0  0  0
 25 26  2  0  0  0  0
 26 27  1  0  0  0  0
 27 28  1  0  0  0  0
 28 29  1  0  0  0  0
 29 30  2  0  0  0  0
 30 31  1  0  0  0  0
 31 32  1  0  0  0  0
 32 33  1  0  0  0  0
 33 34  2  0  0  0  0
 34 35  1  0  0  0  0
 35 36  1  0  0  0  0
 36 37  1  0  0  0  0
 37 38  2  0  0  0  0
 38 39  1  0  0  0  0
 39 40  1  0  0  0  0
 37 41  1  0  0  0  0
 33 42  1  0  0  0  0
 29 43  1  0  0  0  0
 25 44  1  0  0  0  0
 21 45  1  0  0  0  0
 17 46  1  0  0  0  0
  1 47  1  0  0  0  0
  1 48  1  0  0  0  0
  1 49  1  0  0  0  0
  2 50  1  0  0  0  0
  3 51  1  0  0  0  0
  3 52  1  0  0  0  0
  3 53  1  0  0  0  0
  4 54  1  0  0  0  0
  4 55  1  0  0  0  0
  5 56  1  0  0  0  0
  5 57  1  0  0  0  0
  6 58  1  0  0  0  0
  6 59  1  0  0  0  0
  7 60  1  0  0  0  0
  8 61  1  0  0  0  0
  8 62  1  0  0  0  0
  8 63  1  0  0  0  0
  9 64  1  0  0  0  0
  9 65  1  0  0  0  0
 10 66  1  0  0  0  0
 10 67  1  0  0  0  0
 11 68  1  0  0  0  0
 11 69  1  0  0  0  0
 12 70  1  0  0  0  0
 13 71  1  0  0  0  0
 13 72  1  0  0  0  0
 13 73  1  0  0  0  0
 14 74  1  0  0  0  0
 14 75  1  0  0  0  0
 15 76  1  0  0  0  0
 15 77  1  0  0  0  0
 16 78  1  0  0  0  0
 16 79  1  0  0  0  0
 18 80  1  0  0  0  0
 19 81  1  0  0  0  0
 19 82  1  0  0  0  0
 20 83  1  0  0  0  0
 20 84  1  0  0  0  0
 22 85  1  0  0  0  0
 23 86  1  0  0  0  0
 23 87  1  0  0  0  0
 24 88  1  0  0  0  0
 24 89  1  0  0  0  0
 26 90  1  0  0  0  0
 27 91  1  0  0  0  0
 27 92  1  0  0  0  0
 28 93  1  0  0  0  0
 28 94  1  0  0  0  0
 30 95  1  0  0  0  0
 31 96  1  0  0  0  0
 31 97  1  0  0  0  0
 32 98  1  0  0  0  0
 32 99  1  0  0  0  0
 34100  1  0  0  0  0
 35101  1  0  0  0  0
 35102  1  0  0  0  0
 36103  1  0  0  0  0
 36104  1  0  0  0  0
 38105  1  0  0  0  0
 39106  1  0  0  0  0
 39107  1  0  0  0  0
 40108  1  0  0  0  0
 41109  1  0  0  0  0
 41110  1  0  0  0  0
 41111  1  0  0  0  0
 42112  1  0  0  0  0
 42113  1  0  0  0  0
 42114  1  0  0  0  0
 43115  1  0  0  0  0
 43116  1  0  0  0  0
 43117  1  0  0  0  0
 44118  1  0  0  0  0
 44119  1  0  0  0  0
 44120  1  0  0  0  0
 45121  1  0  0  0  0
 45122  1  0  0  0  0
 45123  1  0  0  0  0
 46124  1  0  0  0  0
 46125  1  0  0  0  0
 46126  1  0  0  0  0
M  END
$$$$
