C33H58O14
APtclcactv06281817003D 0   0.00000     0.00000
 
105106  0  0  0  0  0  0  0  0999 V2000
  -15.1702    5.2365   -3.1686 C   0  0  0  0  0  0  0  0  0  0  0  0
  -15.0154    3.7451   -2.8644 C   0  0  0  0  0  0  0  0  0  0  0  0
  -14.5432    3.5655   -1.4202 C   0  0  0  0  0  0  0  0  0  0  0  0
  -14.3884    2.0741   -1.1160 C   0  0  0  0  0  0  0  0  0  0  0  0
  -13.9162    1.8945    0.3282 C   0  0  0  0  0  0  0  0  0  0  0  0
  -13.7637    0.4255    0.6279 C   0  0  0  0  0  0  0  0  0  0  0  0
  -12.6237   -0.0361    1.0790 C   0  0  0  0  0  0  0  0  0  0  0  0
  -12.4712   -1.5051    1.3787 C   0  0  0  0  0  0  0  0  0  0  0  0
  -11.2921   -2.0534    0.6170 C   0  0  0  0  0  0  0  0  0  0  0  0
  -10.3329   -2.6770    1.2550 C   0  0  0  0  0  0  0  0  0  0  0  0
   -9.1538   -3.2253    0.4933 C   0  0  0  0  0  0  0  0  0  0  0  0
   -7.8589   -2.6670    1.0870 C   0  0  0  0  0  0  0  0  0  0  0  0
   -6.6618   -3.2236    0.3137 C   0  0  0  0  0  0  0  0  0  0  0  0
   -5.3668   -2.6653    0.9073 C   0  0  0  0  0  0  0  0  0  0  0  0
   -4.1697   -3.2220    0.1340 C   0  0  0  0  0  0  0  0  0  0  0  0
   -2.8748   -2.6637    0.7277 C   0  0  0  0  0  0  0  0  0  0  0  0
   -1.6777   -3.2204   -0.0456 C   0  0  0  0  0  0  0  0  0  0  0  0
   -0.4023   -2.6705    0.5391 C   0  0  0  0  0  0  0  0  0  0  0  0
   -0.4463   -1.9112    1.4780 O   0  0  0  0  0  0  0  0  0  0  0  0
    0.7826   -3.0241    0.0169 O   0  0  0  0  0  0  0  0  0  0  0  0
    1.9695   -2.4559    0.6307 C   0  0  0  0  0  0  0  0  0  0  0  0
    3.2147   -2.9705   -0.0943 C   0  0  0  0  0  0  0  0  0  0  0  0
    4.4564   -2.2771    0.4699 C   0  0  0  0  0  0  0  0  0  0  0  0
    5.6051   -2.6698   -0.2839 O   0  0  0  0  0  0  0  0  0  0  0  0
    6.8250   -2.0752    0.1636 C   0  0  0  0  0  0  0  0  0  0  0  0
    7.9980   -2.6583   -0.6288 C   0  0  0  0  0  0  0  0  0  0  0  0
    7.8268   -2.3092   -2.1104 C   0  0  0  0  0  0  0  0  0  0  0  0
    7.7255   -0.7878   -2.2568 C   0  0  0  0  0  0  0  0  0  0  0  0
    6.5631   -0.2770   -1.4015 C   0  0  0  0  0  0  0  0  0  0  0  0
    6.7695   -0.6620   -0.0408 O   0  0  0  0  0  0  0  0  0  0  0  0
    6.4927    1.2485   -1.4950 C   0  0  0  0  0  0  0  0  0  0  0  0
    5.3398    1.7162   -0.7921 O   0  0  0  0  0  0  0  0  0  0  0  0
    5.1795    3.1359   -0.8179 C   0  0  0  0  0  0  0  0  0  0  0  0
    3.8562    3.5126   -0.1467 C   0  0  0  0  0  0  0  0  0  0  0  0
    3.8945    3.0757    1.3209 C   0  0  0  0  0  0  0  0  0  0  0  0
    5.0997    3.7282    2.0051 C   0  0  0  0  0  0  0  0  0  0  0  0
    6.3750    3.3432    1.2508 C   0  0  0  0  0  0  0  0  0  0  0  0
    6.2609    3.7504   -0.1142 O   0  0  0  0  0  0  0  0  0  0  0  0
    7.5770    4.0394    1.8922 C   0  0  0  0  0  0  0  0  0  0  0  0
    8.7790    3.5904    1.2633 O   0  0  0  0  0  0  0  0  0  0  0  0
    4.9462    5.1489    1.9898 O   0  0  0  0  0  0  0  0  0  0  0  0
    2.6925    3.4887    1.9742 O   0  0  0  0  0  0  0  0  0  0  0  0
    3.6698    4.9276   -0.2191 O   0  0  0  0  0  0  0  0  0  0  0  0
    8.9436   -0.1836   -1.8170 O   0  0  0  0  0  0  0  0  0  0  0  0
    8.9544   -2.7863   -2.8473 O   0  0  0  0  0  0  0  0  0  0  0  0
    9.2232   -2.1037   -0.1459 O   0  0  0  0  0  0  0  0  0  0  0  0
    3.3285   -4.3819    0.0979 O   0  0  0  0  0  0  0  0  0  0  0  0
  -14.2106    5.7361   -3.0353 H   0  0  0  0  0  0  0  0  0  0  0  0
  -15.5066    5.3645   -4.1975 H   0  0  0  0  0  0  0  0  0  0  0  0
  -15.9037    5.6716   -2.4898 H   0  0  0  0  0  0  0  0  0  0  0  0
  -15.9750    3.2456   -2.9977 H   0  0  0  0  0  0  0  0  0  0  0  0
  -14.2819    3.3101   -3.5432 H   0  0  0  0  0  0  0  0  0  0  0  0
  -13.5836    4.0651   -1.2869 H   0  0  0  0  0  0  0  0  0  0  0  0
  -15.2767    4.0006   -0.7413 H   0  0  0  0  0  0  0  0  0  0  0  0
  -15.3480    1.5746   -1.2493 H   0  0  0  0  0  0  0  0  0  0  0  0
  -13.6549    1.6390   -1.7948 H   0  0  0  0  0  0  0  0  0  0  0  0
  -12.9566    2.3940    0.4615 H   0  0  0  0  0  0  0  0  0  0  0  0
  -14.6497    2.3296    1.0071 H   0  0  0  0  0  0  0  0  0  0  0  0
  -14.5942   -0.2468    0.4707 H   0  0  0  0  0  0  0  0  0  0  0  0
  -11.7932    0.6362    1.2362 H   0  0  0  0  0  0  0  0  0  0  0  0
  -12.3092   -1.6429    2.4477 H   0  0  0  0  0  0  0  0  0  0  0  0
  -13.3759   -2.0332    1.0773 H   0  0  0  0  0  0  0  0  0  0  0  0
  -11.2380   -1.9322   -0.4548 H   0  0  0  0  0  0  0  0  0  0  0  0
  -10.3871   -2.7982    2.3268 H   0  0  0  0  0  0  0  0  0  0  0  0
   -9.1478   -4.3128    0.5666 H   0  0  0  0  0  0  0  0  0  0  0  0
   -9.2294   -2.9321   -0.5538 H   0  0  0  0  0  0  0  0  0  0  0  0
   -7.8649   -1.5795    1.0137 H   0  0  0  0  0  0  0  0  0  0  0  0
   -7.7832   -2.9602    2.1341 H   0  0  0  0  0  0  0  0  0  0  0  0
   -6.6558   -4.3112    0.3869 H   0  0  0  0  0  0  0  0  0  0  0  0
   -6.7374   -2.9304   -0.7334 H   0  0  0  0  0  0  0  0  0  0  0  0
   -5.3728   -1.5778    0.8341 H   0  0  0  0  0  0  0  0  0  0  0  0
   -5.2912   -2.9586    1.9544 H   0  0  0  0  0  0  0  0  0  0  0  0
   -4.1637   -4.3095    0.2073 H   0  0  0  0  0  0  0  0  0  0  0  0
   -4.2454   -2.9288   -0.9131 H   0  0  0  0  0  0  0  0  0  0  0  0
   -2.8808   -1.5762    0.6544 H   0  0  0  0  0  0  0  0  0  0  0  0
   -2.7992   -2.9569    1.7748 H   0  0  0  0  0  0  0  0  0  0  0  0
   -1.6717   -4.3079    0.0276 H   0  0  0  0  0  0  0  0  0  0  0  0
   -1.7534   -2.9271   -1.0927 H   0  0  0  0  0  0  0  0  0  0  0  0
    1.9306   -1.3689    0.5591 H   0  0  0  0  0  0  0  0  0  0  0  0
    2.0123   -2.7496    1.6795 H   0  0  0  0  0  0  0  0  0  0  0  0
    3.1303   -2.7544   -1.1593 H   0  0  0  0  0  0  0  0  0  0  0  0
    4.3306   -1.1964    0.4040 H   0  0  0  0  0  0  0  0  0  0  0  0
    4.5905   -2.5643    1.5128 H   0  0  0  0  0  0  0  0  0  0  0  0
    6.9635   -2.2840    1.2244 H   0  0  0  0  0  0  0  0  0  0  0  0
    8.0155   -3.7416   -0.5095 H   0  0  0  0  0  0  0  0  0  0  0  0
    6.9174   -2.7736   -2.4917 H   0  0  0  0  0  0  0  0  0  0  0  0
    7.5482   -0.5334   -3.3017 H   0  0  0  0  0  0  0  0  0  0  0  0
    5.6292   -0.7070   -1.7633 H   0  0  0  0  0  0  0  0  0  0  0  0
    7.3892    1.6815   -1.0512 H   0  0  0  0  0  0  0  0  0  0  0  0
    6.4255    1.5457   -2.5416 H   0  0  0  0  0  0  0  0  0  0  0  0
    5.1746    3.4825   -1.8513 H   0  0  0  0  0  0  0  0  0  0  0  0
    3.0337    3.0095   -0.6552 H   0  0  0  0  0  0  0  0  0  0  0  0
    3.9869    1.9911    1.3762 H   0  0  0  0  0  0  0  0  0  0  0  0
    5.1665    3.3793    3.0356 H   0  0  0  0  0  0  0  0  0  0  0  0
    6.5129    2.2630    1.2976 H   0  0  0  0  0  0  0  0  0  0  0  0
    7.4820    5.1180    1.7662 H   0  0  0  0  0  0  0  0  0  0  0  0
    7.6115    3.7995    2.9549 H   0  0  0  0  0  0  0  0  0  0  0  0
    9.5833    3.9914    1.6204 H   0  0  0  0  0  0  0  0  0  0  0  0
    4.1543    5.4639    2.4466 H   0  0  0  0  0  0  0  0  0  0  0  0
    1.8874    3.1178    1.5877 H   0  0  0  0  0  0  0  0  0  0  0  0
    3.6407    5.2748   -1.1211 H   0  0  0  0  0  0  0  0  0  0  0  0
    9.7242   -0.4662   -2.3129 H   0  0  0  0  0  0  0  0  0  0  0  0
    9.0832   -3.7432   -2.7933 H   0  0  0  0  0  0  0  0  0  0  0  0
    9.3943   -2.2821    0.7889 H   0  0  0  0  0  0  0  0  0  0  0  0
    3.4075   -4.6476    1.0243 H   0  0  0  0  0  0  0  0  0  0  0  0
  1  2  1  0  0  0  0
  2  3  1  0  0  0  0
  3  4  1  0  0  0  0
  4  5  1  0  0  0  0
  5  6  1  0  0  0  0
  6  7  2  0  0  0  0
  7  8  1  0  0  0  0
  8  9  1  0  0  0  0
  9 10  2  0  0  0  0
 10 11  1  0  0  0  0
 11 12  1  0  0  0  0
 12 13  1  0  0  0  0
 13 14  1  0  0  0  0
 14 15  1  0  0  0  0
 15 16  1  0  0  0  0
 16 17  1  0  0  0  0
 17 18  1  0  0  0  0
 18 19  2  0  0  0  0
 18 20  1  0  0  0  0
 20 21  1  0  0  0  0
 21 22  1  0  0  0  0
 22 23  1  0  0  0  0
 23 24  1  0  0  0  0
 24 25  1  0  0  0  0
 25 26  1  0  0  0  0
 26 27  1  0  0  0  0
 27 28  1  0  0  0  0
 28 29  1  0  0  0  0
 29 30  1  0  0  0  0
 25 30  1  0  0  0  0
 29 31  1  0  0  0  0
 31 32  1  0  0  0  0
 32 33  1  0  0  0  0
 33 34  1  0  0  0  0
 34 35  1  0  0  0  0
 35 36  1  0  0  0  0
 36 37  1  0  0  0  0
 37 38  1  0  0  0  0
 33 38  1  0  0  0  0
 37 39  1  0  0  0  0
 39 40  1  0  0  0  0
 36 41  1  0  0  0  0
 35 42  1  0  0  0  0
 34 43  1  0  0  0  0
 28 44  1  0  0  0  0
 27 45  1  0  0  0  0
 26 46  1  0  0  0  0
 22 47  1  0  0  0  0
  1 48  1  0  0  0  0
  1 49  1  0  0  0  0
  1 50  1  0  0  0  0
  2 51  1  0  0  0  0
  2 52  1  0  0  0  0
  3 53  1  0  0  0  0
  3 54  1  0  0  0  0
  4 55  1  0  0  0  0
  4 56  1  0  0  0  0
  5 57  1  0  0  0  0
  5 58  1  0  0  0  0
  6 59  1  0  0  0  0
  7 60  1  0  0  0  0
  8 61  1  0  0  0  0
  8 62  1  0  0  0  0
  9 63  1  0  0  0  0
 10 64  1  0  0  0  0
 11 65  1  0  0  0  0
 11 66  1  0  0  0  0
 12 67  1  0  0  0  0
 12 68  1  0  0  0  0
 13 69  1  0  0  0  0
 13 70  1  0  0  0  0
 14 71  1  0  0  0  0
 14 72  1  0  0  0  0
 15 73  1  0  0  0  0
 15 74  1  0  0  0  0
 16 75  1  0  0  0  0
 16 76  1  0  0  0  0
 17 77  1  0  0  0  0
 17 78  1  0  0  0  0
 21 79  1  0  0  0  0
 21 80  1  0  0  0  0
 22 81  1  0  0  0  0
 23 82  1  0  0  0  0
 23 83  1  0  0  0  0
 25 84  1  0  0  0  0
 26 85  1  0  0  0  0
 27 86  1  0  0  0  0
 28 87  1  0  0  0  0
 29 88  1  0  0  0  0
 31 89  1  0  0  0  0
 31 90  1  0  0  0  0
 33 91  1  0  0  0  0
 34 92  1  0  0  0  0
 35 93  1  0  0  0  0
 36 94  1  0  0  0  0
 37 95  1  0  0  0  0
 39 96  1  0  0  0  0
 39 97  1  0  0  0  0
 40 98  1  0  0  0  0
 41 99  1  0  0  0  0
 42100  1  0  0  0  0
 43101  1  0  0  0  0
 44102  1  0  0  0  0
 45103  1  0  0  0  0
 46104  1  0  0  0  0
 47105  1  0  0  0  0
M  END
$$$$
