C17H16O7
APtclcactv06291803143D 0   0.00000     0.00000
 
 40 42  0  0  0  0  0  0  0  0999 V2000
    6.4216   -1.2251   -1.2418 C   0  0  0  0  0  0  0  0  0  0  0  0
    6.0115   -0.5770   -0.0361 O   0  0  0  0  0  0  0  0  0  0  0  0
    4.6868   -0.3048    0.0983 C   0  0  0  0  0  0  0  0  0  0  0  0
    4.2192    0.3231    1.2437 C   0  0  0  0  0  0  0  0  0  0  0  0
    2.8722    0.5986    1.3779 C   0  0  0  0  0  0  0  0  0  0  0  0
    1.9903    0.2492    0.3720 C   0  0  0  0  0  0  0  0  0  0  0  0
    2.4538   -0.3771   -0.7702 C   0  0  0  0  0  0  0  0  0  0  0  0
    3.8007   -0.6492   -0.9120 C   0  0  0  0  0  0  0  0  0  0  0  0
    0.5214    0.5509    0.5211 C   0  0  0  0  0  0  0  0  0  0  0  0
    0.1764    1.8218   -0.2691 C   0  0  0  0  0  0  0  0  0  0  0  0
   -1.3149    2.0578   -0.1108 C   0  0  0  0  0  0  0  0  0  0  0  0
   -1.7712    3.1713    0.0485 O   0  0  0  0  0  0  0  0  0  0  0  0
   -2.1764    0.8713   -0.1608 C   0  0  0  0  0  0  0  0  0  0  0  0
   -1.5874   -0.4043   -0.0869 C   0  0  0  0  0  0  0  0  0  0  0  0
   -0.2435   -0.5426    0.0142 O   0  0  0  0  0  0  0  0  0  0  0  0
   -2.3986   -1.5284   -0.1226 C   0  0  0  0  0  0  0  0  0  0  0  0
   -3.7788   -1.3907   -0.2353 C   0  0  0  0  0  0  0  0  0  0  0  0
   -4.3607   -0.1316   -0.3144 C   0  0  0  0  0  0  0  0  0  0  0  0
   -3.5690    1.0020   -0.2792 C   0  0  0  0  0  0  0  0  0  0  0  0
   -4.1350    2.2327   -0.3580 O   0  0  0  0  0  0  0  0  0  0  0  0
   -4.5643   -2.4975   -0.2688 O   0  0  0  0  0  0  0  0  0  0  0  0
   -1.8435   -2.7696   -0.0468 O   0  0  0  0  0  0  0  0  0  0  0  0
   -1.6798   -3.3285    1.2582 C   0  0  0  0  0  0  0  0  0  0  0  0
    0.9037    2.9340    0.2565 O   0  0  0  0  0  0  0  0  0  0  0  0
    7.4998   -1.3834   -1.2206 H   0  0  0  0  0  0  0  0  0  0  0  0
    5.9149   -2.1863   -1.3280 H   0  0  0  0  0  0  0  0  0  0  0  0
    6.1628   -0.6000   -2.0964 H   0  0  0  0  0  0  0  0  0  0  0  0
    4.9076    0.5959    2.0298 H   0  0  0  0  0  0  0  0  0  0  0  0
    2.5076    1.0871    2.2695 H   0  0  0  0  0  0  0  0  0  0  0  0
    1.7628   -0.6497   -1.5542 H   0  0  0  0  0  0  0  0  0  0  0  0
    4.1623   -1.1384   -1.8044 H   0  0  0  0  0  0  0  0  0  0  0  0
    0.2862    0.7025    1.5746 H   0  0  0  0  0  0  0  0  0  0  0  0
    0.4204    1.6818   -1.3221 H   0  0  0  0  0  0  0  0  0  0  0  0
   -5.4329   -0.0378   -0.4037 H   0  0  0  0  0  0  0  0  0  0  0  0
   -4.3713    2.6126    0.4993 H   0  0  0  0  0  0  0  0  0  0  0  0
   -4.8615   -2.7954    0.6019 H   0  0  0  0  0  0  0  0  0  0  0  0
   -1.0337   -2.6819    1.8519 H   0  0  0  0  0  0  0  0  0  0  0  0
   -2.6530   -3.4128    1.7419 H   0  0  0  0  0  0  0  0  0  0  0  0
   -1.2280   -4.3170    1.1760 H   0  0  0  0  0  0  0  0  0  0  0  0
    0.7300    3.7686   -0.1999 H   0  0  0  0  0  0  0  0  0  0  0  0
  1  2  1  0  0  0  0
  2  3  1  0  0  0  0
  3  4  2  0  0  0  0
  4  5  1  0  0  0  0
  5  6  2  0  0  0  0
  6  7  1  0  0  0  0
  7  8  2  0  0  0  0
  3  8  1  0  0  0  0
  6  9  1  0  0  0  0
  9 10  1  0  0  0  0
 10 11  1  0  0  0  0
 11 12  2  0  0  0  0
 11 13  1  0  0  0  0
 13 14  2  0  0  0  0
 14 15  1  0  0  0  0
  9 15  1  0  0  0  0
 14 16  1  0  0  0  0
 16 17  2  0  0  0  0
 17 18  1  0  0  0  0
 18 19  2  0  0  0  0
 13 19  1  0  0  0  0
 19 20  1  0  0  0  0
 17 21  1  0  0  0  0
 16 22  1  0  0  0  0
 22 23  1  0  0  0  0
 10 24  1  0  0  0  0
  1 25  1  0  0  0  0
  1 26  1  0  0  0  0
  1 27  1  0  0  0  0
  4 28  1  0  0  0  0
  5 29  1  0  0  0  0
  7 30  1  0  0  0  0
  8 31  1  0  0  0  0
  9 32  1  0  0  0  0
 10 33  1  0  0  0  0
 18 34  1  0  0  0  0
 20 35  1  0  0  0  0
 21 36  1  0  0  0  0
 23 37  1  0  0  0  0
 23 38  1  0  0  0  0
 23 39  1  0  0  0  0
 24 40  1  0  0  0  0
M  END
$$$$
