C21H22O11
APtclcactv06281817383D 0   0.00000     0.00000
 
 54 57  0  0  0  0  0  0  0  0999 V2000
   -3.3286    1.8174    0.5785 C   0  0  0  0  0  0  0  0  0  0  0  0
   -3.2273    0.4871   -0.1821 C   0  0  0  0  0  0  0  0  0  0  0  0
   -2.1905   -0.3080    0.3931 O   0  0  0  0  0  0  0  0  0  0  0  0
   -0.9609    0.2381    0.5434 C   0  0  0  0  0  0  0  0  0  0  0  0
    0.1504   -0.5795    0.6437 C   0  0  0  0  0  0  0  0  0  0  0  0
    1.4139   -0.0250    0.8056 C   0  0  0  0  0  0  0  0  0  0  0  0
    1.5805    1.3527    0.8697 C   0  0  0  0  0  0  0  0  0  0  0  0
    0.4827    2.1890    0.7694 C   0  0  0  0  0  0  0  0  0  0  0  0
   -0.7956    1.6347    0.6007 C   0  0  0  0  0  0  0  0  0  0  0  0
   -1.9753    2.4977    0.4755 C   0  0  0  0  0  0  0  0  0  0  0  0
   -1.8745    3.6943    0.2986 O   0  0  0  0  0  0  0  0  0  0  0  0
    0.6408    3.5344    0.8335 O   0  0  0  0  0  0  0  0  0  0  0  0
    2.4963   -0.8373    0.9018 O   0  0  0  0  0  0  0  0  0  0  0  0
    3.7680   -0.2068    1.0672 C   0  0  0  0  0  0  0  0  0  0  0  0
    4.8436   -1.2751    1.2807 C   0  0  0  0  0  0  0  0  0  0  0  0
    4.9238   -2.1638    0.0357 C   0  0  0  0  0  0  0  0  0  0  0  0
    5.2105   -1.2865   -1.1868 C   0  0  0  0  0  0  0  0  0  0  0  0
    4.1208   -0.2177   -1.3050 C   0  0  0  0  0  0  0  0  0  0  0  0
    4.0789    0.5531   -0.1025 O   0  0  0  0  0  0  0  0  0  0  0  0
    4.4325    0.7001   -2.4888 C   0  0  0  0  0  0  0  0  0  0  0  0
    3.3579    1.6243   -2.6709 O   0  0  0  0  0  0  0  0  0  0  0  0
    6.4835   -0.6555   -1.0338 O   0  0  0  0  0  0  0  0  0  0  0  0
    5.9753   -3.1180    0.1964 O   0  0  0  0  0  0  0  0  0  0  0  0
    6.1069   -0.6439    1.4991 O   0  0  0  0  0  0  0  0  0  0  0  0
   -4.5385   -0.2492   -0.0846 C   0  0  0  0  0  0  0  0  0  0  0  0
   -5.4330   -0.2072   -1.1378 C   0  0  0  0  0  0  0  0  0  0  0  0
   -6.6391   -0.8837   -1.0497 C   0  0  0  0  0  0  0  0  0  0  0  0
   -6.9469   -1.6042    0.1002 C   0  0  0  0  0  0  0  0  0  0  0  0
   -6.0459   -1.6421    1.1523 C   0  0  0  0  0  0  0  0  0  0  0  0
   -4.8419   -0.9697    1.0557 C   0  0  0  0  0  0  0  0  0  0  0  0
   -8.1295   -2.2694    0.1916 O   0  0  0  0  0  0  0  0  0  0  0  0
   -7.5203   -0.8431   -2.0848 O   0  0  0  0  0  0  0  0  0  0  0  0
   -4.0955    2.4461    0.1261 H   0  0  0  0  0  0  0  0  0  0  0  0
   -3.5709    1.6294    1.6245 H   0  0  0  0  0  0  0  0  0  0  0  0
   -2.9967    0.6834   -1.2292 H   0  0  0  0  0  0  0  0  0  0  0  0
    0.0355   -1.6523    0.5962 H   0  0  0  0  0  0  0  0  0  0  0  0
    2.5678    1.7713    0.9983 H   0  0  0  0  0  0  0  0  0  0  0  0
    0.7895    3.9543   -0.0248 H   0  0  0  0  0  0  0  0  0  0  0  0
    3.7359    0.4548    1.9328 H   0  0  0  0  0  0  0  0  0  0  0  0
    4.5851   -1.8841    2.1470 H   0  0  0  0  0  0  0  0  0  0  0  0
    3.9759   -2.6837   -0.1029 H   0  0  0  0  0  0  0  0  0  0  0  0
    5.2145   -1.9036   -2.0852 H   0  0  0  0  0  0  0  0  0  0  0  0
    3.1554   -0.6988   -1.4622 H   0  0  0  0  0  0  0  0  0  0  0  0
    5.3536    1.2482   -2.2908 H   0  0  0  0  0  0  0  0  0  0  0  0
    4.5532    0.1008   -3.3913 H   0  0  0  0  0  0  0  0  0  0  0  0
    3.4880    2.2387   -3.4062 H   0  0  0  0  0  0  0  0  0  0  0  0
    7.2215   -1.2745   -0.9480 H   0  0  0  0  0  0  0  0  0  0  0  0
    5.8620   -3.7037    0.9575 H   0  0  0  0  0  0  0  0  0  0  0  0
    6.1272   -0.0610    2.2704 H   0  0  0  0  0  0  0  0  0  0  0  0
   -5.1919    0.3530   -2.0291 H   0  0  0  0  0  0  0  0  0  0  0  0
   -6.2823   -2.2006    2.0459 H   0  0  0  0  0  0  0  0  0  0  0  0
   -4.1405   -1.0000    1.8764 H   0  0  0  0  0  0  0  0  0  0  0  0
   -8.0945   -3.1802   -0.1312 H   0  0  0  0  0  0  0  0  0  0  0  0
   -7.3979   -1.5496   -2.7335 H   0  0  0  0  0  0  0  0  0  0  0  0
  1  2  1  0  0  0  0
  2  3  1  0  0  0  0
  3  4  1  0  0  0  0
  4  5  2  0  0  0  0
  5  6  1  0  0  0  0
  6  7  2  0  0  0  0
  7  8  1  0  0  0  0
  8  9  2  0  0  0  0
  4  9  1  0  0  0  0
  9 10  1  0  0  0  0
  1 10  1  0  0  0  0
 10 11  2  0  0  0  0
  8 12  1  0  0  0  0
  6 13  1  0  0  0  0
 13 14  1  0  0  0  0
 14 15  1  0  0  0  0
 15 16  1  0  0  0  0
 16 17  1  0  0  0  0
 17 18  1  0  0  0  0
 18 19  1  0  0  0  0
 14 19  1  0  0  0  0
 18 20  1  0  0  0  0
 20 21  1  0  0  0  0
 17 22  1  0  0  0  0
 16 23  1  0  0  0  0
 15 24  1  0  0  0  0
  2 25  1  0  0  0  0
 25 26  2  0  0  0  0
 26 27  1  0  0  0  0
 27 28  2  0  0  0  0
 28 29  1  0  0  0  0
 29 30  2  0  0  0  0
 25 30  1  0  0  0  0
 28 31  1  0  0  0  0
 27 32  1  0  0  0  0
  1 33  1  0  0  0  0
  1 34  1  0  0  0  0
  2 35  1  0  0  0  0
  5 36  1  0  0  0  0
  7 37  1  0  0  0  0
 12 38  1  0  0  0  0
 14 39  1  0  0  0  0
 15 40  1  0  0  0  0
 16 41  1  0  0  0  0
 17 42  1  0  0  0  0
 18 43  1  0  0  0  0
 20 44  1  0  0  0  0
 20 45  1  0  0  0  0
 21 46  1  0  0  0  0
 22 47  1  0  0  0  0
 23 48  1  0  0  0  0
 24 49  1  0  0  0  0
 26 50  1  0  0  0  0
 29 51  1  0  0  0  0
 30 52  1  0  0  0  0
 31 53  1  0  0  0  0
 32 54  1  0  0  0  0
M  END
$$$$
