C15H16O4
APtclcactv06281817383D 0   0.00000     0.00000
 
 35 36  0  0  0  0  0  0  0  0999 V2000
    3.1796    2.7080    0.6447 C   0  0  0  0  0  0  0  0  0  0  0  0
    3.2661    1.4218   -0.1358 C   0  0  0  0  0  0  0  0  0  0  0  0
    4.4353    0.9443   -0.4838 C   0  0  0  0  0  0  0  0  0  0  0  0
    2.0077    0.6851   -0.5161 C   0  0  0  0  0  0  0  0  0  0  0  0
    1.3047    0.1896    0.7493 C   0  0  0  0  0  0  0  0  0  0  0  0
    0.1140   -0.6509    0.3661 C   0  0  0  0  0  0  0  0  0  0  0  0
    0.2560   -2.0174    0.1900 C   0  0  0  0  0  0  0  0  0  0  0  0
   -0.8390   -2.8034   -0.1645 C   0  0  0  0  0  0  0  0  0  0  0  0
   -2.0676   -2.2369   -0.3431 C   0  0  0  0  0  0  0  0  0  0  0  0
   -2.2293   -0.8575   -0.1693 C   0  0  0  0  0  0  0  0  0  0  0  0
   -1.1285   -0.0595    0.1942 C   0  0  0  0  0  0  0  0  0  0  0  0
   -1.2888    1.2706    0.3618 O   0  0  0  0  0  0  0  0  0  0  0  0
   -2.4824    1.8598    0.1894 C   0  0  0  0  0  0  0  0  0  0  0  0
   -2.5792    3.0630    0.3512 O   0  0  0  0  0  0  0  0  0  0  0  0
   -3.6271    1.1213   -0.1747 C   0  0  0  0  0  0  0  0  0  0  0  0
   -3.5357   -0.2222   -0.3538 C   0  0  0  0  0  0  0  0  0  0  0  0
    1.4717   -2.5958    0.3636 O   0  0  0  0  0  0  0  0  0  0  0  0
    1.5518   -4.0090    0.1672 C   0  0  0  0  0  0  0  0  0  0  0  0
    1.1379    1.5652   -1.2307 O   0  0  0  0  0  0  0  0  0  0  0  0
    3.1138    3.5486   -0.0462 H   0  0  0  0  0  0  0  0  0  0  0  0
    2.2935    2.6890    1.2793 H   0  0  0  0  0  0  0  0  0  0  0  0
    4.0688    2.8168    1.2656 H   0  0  0  0  0  0  0  0  0  0  0  0
    5.3371    1.4723   -0.2113 H   0  0  0  0  0  0  0  0  0  0  0  0
    4.4973    0.0225   -1.0432 H   0  0  0  0  0  0  0  0  0  0  0  0
    2.2619   -0.1663   -1.1475 H   0  0  0  0  0  0  0  0  0  0  0  0
    1.9980   -0.4100    1.3391 H   0  0  0  0  0  0  0  0  0  0  0  0
    0.9717    1.0443    1.3382 H   0  0  0  0  0  0  0  0  0  0  0  0
   -0.7144   -3.8677   -0.2990 H   0  0  0  0  0  0  0  0  0  0  0  0
   -2.9124   -2.8509   -0.6181 H   0  0  0  0  0  0  0  0  0  0  0  0
   -4.5750    1.6219   -0.3066 H   0  0  0  0  0  0  0  0  0  0  0  0
   -4.4013   -0.8047   -0.6330 H   0  0  0  0  0  0  0  0  0  0  0  0
    0.8855   -4.5116    0.8683 H   0  0  0  0  0  0  0  0  0  0  0  0
    1.2553   -4.2514   -0.8533 H   0  0  0  0  0  0  0  0  0  0  0  0
    2.5758   -4.3419    0.3368 H   0  0  0  0  0  0  0  0  0  0  0  0
    0.8701    2.3470   -0.7284 H   0  0  0  0  0  0  0  0  0  0  0  0
  1  2  1  0  0  0  0
  2  3  2  0  0  0  0
  2  4  1  0  0  0  0
  4  5  1  0  0  0  0
  5  6  1  0  0  0  0
  6  7  2  0  0  0  0
  7  8  1  0  0  0  0
  8  9  2  0  0  0  0
  9 10  1  0  0  0  0
 10 11  2  0  0  0  0
  6 11  1  0  0  0  0
 11 12  1  0  0  0  0
 12 13  1  0  0  0  0
 13 14  2  0  0  0  0
 13 15  1  0  0  0  0
 15 16  2  0  0  0  0
 10 16  1  0  0  0  0
  7 17  1  0  0  0  0
 17 18  1  0  0  0  0
  4 19  1  0  0  0  0
  1 20  1  0  0  0  0
  1 21  1  0  0  0  0
  1 22  1  0  0  0  0
  3 23  1  0  0  0  0
  3 24  1  0  0  0  0
  4 25  1  0  0  0  0
  5 26  1  0  0  0  0
  5 27  1  0  0  0  0
  8 28  1  0  0  0  0
  9 29  1  0  0  0  0
 15 30  1  0  0  0  0
 16 31  1  0  0  0  0
 18 32  1  0  0  0  0
 18 33  1  0  0  0  0
 18 34  1  0  0  0  0
 19 35  1  0  0  0  0
M  END
$$$$
