C10H18O
APtclcactv06281817383D 0   0.00000     0.00000
 
 29 29  0  0  0  0  0  0  0  0999 V2000
    3.5332    0.2537   -0.0204 C   0  0  0  0  0  0  0  0  0  0  0  0
    2.0878    0.3529    0.4716 C   0  0  0  0  0  0  0  0  0  0  0  0
    1.3795    1.4938   -0.2619 C   0  0  0  0  0  0  0  0  0  0  0  0
   -0.1203    1.4141    0.0493 C   0  0  0  0  0  0  0  0  0  0  0  0
   -0.6839    0.1493   -0.6018 C   0  0  0  0  0  0  0  0  0  0  0  0
    0.1704   -1.0350   -0.2551 C   0  0  0  0  0  0  0  0  0  0  0  0
    1.3831   -0.9461    0.2099 C   0  0  0  0  0  0  0  0  0  0  0  0
   -0.3531   -2.2733   -0.4370 O   0  0  0  0  0  0  0  0  0  0  0  0
   -2.1089   -0.0886   -0.0983 C   0  0  0  0  0  0  0  0  0  0  0  0
   -2.0992   -0.1968    1.4278 C   0  0  0  0  0  0  0  0  0  0  0  0
   -3.0009    1.0804   -0.5210 C   0  0  0  0  0  0  0  0  0  0  0  0
    4.0503    1.1921    0.1798 H   0  0  0  0  0  0  0  0  0  0  0  0
    4.0396   -0.5586    0.5010 H   0  0  0  0  0  0  0  0  0  0  0  0
    3.5394    0.0570   -1.0925 H   0  0  0  0  0  0  0  0  0  0  0  0
    2.0838    0.5544    1.5428 H   0  0  0  0  0  0  0  0  0  0  0  0
    1.7744    2.4503    0.0804 H   0  0  0  0  0  0  0  0  0  0  0  0
    1.5367    1.3924   -1.3357 H   0  0  0  0  0  0  0  0  0  0  0  0
   -0.2687    1.3680    1.1282 H   0  0  0  0  0  0  0  0  0  0  0  0
   -0.6256    2.2909   -0.3558 H   0  0  0  0  0  0  0  0  0  0  0  0
   -0.7019    0.2773   -1.6841 H   0  0  0  0  0  0  0  0  0  0  0  0
    1.9143   -1.8626    0.4198 H   0  0  0  0  0  0  0  0  0  0  0  0
    0.2460   -2.9929   -0.1956 H   0  0  0  0  0  0  0  0  0  0  0  0
   -2.4956   -1.0137   -0.5257 H   0  0  0  0  0  0  0  0  0  0  0  0
   -1.7125    0.7284    1.8552 H   0  0  0  0  0  0  0  0  0  0  0  0
   -3.1145   -0.3662    1.7865 H   0  0  0  0  0  0  0  0  0  0  0  0
   -1.4637   -1.0296    1.7290 H   0  0  0  0  0  0  0  0  0  0  0  0
   -2.5849    2.0121   -0.1376 H   0  0  0  0  0  0  0  0  0  0  0  0
   -3.0501    1.1250   -1.6090 H   0  0  0  0  0  0  0  0  0  0  0  0
   -4.0033    0.9370   -0.1176 H   0  0  0  0  0  0  0  0  0  0  0  0
  1  2  1  0  0  0  0
  2  3  1  0  0  0  0
  3  4  1  0  0  0  0
  4  5  1  0  0  0  0
  5  6  1  0  0  0  0
  6  7  2  0  0  0  0
  2  7  1  0  0  0  0
  6  8  1  0  0  0  0
  5  9  1  0  0  0  0
  9 10  1  0  0  0  0
  9 11  1  0  0  0  0
  1 12  1  0  0  0  0
  1 13  1  0  0  0  0
  1 14  1  0  0  0  0
  2 15  1  0  0  0  0
  3 16  1  0  0  0  0
  3 17  1  0  0  0  0
  4 18  1  0  0  0  0
  4 19  1  0  0  0  0
  5 20  1  0  0  0  0
  7 21  1  0  0  0  0
  8 22  1  0  0  0  0
  9 23  1  0  0  0  0
 10 24  1  0  0  0  0
 10 25  1  0  0  0  0
 10 26  1  0  0  0  0
 11 27  1  0  0  0  0
 11 28  1  0  0  0  0
 11 29  1  0  0  0  0
M  END
$$$$
