C28H48O4
APtclcactv06281817383D 0   0.00000     0.00000
 
 80 83  0  0  0  0  0  0  0  0999 V2000
    8.1517    1.1510    1.2719 C   0  0  0  0  0  0  0  0  0  0  0  0
    6.7676    1.5380    0.7472 C   0  0  0  0  0  0  0  0  0  0  0  0
    6.9162    2.2916   -0.5760 C   0  0  0  0  0  0  0  0  0  0  0  0
    5.9352    0.2738    0.5234 C   0  0  0  0  0  0  0  0  0  0  0  0
    5.7867   -0.4798    1.8466 C   0  0  0  0  0  0  0  0  0  0  0  0
    4.5511    0.6608   -0.0012 C   0  0  0  0  0  0  0  0  0  0  0  0
    3.7187   -0.6033   -0.2250 C   0  0  0  0  0  0  0  0  0  0  0  0
    2.3346   -0.2163   -0.7497 C   0  0  0  0  0  0  0  0  0  0  0  0
    2.4742    0.4262   -2.1312 C   0  0  0  0  0  0  0  0  0  0  0  0
    1.4651   -1.4619   -0.8547 C   0  0  0  0  0  0  0  0  0  0  0  0
    1.5023   -2.2607    0.4764 C   0  0  0  0  0  0  0  0  0  0  0  0
    0.0811   -2.1426    1.0990 C   0  0  0  0  0  0  0  0  0  0  0  0
   -0.4559   -0.8750    0.4173 C   0  0  0  0  0  0  0  0  0  0  0  0
   -0.0233   -1.1160   -1.0447 C   0  0  0  0  0  0  0  0  0  0  0  0
   -0.3504    0.0865   -1.8846 C   0  0  0  0  0  0  0  0  0  0  0  0
   -1.8222    0.4999   -1.7371 C   0  0  0  0  0  0  0  0  0  0  0  0
   -2.6116   -0.3664   -0.7792 C   0  0  0  0  0  0  0  0  0  0  0  0
   -1.9126   -0.5713    0.5563 C   0  0  0  0  0  0  0  0  0  0  0  0
   -2.6716   -1.6119    1.3891 C   0  0  0  0  0  0  0  0  0  0  0  0
   -4.0784   -1.0555    1.5754 C   0  0  0  0  0  0  0  0  0  0  0  0
   -4.9244   -1.6440    2.2001 O   0  0  0  0  0  0  0  0  0  0  0  0
   -4.3349    0.2868    0.9249 C   0  0  0  0  0  0  0  0  0  0  0  0
   -4.0281    0.1730   -0.5659 C   0  0  0  0  0  0  0  0  0  0  0  0
   -4.2382    1.5190   -1.2428 C   0  0  0  0  0  0  0  0  0  0  0  0
   -5.6683    2.0132   -1.0195 C   0  0  0  0  0  0  0  0  0  0  0  0
   -5.9937    2.0917    0.4693 C   0  0  0  0  0  0  0  0  0  0  0  0
   -5.7733    0.7370    1.1462 C   0  0  0  0  0  0  0  0  0  0  0  0
   -5.1652    3.0771    1.0899 O   0  0  0  0  0  0  0  0  0  0  0  0
   -4.9766   -0.8518   -1.1962 C   0  0  0  0  0  0  0  0  0  0  0  0
   -0.6572   -2.3795   -1.6435 C   0  0  0  0  0  0  0  0  0  0  0  0
    4.3728   -1.4415   -1.1798 O   0  0  0  0  0  0  0  0  0  0  0  0
    3.8970    1.4990    0.9535 O   0  0  0  0  0  0  0  0  0  0  0  0
    8.7447    2.0515    1.4313 H   0  0  0  0  0  0  0  0  0  0  0  0
    8.0459    0.6140    2.2145 H   0  0  0  0  0  0  0  0  0  0  0  0
    8.6507    0.5116    0.5436 H   0  0  0  0  0  0  0  0  0  0  0  0
    6.2687    2.1773    1.4755 H   0  0  0  0  0  0  0  0  0  0  0  0
    5.9301    2.5673   -0.9498 H   0  0  0  0  0  0  0  0  0  0  0  0
    7.5091    3.1922   -0.4166 H   0  0  0  0  0  0  0  0  0  0  0  0
    7.4151    1.6523   -1.3043 H   0  0  0  0  0  0  0  0  0  0  0  0
    6.4342   -0.3655   -0.2048 H   0  0  0  0  0  0  0  0  0  0  0  0
    5.2878    0.1595    2.5749 H   0  0  0  0  0  0  0  0  0  0  0  0
    5.1937   -1.3804    1.6872 H   0  0  0  0  0  0  0  0  0  0  0  0
    6.7728   -0.7555    2.2204 H   0  0  0  0  0  0  0  0  0  0  0  0
    4.6569    1.1978   -0.9439 H   0  0  0  0  0  0  0  0  0  0  0  0
    3.6129   -1.1402    0.7177 H   0  0  0  0  0  0  0  0  0  0  0  0
    1.8715    0.4933   -0.0641 H   0  0  0  0  0  0  0  0  0  0  0  0
    2.9793   -0.2663   -2.8046 H   0  0  0  0  0  0  0  0  0  0  0  0
    1.4850    0.6596   -2.5250 H   0  0  0  0  0  0  0  0  0  0  0  0
    3.0578    1.3431   -2.0482 H   0  0  0  0  0  0  0  0  0  0  0  0
    1.7963   -2.0955   -1.6775 H   0  0  0  0  0  0  0  0  0  0  0  0
    1.7356   -3.3051    0.2765 H   0  0  0  0  0  0  0  0  0  0  0  0
    2.2405   -1.8280    1.1490 H   0  0  0  0  0  0  0  0  0  0  0  0
   -0.5231   -3.0141    0.8862 H   0  0  0  0  0  0  0  0  0  0  0  0
    0.1584   -1.9853    2.1782 H   0  0  0  0  0  0  0  0  0  0  0  0
    0.1146   -0.0134    0.8227 H   0  0  0  0  0  0  0  0  0  0  0  0
    0.2721    0.9466   -1.6068 H   0  0  0  0  0  0  0  0  0  0  0  0
   -0.1448   -0.1371   -2.9424 H   0  0  0  0  0  0  0  0  0  0  0  0
   -1.8552    1.5442   -1.3951 H   0  0  0  0  0  0  0  0  0  0  0  0
   -2.2963    0.4707   -2.7282 H   0  0  0  0  0  0  0  0  0  0  0  0
   -2.7871   -1.3422   -1.2389 H   0  0  0  0  0  0  0  0  0  0  0  0
   -1.9875    0.3883    1.1131 H   0  0  0  0  0  0  0  0  0  0  0  0
   -2.7139   -2.5600    0.8568 H   0  0  0  0  0  0  0  0  0  0  0  0
   -2.1909   -1.7391    2.3573 H   0  0  0  0  0  0  0  0  0  0  0  0
   -3.6646    1.0282    1.3735 H   0  0  0  0  0  0  0  0  0  0  0  0
   -3.5380    2.2508   -0.8315 H   0  0  0  0  0  0  0  0  0  0  0  0
   -4.0562    1.4228   -2.3164 H   0  0  0  0  0  0  0  0  0  0  0  0
   -5.7621    3.0180   -1.4512 H   0  0  0  0  0  0  0  0  0  0  0  0
   -6.3820    1.3653   -1.5227 H   0  0  0  0  0  0  0  0  0  0  0  0
   -7.0409    2.3836    0.5908 H   0  0  0  0  0  0  0  0  0  0  0  0
   -6.4794    0.0063    0.7626 H   0  0  0  0  0  0  0  0  0  0  0  0
   -5.9487    0.8497    2.2237 H   0  0  0  0  0  0  0  0  0  0  0  0
   -5.2741    3.9671    0.7279 H   0  0  0  0  0  0  0  0  0  0  0  0
   -6.0075   -0.5259   -1.0579 H   0  0  0  0  0  0  0  0  0  0  0  0
   -4.7625   -0.9378   -2.2615 H   0  0  0  0  0  0  0  0  0  0  0  0
   -4.8346   -1.8208   -0.7177 H   0  0  0  0  0  0  0  0  0  0  0  0
   -1.7350   -2.3563   -1.4827 H   0  0  0  0  0  0  0  0  0  0  0  0
   -0.4501   -2.4179   -2.7130 H   0  0  0  0  0  0  0  0  0  0  0  0
   -0.2366   -3.2612   -1.1600 H   0  0  0  0  0  0  0  0  0  0  0  0
    4.5009   -1.0275   -2.0442 H   0  0  0  0  0  0  0  0  0  0  0  0
    3.7690    1.0850    1.8180 H   0  0  0  0  0  0  0  0  0  0  0  0
  1  2  1  0  0  0  0
  2  3  1  0  0  0  0
  2  4  1  0  0  0  0
  4  5  1  0  0  0  0
  4  6  1  0  0  0  0
  6  7  1  0  0  0  0
  7  8  1  0  0  0  0
  8  9  1  0  0  0  0
  8 10  1  0  0  0  0
 10 11  1  0  0  0  0
 11 12  1  0  0  0  0
 12 13  1  0  0  0  0
 13 14  1  0  0  0  0
 10 14  1  0  0  0  0
 14 15  1  0  0  0  0
 15 16  1  0  0  0  0
 16 17  1  0  0  0  0
 17 18  1  0  0  0  0
 13 18  1  0  0  0  0
 18 19  1  0  0  0  0
 19 20  1  0  0  0  0
 20 21  2  0  0  0  0
 20 22  1  0  0  0  0
 22 23  1  0  0  0  0
 17 23  1  0  0  0  0
 23 24  1  0  0  0  0
 24 25  1  0  0  0  0
 25 26  1  0  0  0  0
 26 27  1  0  0  0  0
 22 27  1  0  0  0  0
 26 28  1  0  0  0  0
 23 29  1  0  0  0  0
 14 30  1  0  0  0  0
  7 31  1  0  0  0  0
  6 32  1  0  0  0  0
  1 33  1  0  0  0  0
  1 34  1  0  0  0  0
  1 35  1  0  0  0  0
  2 36  1  0  0  0  0
  3 37  1  0  0  0  0
  3 38  1  0  0  0  0
  3 39  1  0  0  0  0
  4 40  1  0  0  0  0
  5 41  1  0  0  0  0
  5 42  1  0  0  0  0
  5 43  1  0  0  0  0
  6 44  1  0  0  0  0
  7 45  1  0  0  0  0
  8 46  1  0  0  0  0
  9 47  1  0  0  0  0
  9 48  1  0  0  0  0
  9 49  1  0  0  0  0
 10 50  1  0  0  0  0
 11 51  1  0  0  0  0
 11 52  1  0  0  0  0
 12 53  1  0  0  0  0
 12 54  1  0  0  0  0
 13 55  1  0  0  0  0
 15 56  1  0  0  0  0
 15 57  1  0  0  0  0
 16 58  1  0  0  0  0
 16 59  1  0  0  0  0
 17 60  1  0  0  0  0
 18 61  1  0  0  0  0
 19 62  1  0  0  0  0
 19 63  1  0  0  0  0
 22 64  1  0  0  0  0
 24 65  1  0  0  0  0
 24 66  1  0  0  0  0
 25 67  1  0  0  0  0
 25 68  1  0  0  0  0
 26 69  1  0  0  0  0
 27 70  1  0  0  0  0
 27 71  1  0  0  0  0
 28 72  1  0  0  0  0
 29 73  1  0  0  0  0
 29 74  1  0  0  0  0
 29 75  1  0  0  0  0
 30 76  1  0  0  0  0
 30 77  1  0  0  0  0
 30 78  1  0  0  0  0
 31 79  1  0  0  0  0
 32 80  1  0  0  0  0
M  END
$$$$
