C22H21FN2O4S
APtclcactv06281816283D 0   0.00000     0.00000
 
 51 53  0  0  0  0  0  0  0  0999 V2000
    2.6147    4.8432    1.7163 C   0  0  0  0  0  0  0  0  0  0  0  0
    1.5078    3.9795    1.1084 C   0  0  0  0  0  0  0  0  0  0  0  0
    2.0578    2.7320    0.6803 O   0  0  0  0  0  0  0  0  0  0  0  0
    1.2007    1.8415    0.1130 C   0  0  0  0  0  0  0  0  0  0  0  0
    1.6718    0.6036   -0.3275 C   0  0  0  0  0  0  0  0  0  0  0  0
    0.8006   -0.3108   -0.9082 C   0  0  0  0  0  0  0  0  0  0  0  0
   -0.5321   -0.0012   -1.0530 C   0  0  0  0  0  0  0  0  0  0  0  0
   -1.0145    1.2409   -0.6131 C   0  0  0  0  0  0  0  0  0  0  0  0
   -0.1345    2.1600   -0.0217 C   0  0  0  0  0  0  0  0  0  0  0  0
   -2.4306    1.5741   -0.7657 C   0  0  0  0  0  0  0  0  0  0  0  0
   -3.3987    0.6537   -0.4134 C   0  0  0  0  0  0  0  0  0  0  0  0
   -4.8201    0.8603   -0.7554 C   0  0  0  0  0  0  0  0  0  0  0  0
   -5.1796    1.8526   -1.3603 O   0  0  0  0  0  0  0  0  0  0  0  0
   -5.7090   -0.0819   -0.3788 N   0  0  0  0  0  0  0  0  0  0  0  0
   -5.3267   -1.1801    0.2876 C   0  0  0  0  0  0  0  0  0  0  0  0
   -6.5263   -2.3210    0.7237 S   0  0  0  0  0  0  0  0  0  0  0  0
   -4.0563   -1.4338    0.6308 N   0  0  0  0  0  0  0  0  0  0  0  0
   -3.0571   -0.5835    0.3166 C   0  0  0  0  0  0  0  0  0  0  0  0
   -1.9079   -0.8251    0.6338 O   0  0  0  0  0  0  0  0  0  0  0  0
   -3.7444   -2.6660    1.3593 C   0  0  0  0  0  0  0  0  0  0  0  0
   -7.1255    0.0997   -0.7057 C   0  0  0  0  0  0  0  0  0  0  0  0
    2.9853    0.2917   -0.1887 O   0  0  0  0  0  0  0  0  0  0  0  0
    3.4008   -0.9916   -0.6605 C   0  0  0  0  0  0  0  0  0  0  0  0
    4.8797   -1.1590   -0.4242 C   0  0  0  0  0  0  0  0  0  0  0  0
    5.3321   -1.7052    0.7625 C   0  0  0  0  0  0  0  0  0  0  0  0
    6.6881   -1.8597    0.9801 C   0  0  0  0  0  0  0  0  0  0  0  0
    7.5936   -1.4671    0.0090 C   0  0  0  0  0  0  0  0  0  0  0  0
    7.1394   -0.9202   -1.1791 C   0  0  0  0  0  0  0  0  0  0  0  0
    5.7827   -0.7716   -1.3966 C   0  0  0  0  0  0  0  0  0  0  0  0
    8.9195   -1.6172    0.2208 F   0  0  0  0  0  0  0  0  0  0  0  0
    3.0510    4.3261    2.5710 H   0  0  0  0  0  0  0  0  0  0  0  0
    3.3867    5.0240    0.9683 H   0  0  0  0  0  0  0  0  0  0  0  0
    2.1952    5.7947    2.0428 H   0  0  0  0  0  0  0  0  0  0  0  0
    0.7358    3.7987    1.8564 H   0  0  0  0  0  0  0  0  0  0  0  0
    1.0715    4.4966    0.2537 H   0  0  0  0  0  0  0  0  0  0  0  0
    1.1710   -1.2670   -1.2470 H   0  0  0  0  0  0  0  0  0  0  0  0
   -1.2063   -0.7134   -1.5052 H   0  0  0  0  0  0  0  0  0  0  0  0
   -0.5000    3.1175    0.3192 H   0  0  0  0  0  0  0  0  0  0  0  0
   -2.7193    2.5397   -1.1538 H   0  0  0  0  0  0  0  0  0  0  0  0
   -4.6610   -3.2323    1.5243 H   0  0  0  0  0  0  0  0  0  0  0  0
   -3.0465   -3.2663    0.7757 H   0  0  0  0  0  0  0  0  0  0  0  0
   -3.2938   -2.4160    2.3198 H   0  0  0  0  0  0  0  0  0  0  0  0
   -7.3341   -0.3462   -1.6782 H   0  0  0  0  0  0  0  0  0  0  0  0
   -7.7387   -0.3839    0.0547 H   0  0  0  0  0  0  0  0  0  0  0  0
   -7.3577    1.1642   -0.7367 H   0  0  0  0  0  0  0  0  0  0  0  0
    2.8569   -1.7693   -0.1244 H   0  0  0  0  0  0  0  0  0  0  0  0
    3.1920   -1.0716   -1.7273 H   0  0  0  0  0  0  0  0  0  0  0  0
    4.6256   -2.0110    1.5199 H   0  0  0  0  0  0  0  0  0  0  0  0
    7.0413   -2.2860    1.9074 H   0  0  0  0  0  0  0  0  0  0  0  0
    7.8448   -0.6136   -1.9372 H   0  0  0  0  0  0  0  0  0  0  0  0
    5.4282   -0.3450   -2.3233 H   0  0  0  0  0  0  0  0  0  0  0  0
  1  2  1  0  0  0  0
  2  3  1  0  0  0  0
  3  4  1  0  0  0  0
  4  5  2  0  0  0  0
  5  6  1  0  0  0  0
  6  7  2  0  0  0  0
  7  8  1  0  0  0  0
  8  9  2  0  0  0  0
  4  9  1  0  0  0  0
  8 10  1  0  0  0  0
 10 11  2  0  0  0  0
 11 12  1  0  0  0  0
 12 13  2  0  0  0  0
 12 14  1  0  0  0  0
 14 15  1  0  0  0  0
 15 16  2  0  0  0  0
 15 17  1  0  0  0  0
 17 18  1  0  0  0  0
 11 18  1  0  0  0  0
 18 19  2  0  0  0  0
 17 20  1  0  0  0  0
 14 21  1  0  0  0  0
  5 22  1  0  0  0  0
 22 23  1  0  0  0  0
 23 24  1  0  0  0  0
 24 25  2  0  0  0  0
 25 26  1  0  0  0  0
 26 27  2  0  0  0  0
 27 28  1  0  0  0  0
 28 29  2  0  0  0  0
 24 29  1  0  0  0  0
 27 30  1  0  0  0  0
  1 31  1  0  0  0  0
  1 32  1  0  0  0  0
  1 33  1  0  0  0  0
  2 34  1  0  0  0  0
  2 35  1  0  0  0  0
  6 36  1  0  0  0  0
  7 37  1  0  0  0  0
  9 38  1  0  0  0  0
 10 39  1  0  0  0  0
 20 40  1  0  0  0  0
 20 41  1  0  0  0  0
 20 42  1  0  0  0  0
 21 43  1  0  0  0  0
 21 44  1  0  0  0  0
 21 45  1  0  0  0  0
 23 46  1  0  0  0  0
 23 47  1  0  0  0  0
 25 48  1  0  0  0  0
 26 49  1  0  0  0  0
 28 50  1  0  0  0  0
 29 51  1  0  0  0  0
M  END
$$$$
