C15H14O5
APtclcactv06281817383D 0   0.00000     0.00000
 
 34 35  0  0  0  0  0  0  0  0999 V2000
    5.9436   -0.4055    1.0543 C   0  0  0  0  0  0  0  0  0  0  0  0
    5.2724   -0.2904   -0.2020 O   0  0  0  0  0  0  0  0  0  0  0  0
    3.9285   -0.0826   -0.1674 C   0  0  0  0  0  0  0  0  0  0  0  0
    3.4271    1.2151   -0.1391 C   0  0  0  0  0  0  0  0  0  0  0  0
    2.0611    1.4297   -0.1040 C   0  0  0  0  0  0  0  0  0  0  0  0
    1.1843    0.3415   -0.0974 C   0  0  0  0  0  0  0  0  0  0  0  0
    1.6911   -0.9605   -0.1263 C   0  0  0  0  0  0  0  0  0  0  0  0
    3.0580   -1.1682   -0.1663 C   0  0  0  0  0  0  0  0  0  0  0  0
    3.5520   -2.4350   -0.1949 O   0  0  0  0  0  0  0  0  0  0  0  0
   -0.2714    0.5665   -0.0594 C   0  0  0  0  0  0  0  0  0  0  0  0
   -1.1125   -0.4801   -0.0531 C   0  0  0  0  0  0  0  0  0  0  0  0
   -2.5687   -0.2550   -0.0152 C   0  0  0  0  0  0  0  0  0  0  0  0
   -3.4458   -1.3421   -0.0086 C   0  0  0  0  0  0  0  0  0  0  0  0
   -4.8129   -1.1255    0.0270 C   0  0  0  0  0  0  0  0  0  0  0  0
   -5.3121    0.1690    0.0561 C   0  0  0  0  0  0  0  0  0  0  0  0
   -4.4448    1.2523    0.0492 C   0  0  0  0  0  0  0  0  0  0  0  0
   -3.0759    1.0460    0.0200 C   0  0  0  0  0  0  0  0  0  0  0  0
   -4.9397    2.5177    0.0774 O   0  0  0  0  0  0  0  0  0  0  0  0
   -5.6673   -2.1823    0.0331 O   0  0  0  0  0  0  0  0  0  0  0  0
    4.2810    2.2735   -0.1456 O   0  0  0  0  0  0  0  0  0  0  0  0
    5.8036    0.5117    1.6264 H   0  0  0  0  0  0  0  0  0  0  0  0
    5.5313   -1.2473    1.6107 H   0  0  0  0  0  0  0  0  0  0  0  0
    7.0078   -0.5687    0.8841 H   0  0  0  0  0  0  0  0  0  0  0  0
    1.6726    2.4372   -0.0813 H   0  0  0  0  0  0  0  0  0  0  0  0
    1.0161   -1.8036   -0.1209 H   0  0  0  0  0  0  0  0  0  0  0  0
    3.6706   -2.7908   -1.0862 H   0  0  0  0  0  0  0  0  0  0  0  0
   -0.6618    1.5732   -0.0367 H   0  0  0  0  0  0  0  0  0  0  0  0
   -0.7221   -1.4868   -0.0758 H   0  0  0  0  0  0  0  0  0  0  0  0
   -3.0583   -2.3500   -0.0316 H   0  0  0  0  0  0  0  0  0  0  0  0
   -6.3790    0.3339    0.0839 H   0  0  0  0  0  0  0  0  0  0  0  0
   -2.4018    1.8897    0.0146 H   0  0  0  0  0  0  0  0  0  0  0  0
   -5.0618    2.8725    0.9686 H   0  0  0  0  0  0  0  0  0  0  0  0
   -5.8935   -2.5002    0.9179 H   0  0  0  0  0  0  0  0  0  0  0  0
    4.5073    2.5909   -1.0305 H   0  0  0  0  0  0  0  0  0  0  0  0
  1  2  1  0  0  0  0
  2  3  1  0  0  0  0
  3  4  2  0  0  0  0
  4  5  1  0  0  0  0
  5  6  2  0  0  0  0
  6  7  1  0  0  0  0
  7  8  2  0  0  0  0
  3  8  1  0  0  0  0
  8  9  1  0  0  0  0
  6 10  1  0  0  0  0
 10 11  2  0  0  0  0
 11 12  1  0  0  0  0
 12 13  2  0  0  0  0
 13 14  1  0  0  0  0
 14 15  2  0  0  0  0
 15 16  1  0  0  0  0
 16 17  2  0  0  0  0
 12 17  1  0  0  0  0
 16 18  1  0  0  0  0
 14 19  1  0  0  0  0
  4 20  1  0  0  0  0
  1 21  1  0  0  0  0
  1 22  1  0  0  0  0
  1 23  1  0  0  0  0
  5 24  1  0  0  0  0
  7 25  1  0  0  0  0
  9 26  1  0  0  0  0
 10 27  1  0  0  0  0
 11 28  1  0  0  0  0
 13 29  1  0  0  0  0
 15 30  1  0  0  0  0
 17 31  1  0  0  0  0
 18 32  1  0  0  0  0
 19 33  1  0  0  0  0
 20 34  1  0  0  0  0
M  END
$$$$
