C7H6O3
APtclcactv06211802133D 0   0.00000     0.00000
 
 16 16  0  0  0  0  0  0  0  0999 V2000
   -0.0416   -1.1892   -0.0075 C   0  0  0  0  0  0  0  0  0  0  0  0
   -1.4182   -1.2129   -0.0151 C   0  0  0  0  0  0  0  0  0  0  0  0
   -2.1358   -0.0223   -0.0179 C   0  0  0  0  0  0  0  0  0  0  0  0
   -1.4676    1.1966   -0.0135 C   0  0  0  0  0  0  0  0  0  0  0  0
   -0.0912    1.2293   -0.0064 C   0  0  0  0  0  0  0  0  0  0  0  0
    0.6344    0.0344   -0.0026 C   0  0  0  0  0  0  0  0  0  0  0  0
    2.1087    0.0647    0.0051 C   0  0  0  0  0  0  0  0  0  0  0  0
    2.6945    1.1292    0.0081 O   0  0  0  0  0  0  0  0  0  0  0  0
    2.8062   -1.0882    0.0087 O   0  0  0  0  0  0  0  0  0  0  0  0
   -3.4925   -0.0501   -0.0254 O   0  0  0  0  0  0  0  0  0  0  0  0
    0.5152   -2.1146   -0.0009 H   0  0  0  0  0  0  0  0  0  0  0  0
   -1.9412   -2.1578   -0.0193 H   0  0  0  0  0  0  0  0  0  0  0  0
   -2.0289    2.1193   -0.0161 H   0  0  0  0  0  0  0  0  0  0  0  0
    0.4272    2.1768   -0.0037 H   0  0  0  0  0  0  0  0  0  0  0  0
    3.7706   -1.0178    0.0137 H   0  0  0  0  0  0  0  0  0  0  0  0
   -3.8906   -0.0591    0.8558 H   0  0  0  0  0  0  0  0  0  0  0  0
  1  2  2  0  0  0  0
  2  3  1  0  0  0  0
  3  4  2  0  0  0  0
  4  5  1  0  0  0  0
  5  6  2  0  0  0  0
  1  6  1  0  0  0  0
  6  7  1  0  0  0  0
  7  8  2  0  0  0  0
  7  9  1  0  0  0  0
  3 10  1  0  0  0  0
  1 11  1  0  0  0  0
  2 12  1  0  0  0  0
  4 13  1  0  0  0  0
  5 14  1  0  0  0  0
  9 15  1  0  0  0  0
 10 16  1  0  0  0  0
M  END
$$$$
