C30H48O3
APtclcactv06281817383D 0   0.00000     0.00000
 
 81 85  0  0  0  0  0  0  0  0999 V2000
   -5.5396    2.3105    0.8224 C   0  0  0  0  0  0  0  0  0  0  0  0
   -5.4792    1.2137   -0.2496 C   0  0  0  0  0  0  0  0  0  0  0  0
   -4.0541    1.1408   -0.8109 C   0  0  0  0  0  0  0  0  0  0  0  0
   -3.1765    0.3623    0.1303 C   0  0  0  0  0  0  0  0  0  0  0  0
   -1.6870    0.4350   -0.0111 C   0  0  0  0  0  0  0  0  0  0  0  0
   -1.1073    1.5278    0.4120 C   0  0  0  0  0  0  0  0  0  0  0  0
    0.3848    1.7154    0.4370 C   0  0  0  0  0  0  0  0  0  0  0  0
    0.9973    0.3169    0.5445 C   0  0  0  0  0  0  0  0  0  0  0  0
    2.4998    0.3628    0.7983 C   0  0  0  0  0  0  0  0  0  0  0  0
    2.9492    1.8159    0.9788 C   0  0  0  0  0  0  0  0  0  0  0  0
    4.4527    1.8656    1.2451 C   0  0  0  0  0  0  0  0  0  0  0  0
    5.2191    1.2748    0.0685 C   0  0  0  0  0  0  0  0  0  0  0  0
    4.7907   -0.1632   -0.2264 C   0  0  0  0  0  0  0  0  0  0  0  0
    3.2772   -0.2787   -0.3350 C   0  0  0  0  0  0  0  0  0  0  0  0
    2.8234   -1.7073   -0.5782 C   0  0  0  0  0  0  0  0  0  0  0  0
    1.3067   -1.8369   -0.7009 C   0  0  0  0  0  0  0  0  0  0  0  0
    0.5754   -0.5059   -0.6577 C   0  0  0  0  0  0  0  0  0  0  0  0
   -0.9459   -0.7293   -0.5985 C   0  0  0  0  0  0  0  0  0  0  0  0
   -1.3391   -2.0321    0.0583 C   0  0  0  0  0  0  0  0  0  0  0  0
   -2.6094   -1.9286    0.9128 C   0  0  0  0  0  0  0  0  0  0  0  0
   -3.6642   -1.0848    0.2405 C   0  0  0  0  0  0  0  0  0  0  0  0
   -4.9570   -0.9250    1.0280 C   0  0  0  0  0  0  0  0  0  0  0  0
   -5.1099   -1.4308    2.1075 O   0  0  0  0  0  0  0  0  0  0  0  0
   -6.0125   -0.0848    0.3378 C   0  0  0  0  0  0  0  0  0  0  0  0
   -4.0606   -1.7039   -1.0971 C   0  0  0  0  0  0  0  0  0  0  0  0
   -1.3225   -0.8021   -2.0891 C   0  0  0  0  0  0  0  0  0  0  0  0
    0.7962    0.2453   -1.9820 C   0  0  0  0  0  0  0  0  0  0  0  0
    5.3910   -0.5201   -1.6088 C   0  0  0  0  0  0  0  0  0  0  0  0
    5.4074   -1.1176    0.7889 C   0  0  0  0  0  0  0  0  0  0  0  0
    6.8276   -1.1290    0.6304 O   0  0  0  0  0  0  0  0  0  0  0  0
    5.0040    2.0782   -1.0970 O   0  0  0  0  0  0  0  0  0  0  0  0
    2.7275   -0.3803    2.1276 C   0  0  0  0  0  0  0  0  0  0  0  0
   -6.4126    1.6376   -1.3994 C   0  0  0  0  0  0  0  0  0  0  0  0
   -5.2707    3.2686    0.3776 H   0  0  0  0  0  0  0  0  0  0  0  0
   -6.5503    2.3684    1.2264 H   0  0  0  0  0  0  0  0  0  0  0  0
   -4.8407    2.0734    1.6246 H   0  0  0  0  0  0  0  0  0  0  0  0
   -4.0625    0.7309   -1.8157 H   0  0  0  0  0  0  0  0  0  0  0  0
   -3.6667    2.1719   -0.8910 H   0  0  0  0  0  0  0  0  0  0  0  0
   -3.3735    0.8046    1.1521 H   0  0  0  0  0  0  0  0  0  0  0  0
   -1.7330    2.3315    0.7622 H   0  0  0  0  0  0  0  0  0  0  0  0
    0.7220    2.2548   -0.4323 H   0  0  0  0  0  0  0  0  0  0  0  0
    0.6360    2.2900    1.3368 H   0  0  0  0  0  0  0  0  0  0  0  0
    0.5388   -0.1620    1.4453 H   0  0  0  0  0  0  0  0  0  0  0  0
    2.7202    2.3823    0.0769 H   0  0  0  0  0  0  0  0  0  0  0  0
    2.4204    2.2540    1.8266 H   0  0  0  0  0  0  0  0  0  0  0  0
    4.7479    2.9187    1.3631 H   0  0  0  0  0  0  0  0  0  0  0  0
    4.7028    1.3503    2.1671 H   0  0  0  0  0  0  0  0  0  0  0  0
    6.2913    1.2833    0.2983 H   0  0  0  0  0  0  0  0  0  0  0  0
    3.0541    0.3079   -1.2583 H   0  0  0  0  0  0  0  0  0  0  0  0
    3.2657   -2.0901   -1.5070 H   0  0  0  0  0  0  0  0  0  0  0  0
    3.1551   -2.3623    0.2341 H   0  0  0  0  0  0  0  0  0  0  0  0
    1.0824   -2.3439   -1.6484 H   0  0  0  0  0  0  0  0  0  0  0  0
    0.9681   -2.4890    0.1088 H   0  0  0  0  0  0  0  0  0  0  0  0
   -1.4736   -2.8071   -0.7007 H   0  0  0  0  0  0  0  0  0  0  0  0
   -0.5361   -2.3613    0.7319 H   0  0  0  0  0  0  0  0  0  0  0  0
   -3.0047   -2.9351    1.0890 H   0  0  0  0  0  0  0  0  0  0  0  0
   -2.3532   -1.4902    1.8837 H   0  0  0  0  0  0  0  0  0  0  0  0
   -6.7960    0.1594    1.0724 H   0  0  0  0  0  0  0  0  0  0  0  0
   -6.4952   -0.6705   -0.4513 H   0  0  0  0  0  0  0  0  0  0  0  0
   -4.8370   -2.4517   -0.9356 H   0  0  0  0  0  0  0  0  0  0  0  0
   -4.4382   -0.9255   -1.7601 H   0  0  0  0  0  0  0  0  0  0  0  0
   -3.1897   -2.1767   -1.5510 H   0  0  0  0  0  0  0  0  0  0  0  0
   -0.7142   -1.5612   -2.5809 H   0  0  0  0  0  0  0  0  0  0  0  0
   -2.3765   -1.0627   -2.1853 H   0  0  0  0  0  0  0  0  0  0  0  0
   -1.1435    0.1661   -2.5568 H   0  0  0  0  0  0  0  0  0  0  0  0
    0.6081   -0.4287   -2.8178 H   0  0  0  0  0  0  0  0  0  0  0  0
    0.1127    1.0925   -2.0375 H   0  0  0  0  0  0  0  0  0  0  0  0
    1.8243    0.6042   -2.0291 H   0  0  0  0  0  0  0  0  0  0  0  0
    6.4769   -0.4362   -1.5660 H   0  0  0  0  0  0  0  0  0  0  0  0
    5.1157   -1.5415   -1.8718 H   0  0  0  0  0  0  0  0  0  0  0  0
    5.0029    0.1661   -2.3616 H   0  0  0  0  0  0  0  0  0  0  0  0
    5.1570   -0.7872    1.7970 H   0  0  0  0  0  0  0  0  0  0  0  0
    5.0158   -2.1220    0.6280 H   0  0  0  0  0  0  0  0  0  0  0  0
    7.2873   -1.7165    1.2457 H   0  0  0  0  0  0  0  0  0  0  0  0
    5.2937    2.9957   -1.0012 H   0  0  0  0  0  0  0  0  0  0  0  0
    2.5235   -1.4422    1.9898 H   0  0  0  0  0  0  0  0  0  0  0  0
    3.7615   -0.2473    2.4457 H   0  0  0  0  0  0  0  0  0  0  0  0
    2.0586    0.0224    2.8882 H   0  0  0  0  0  0  0  0  0  0  0  0
   -6.0750    2.5896   -1.8093 H   0  0  0  0  0  0  0  0  0  0  0  0
   -6.3939    0.8784   -2.1813 H   0  0  0  0  0  0  0  0  0  0  0  0
   -7.4293    1.7449   -1.0214 H   0  0  0  0  0  0  0  0  0  0  0  0
  1  2  1  0  0  0  0
  2  3  1  0  0  0  0
  3  4  1  0  0  0  0
  4  5  1  0  0  0  0
  5  6  2  0  0  0  0
  6  7  1  0  0  0  0
  7  8  1  0  0  0  0
  8  9  1  0  0  0  0
  9 10  1  0  0  0  0
 10 11  1  0  0  0  0
 11 12  1  0  0  0  0
 12 13  1  0  0  0  0
 13 14  1  0  0  0  0
  9 14  1  0  0  0  0
 14 15  1  0  0  0  0
 15 16  1  0  0  0  0
 16 17  1  0  0  0  0
  8 17  1  0  0  0  0
 17 18  1  0  0  0  0
  5 18  1  0  0  0  0
 18 19  1  0  0  0  0
 19 20  1  0  0  0  0
 20 21  1  0  0  0  0
  4 21  1  0  0  0  0
 21 22  1  0  0  0  0
 22 23  2  0  0  0  0
 22 24  1  0  0  0  0
  2 24  1  0  0  0  0
 21 25  1  0  0  0  0
 18 26  1  0  0  0  0
 17 27  1  0  0  0  0
 13 28  1  0  0  0  0
 13 29  1  0  0  0  0
 29 30  1  0  0  0  0
 12 31  1  0  0  0  0
  9 32  1  0  0  0  0
  2 33  1  0  0  0  0
  1 34  1  0  0  0  0
  1 35  1  0  0  0  0
  1 36  1  0  0  0  0
  3 37  1  0  0  0  0
  3 38  1  0  0  0  0
  4 39  1  0  0  0  0
  6 40  1  0  0  0  0
  7 41  1  0  0  0  0
  7 42  1  0  0  0  0
  8 43  1  0  0  0  0
 10 44  1  0  0  0  0
 10 45  1  0  0  0  0
 11 46  1  0  0  0  0
 11 47  1  0  0  0  0
 12 48  1  0  0  0  0
 14 49  1  0  0  0  0
 15 50  1  0  0  0  0
 15 51  1  0  0  0  0
 16 52  1  0  0  0  0
 16 53  1  0  0  0  0
 19 54  1  0  0  0  0
 19 55  1  0  0  0  0
 20 56  1  0  0  0  0
 20 57  1  0  0  0  0
 24 58  1  0  0  0  0
 24 59  1  0  0  0  0
 25 60  1  0  0  0  0
 25 61  1  0  0  0  0
 25 62  1  0  0  0  0
 26 63  1  0  0  0  0
 26 64  1  0  0  0  0
 26 65  1  0  0  0  0
 27 66  1  0  0  0  0
 27 67  1  0  0  0  0
 27 68  1  0  0  0  0
 28 69  1  0  0  0  0
 28 70  1  0  0  0  0
 28 71  1  0  0  0  0
 29 72  1  0  0  0  0
 29 73  1  0  0  0  0
 30 74  1  0  0  0  0
 31 75  1  0  0  0  0
 32 76  1  0  0  0  0
 32 77  1  0  0  0  0
 32 78  1  0  0  0  0
 33 79  1  0  0  0  0
 33 80  1  0  0  0  0
 33 81  1  0  0  0  0
M  END
$$$$
