C27H30O16
APtclcactv06281817383D 0   0.00000     0.00000
 
 73 77  0  0  0  0  0  0  0  0999 V2000
   -3.4094    1.5663    1.7470 C   0  0  0  0  0  0  0  0  0  0  0  0
   -4.4438    2.4487    1.9675 C   0  0  0  0  0  0  0  0  0  0  0  0
   -4.6534    3.5090    1.0942 C   0  0  0  0  0  0  0  0  0  0  0  0
   -3.8211    3.6846   -0.0046 C   0  0  0  0  0  0  0  0  0  0  0  0
   -2.7842    2.8071   -0.2329 C   0  0  0  0  0  0  0  0  0  0  0  0
   -2.5695    1.7390    0.6430 C   0  0  0  0  0  0  0  0  0  0  0  0
   -1.4606    0.7973    0.4030 C   0  0  0  0  0  0  0  0  0  0  0  0
   -1.7092   -0.5406    0.4729 C   0  0  0  0  0  0  0  0  0  0  0  0
   -0.6526   -1.4598    0.2445 C   0  0  0  0  0  0  0  0  0  0  0  0
   -0.8379   -2.6652    0.2983 O   0  0  0  0  0  0  0  0  0  0  0  0
    0.6752   -0.9033   -0.0604 C   0  0  0  0  0  0  0  0  0  0  0  0
    1.7751   -1.7369   -0.3000 C   0  0  0  0  0  0  0  0  0  0  0  0
    3.0062   -1.1752   -0.5836 C   0  0  0  0  0  0  0  0  0  0  0  0
    3.1496    0.2072   -0.6297 C   0  0  0  0  0  0  0  0  0  0  0  0
    2.0656    1.0384   -0.3937 C   0  0  0  0  0  0  0  0  0  0  0  0
    0.8229    0.4943   -0.1081 C   0  0  0  0  0  0  0  0  0  0  0  0
   -0.2431    1.2903    0.1181 O   0  0  0  0  0  0  0  0  0  0  0  0
    4.3632    0.7481   -0.9082 O   0  0  0  0  0  0  0  0  0  0  0  0
    5.4407   -0.1612   -1.1415 C   0  0  0  0  0  0  0  0  0  0  0  0
    6.6882    0.6218   -1.5590 C   0  0  0  0  0  0  0  0  0  0  0  0
    7.1043    1.5519   -0.4153 C   0  0  0  0  0  0  0  0  0  0  0  0
    7.3375    0.7172    0.8478 C   0  0  0  0  0  0  0  0  0  0  0  0
    6.0649   -0.0695    1.1723 C   0  0  0  0  0  0  0  0  0  0  0  0
    5.7164   -0.8907    0.0559 O   0  0  0  0  0  0  0  0  0  0  0  0
    6.3091   -0.9518    2.3982 C   0  0  0  0  0  0  0  0  0  0  0  0
    5.0898   -1.5971    2.7712 O   0  0  0  0  0  0  0  0  0  0  0  0
    8.4176   -0.1920    0.6267 O   0  0  0  0  0  0  0  0  0  0  0  0
    8.3101    2.2330   -0.7675 O   0  0  0  0  0  0  0  0  0  0  0  0
    7.7511   -0.2898   -1.8439 O   0  0  0  0  0  0  0  0  0  0  0  0
    1.6335   -3.0859   -0.2537 O   0  0  0  0  0  0  0  0  0  0  0  0
   -2.9607   -0.9916    0.7599 O   0  0  0  0  0  0  0  0  0  0  0  0
   -3.6074   -1.7878   -0.2350 C   0  0  0  0  0  0  0  0  0  0  0  0
   -4.8288   -2.4780    0.3779 C   0  0  0  0  0  0  0  0  0  0  0  0
   -5.8273   -1.4135    0.8427 C   0  0  0  0  0  0  0  0  0  0  0  0
   -6.1988   -0.5234   -0.3473 C   0  0  0  0  0  0  0  0  0  0  0  0
   -4.9245    0.0912   -0.9323 C   0  0  0  0  0  0  0  0  0  0  0  0
   -4.0266   -0.9522   -1.3158 O   0  0  0  0  0  0  0  0  0  0  0  0
   -5.2809    0.9341   -2.1584 C   0  0  0  0  0  0  0  0  0  0  0  0
   -4.1102    1.6007   -2.6349 O   0  0  0  0  0  0  0  0  0  0  0  0
   -6.8518   -1.3096   -1.3462 O   0  0  0  0  0  0  0  0  0  0  0  0
   -7.0026   -2.0492    1.3494 O   0  0  0  0  0  0  0  0  0  0  0  0
   -5.4455   -3.3159   -0.6017 O   0  0  0  0  0  0  0  0  0  0  0  0
   -5.6750    4.3760    1.3149 O   0  0  0  0  0  0  0  0  0  0  0  0
   -3.2447    0.7448    2.4286 H   0  0  0  0  0  0  0  0  0  0  0  0
   -5.0932    2.3161    2.8202 H   0  0  0  0  0  0  0  0  0  0  0  0
   -3.9877    4.5101   -0.6807 H   0  0  0  0  0  0  0  0  0  0  0  0
   -2.1382    2.9439   -1.0876 H   0  0  0  0  0  0  0  0  0  0  0  0
    3.8588   -1.8117   -0.7694 H   0  0  0  0  0  0  0  0  0  0  0  0
    2.1893    2.1106   -0.4323 H   0  0  0  0  0  0  0  0  0  0  0  0
    5.1649   -0.8556   -1.9351 H   0  0  0  0  0  0  0  0  0  0  0  0
    6.4666    1.2134   -2.4473 H   0  0  0  0  0  0  0  0  0  0  0  0
    6.3137    2.2792   -0.2308 H   0  0  0  0  0  0  0  0  0  0  0  0
    7.5802    1.3770    1.6807 H   0  0  0  0  0  0  0  0  0  0  0  0
    5.2512    0.6252    1.3805 H   0  0  0  0  0  0  0  0  0  0  0  0
    7.0605   -1.7046    2.1602 H   0  0  0  0  0  0  0  0  0  0  0  0
    6.6616   -0.3353    3.2251 H   0  0  0  0  0  0  0  0  0  0  0  0
    5.1703   -2.1740    3.5431 H   0  0  0  0  0  0  0  0  0  0  0  0
    9.2561    0.2385    0.4109 H   0  0  0  0  0  0  0  0  0  0  0  0
    8.2366    2.7765   -1.5640 H   0  0  0  0  0  0  0  0  0  0  0  0
    7.5543   -0.9132   -2.5565 H   0  0  0  0  0  0  0  0  0  0  0  0
    1.3978   -3.4860   -1.1019 H   0  0  0  0  0  0  0  0  0  0  0  0
   -2.9124   -2.5410   -0.6061 H   0  0  0  0  0  0  0  0  0  0  0  0
   -4.5166   -3.0814    1.2303 H   0  0  0  0  0  0  0  0  0  0  0  0
   -5.3740   -0.8052    1.6254 H   0  0  0  0  0  0  0  0  0  0  0  0
   -6.8665    0.2710   -0.0137 H   0  0  0  0  0  0  0  0  0  0  0  0
   -4.4485    0.7232   -0.1825 H   0  0  0  0  0  0  0  0  0  0  0  0
   -5.6748    0.2869   -2.9421 H   0  0  0  0  0  0  0  0  0  0  0  0
   -6.0339    1.6732   -1.8849 H   0  0  0  0  0  0  0  0  0  0  0  0
   -4.2621    2.1546   -3.4128 H   0  0  0  0  0  0  0  0  0  0  0  0
   -7.6660   -1.7339   -1.0426 H   0  0  0  0  0  0  0  0  0  0  0  0
   -6.8398   -2.6346    2.1016 H   0  0  0  0  0  0  0  0  0  0  0  0
   -4.8956   -4.0587   -0.8862 H   0  0  0  0  0  0  0  0  0  0  0  0
   -5.4356    5.1339    1.8657 H   0  0  0  0  0  0  0  0  0  0  0  0
  1  2  2  0  0  0  0
  2  3  1  0  0  0  0
  3  4  2  0  0  0  0
  4  5  1  0  0  0  0
  5  6  2  0  0  0  0
  1  6  1  0  0  0  0
  6  7  1  0  0  0  0
  7  8  2  0  0  0  0
  8  9  1  0  0  0  0
  9 10  2  0  0  0  0
  9 11  1  0  0  0  0
 11 12  2  0  0  0  0
 12 13  1  0  0  0  0
 13 14  2  0  0  0  0
 14 15  1  0  0  0  0
 15 16  2  0  0  0  0
 11 16  1  0  0  0  0
 16 17  1  0  0  0  0
  7 17  1  0  0  0  0
 14 18  1  0  0  0  0
 18 19  1  0  0  0  0
 19 20  1  0  0  0  0
 20 21  1  0  0  0  0
 21 22  1  0  0  0  0
 22 23  1  0  0  0  0
 23 24  1  0  0  0  0
 19 24  1  0  0  0  0
 23 25  1  0  0  0  0
 25 26  1  0  0  0  0
 22 27  1  0  0  0  0
 21 28  1  0  0  0  0
 20 29  1  0  0  0  0
 12 30  1  0  0  0  0
  8 31  1  0  0  0  0
 31 32  1  0  0  0  0
 32 33  1  0  0  0  0
 33 34  1  0  0  0  0
 34 35  1  0  0  0  0
 35 36  1  0  0  0  0
 36 37  1  0  0  0  0
 32 37  1  0  0  0  0
 36 38  1  0  0  0  0
 38 39  1  0  0  0  0
 35 40  1  0  0  0  0
 34 41  1  0  0  0  0
 33 42  1  0  0  0  0
  3 43  1  0  0  0  0
  1 44  1  0  0  0  0
  2 45  1  0  0  0  0
  4 46  1  0  0  0  0
  5 47  1  0  0  0  0
 13 48  1  0  0  0  0
 15 49  1  0  0  0  0
 19 50  1  0  0  0  0
 20 51  1  0  0  0  0
 21 52  1  0  0  0  0
 22 53  1  0  0  0  0
 23 54  1  0  0  0  0
 25 55  1  0  0  0  0
 25 56  1  0  0  0  0
 26 57  1  0  0  0  0
 27 58  1  0  0  0  0
 28 59  1  0  0  0  0
 29 60  1  0  0  0  0
 30 61  1  0  0  0  0
 32 62  1  0  0  0  0
 33 63  1  0  0  0  0
 34 64  1  0  0  0  0
 35 65  1  0  0  0  0
 36 66  1  0  0  0  0
 38 67  1  0  0  0  0
 38 68  1  0  0  0  0
 39 69  1  0  0  0  0
 40 70  1  0  0  0  0
 41 71  1  0  0  0  0
 42 72  1  0  0  0  0
 43 73  1  0  0  0  0
M  END
$$$$
