C10H12O3
APtclcactv06281817383D 0   0.00000     0.00000
 
 25 25  0  0  0  0  0  0  0  0999 V2000
    2.6946    2.4209    0.2281 C   0  0  0  0  0  0  0  0  0  0  0  0
    2.7697    1.2333   -0.5631 O   0  0  0  0  0  0  0  0  0  0  0  0
    2.6736    0.0243    0.1926 C   0  0  0  0  0  0  0  0  0  0  0  0
    1.3176   -0.1794    0.5950 O   0  0  0  0  0  0  0  0  0  0  0  0
    0.4591   -0.6219   -0.4581 C   0  0  0  0  0  0  0  0  0  0  0  0
    0.4563   -2.1282   -0.5044 C   0  0  0  0  0  0  0  0  0  0  0  0
    1.1209   -2.7578    0.2831 O   0  0  0  0  0  0  0  0  0  0  0  0
   -0.9412   -0.1245   -0.2072 C   0  0  0  0  0  0  0  0  0  0  0  0
   -1.7465    0.2387   -1.2704 C   0  0  0  0  0  0  0  0  0  0  0  0
   -3.0309    0.6950   -1.0402 C   0  0  0  0  0  0  0  0  0  0  0  0
   -3.5101    0.7878    0.2531 C   0  0  0  0  0  0  0  0  0  0  0  0
   -2.7050    0.4238    1.3163 C   0  0  0  0  0  0  0  0  0  0  0  0
   -1.4222   -0.0367    1.0858 C   0  0  0  0  0  0  0  0  0  0  0  0
    2.7752    3.2943   -0.4189 H   0  0  0  0  0  0  0  0  0  0  0  0
    1.7411    2.4463    0.7557 H   0  0  0  0  0  0  0  0  0  0  0  0
    3.5102    2.4279    0.9512 H   0  0  0  0  0  0  0  0  0  0  0  0
    3.0004   -0.8149   -0.4214 H   0  0  0  0  0  0  0  0  0  0  0  0
    3.3078    0.0967    1.0762 H   0  0  0  0  0  0  0  0  0  0  0  0
    0.8190   -0.2298   -1.4093 H   0  0  0  0  0  0  0  0  0  0  0  0
   -0.1402   -2.6447   -1.2420 H   0  0  0  0  0  0  0  0  0  0  0  0
   -1.3722    0.1662   -2.2808 H   0  0  0  0  0  0  0  0  0  0  0  0
   -3.6599    0.9794   -1.8708 H   0  0  0  0  0  0  0  0  0  0  0  0
   -4.5133    1.1450    0.4330 H   0  0  0  0  0  0  0  0  0  0  0  0
   -3.0793    0.4965    2.3267 H   0  0  0  0  0  0  0  0  0  0  0  0
   -0.7932   -0.3211    1.9164 H   0  0  0  0  0  0  0  0  0  0  0  0
  1  2  1  0  0  0  0
  2  3  1  0  0  0  0
  3  4  1  0  0  0  0
  4  5  1  0  0  0  0
  5  6  1  0  0  0  0
  6  7  2  0  0  0  0
  5  8  1  0  0  0  0
  8  9  2  0  0  0  0
  9 10  1  0  0  0  0
 10 11  2  0  0  0  0
 11 12  1  0  0  0  0
 12 13  2  0  0  0  0
  8 13  1  0  0  0  0
  1 14  1  0  0  0  0
  1 15  1  0  0  0  0
  1 16  1  0  0  0  0
  3 17  1  0  0  0  0
  3 18  1  0  0  0  0
  5 19  1  0  0  0  0
  6 20  1  0  0  0  0
  9 21  1  0  0  0  0
 10 22  1  0  0  0  0
 11 23  1  0  0  0  0
 12 24  1  0  0  0  0
 13 25  1  0  0  0  0
M  END
$$$$
