C11H8O5
APtclcactv06281817383D 0   0.00000     0.00000
 
 24 26  0  0  0  0  0  0  0  0999 V2000
   -0.3123    3.0375   -0.8066 C   0  0  0  0  0  0  0  0  0  0  0  0
   -0.3659    2.2207    0.3648 O   0  0  0  0  0  0  0  0  0  0  0  0
   -0.4385    0.8749    0.1767 C   0  0  0  0  0  0  0  0  0  0  0  0
    0.7269    0.1215    0.0895 C   0  0  0  0  0  0  0  0  0  0  0  0
    0.6408   -1.2690   -0.1046 C   0  0  0  0  0  0  0  0  0  0  0  0
   -0.6113   -1.8861   -0.2099 C   0  0  0  0  0  0  0  0  0  0  0  0
   -1.7592   -1.1270   -0.1213 C   0  0  0  0  0  0  0  0  0  0  0  0
   -1.6757    0.2543    0.0779 C   0  0  0  0  0  0  0  0  0  0  0  0
   -2.9421    0.7623    0.1287 O   0  0  0  0  0  0  0  0  0  0  0  0
   -3.8010   -0.3672    0.3708 C   0  0  0  0  0  0  0  0  0  0  0  0
   -3.0778   -1.4772   -0.1891 O   0  0  0  0  0  0  0  0  0  0  0  0
    1.8758   -2.0509   -0.1930 C   0  0  0  0  0  0  0  0  0  0  0  0
    3.0604   -1.3951   -0.0832 C   0  0  0  0  0  0  0  0  0  0  0  0
    3.0735    0.0015    0.1098 C   0  0  0  0  0  0  0  0  0  0  0  0
    4.1425    0.5773    0.2063 O   0  0  0  0  0  0  0  0  0  0  0  0
    1.9384    0.7124    0.1899 O   0  0  0  0  0  0  0  0  0  0  0  0
    0.5689    2.7756   -1.3922 H   0  0  0  0  0  0  0  0  0  0  0  0
   -1.2083    2.8734   -1.4052 H   0  0  0  0  0  0  0  0  0  0  0  0
   -0.2567    4.0865   -0.5158 H   0  0  0  0  0  0  0  0  0  0  0  0
   -0.6780   -2.9535   -0.3605 H   0  0  0  0  0  0  0  0  0  0  0  0
   -3.9500   -0.5124    1.4408 H   0  0  0  0  0  0  0  0  0  0  0  0
   -4.7573   -0.2363   -0.1355 H   0  0  0  0  0  0  0  0  0  0  0  0
    1.8456   -3.1203   -0.3411 H   0  0  0  0  0  0  0  0  0  0  0  0
    3.9897   -1.9422   -0.1433 H   0  0  0  0  0  0  0  0  0  0  0  0
  1  2  1  0  0  0  0
  2  3  1  0  0  0  0
  3  4  2  0  0  0  0
  4  5  1  0  0  0  0
  5  6  2  0  0  0  0
  6  7  1  0  0  0  0
  7  8  2  0  0  0  0
  3  8  1  0  0  0  0
  8  9  1  0  0  0  0
  9 10  1  0  0  0  0
 10 11  1  0  0  0  0
  7 11  1  0  0  0  0
  5 12  1  0  0  0  0
 12 13  2  0  0  0  0
 13 14  1  0  0  0  0
 14 15  2  0  0  0  0
 14 16  1  0  0  0  0
  4 16  1  0  0  0  0
  1 17  1  0  0  0  0
  1 18  1  0  0  0  0
  1 19  1  0  0  0  0
  6 20  1  0  0  0  0
 10 21  1  0  0  0  0
 10 22  1  0  0  0  0
 12 23  1  0  0  0  0
 13 24  1  0  0  0  0
M  END
$$$$
