C4H4CaO6
APtclcactv06281817383D 0   0.00000     0.00000
 
 15 13  0  0  0  0  0  0  0  0999 V2000
   -2.3097   -0.6106   -0.6323 C   0  0  0  0  0  0  0  0  0  0  0  0
   -2.3685    0.6788    0.1892 C   0  0  0  0  0  0  0  0  0  0  0  0
   -3.6395    1.4218   -0.1324 C   0  0  0  0  0  0  0  0  0  0  0  0
   -4.4900    1.5754    0.7276 O   0  0  0  0  0  0  0  0  0  0  0  0
   -3.8173    1.8693   -1.2525 O   0  5  0  0  0  0  0  0  0  0  0  0
   -2.3435    0.3580    1.5815 O   0  0  0  0  0  0  0  0  0  0  0  0
   -1.1018   -1.4130   -0.2221 C   0  0  0  0  0  0  0  0  0  0  0  0
   -1.2444   -2.4999    0.3115 O   0  0  0  0  0  0  0  0  0  0  0  0
    0.0181   -0.9752   -0.4240 O   0  5  0  0  0  0  0  0  0  0  0  0
   -3.4926   -1.3779   -0.3998 O   0  0  0  0  0  0  0  0  0  0  0  0
    9.2210    0.4186    0.0054 Ca  0  2  0  0  0  0  0  0  0  0  0  0
   -2.2392   -0.3636   -1.6916 H   0  0  0  0  0  0  0  0  0  0  0  0
   -1.5101    1.3046   -0.0549 H   0  0  0  0  0  0  0  0  0  0  0  0
   -3.0799   -0.1981    1.8703 H   0  0  0  0  0  0  0  0  0  0  0  0
   -3.6202   -1.6337    0.5239 H   0  0  0  0  0  0  0  0  0  0  0  0
  1  2  1  0  0  0  0
  2  3  1  0  0  0  0
  3  4  2  0  0  0  0
  3  5  1  0  0  0  0
  2  6  1  0  0  0  0
  1  7  1  0  0  0  0
  7  8  2  0  0  0  0
  7  9  1  0  0  0  0
  1 10  1  0  0  0  0
  1 12  1  0  0  0  0
  2 13  1  0  0  0  0
  6 14  1  0  0  0  0
 10 15  1  0  0  0  0
M  CHG  3   5  -1   9  -1  11   2
M  END
$$$$
