C18H26O3
APtclcactv06281817383D 0   0.00000     0.00000
 
 47 47  0  0  0  0  0  0  0  0999 V2000
   10.4152   -0.2790    0.0061 C   0  0  0  0  0  0  0  0  0  0  0  0
    9.1571    0.5917    0.0006 C   0  0  0  0  0  0  0  0  0  0  0  0
    7.9169   -0.3042    0.0043 C   0  0  0  0  0  0  0  0  0  0  0  0
    6.6588    0.5664   -0.0012 C   0  0  0  0  0  0  0  0  0  0  0  0
    5.4185   -0.3295    0.0025 C   0  0  0  0  0  0  0  0  0  0  0  0
    4.1604    0.5411   -0.0030 C   0  0  0  0  0  0  0  0  0  0  0  0
    2.9202   -0.3548    0.0007 C   0  0  0  0  0  0  0  0  0  0  0  0
    1.6621    0.5158   -0.0048 C   0  0  0  0  0  0  0  0  0  0  0  0
    0.4405   -0.3666   -0.0012 C   0  0  0  0  0  0  0  0  0  0  0  0
    0.5642   -1.5750    0.0052 O   0  0  0  0  0  0  0  0  0  0  0  0
   -0.8441    0.2095   -0.0052 C   0  0  0  0  0  0  0  0  0  0  0  0
   -1.9430   -0.5843   -0.0019 C   0  0  0  0  0  0  0  0  0  0  0  0
   -3.2822    0.0163   -0.0061 C   0  0  0  0  0  0  0  0  0  0  0  0
   -4.4192   -0.8019   -0.0027 C   0  0  0  0  0  0  0  0  0  0  0  0
   -5.6759   -0.2308   -0.0062 C   0  0  0  0  0  0  0  0  0  0  0  0
   -5.8117    1.1574   -0.0134 C   0  0  0  0  0  0  0  0  0  0  0  0
   -4.6850    1.9699   -0.0172 C   0  0  0  0  0  0  0  0  0  0  0  0
   -3.4274    1.4095   -0.0075 C   0  0  0  0  0  0  0  0  0  0  0  0
   -7.0493    1.7164   -0.0173 O   0  0  0  0  0  0  0  0  0  0  0  0
   -6.7820   -1.0220   -0.0029 O   0  0  0  0  0  0  0  0  0  0  0  0
   -6.5690   -2.4350    0.0040 C   0  0  0  0  0  0  0  0  0  0  0  0
   10.4209   -0.9036    0.8993 H   0  0  0  0  0  0  0  0  0  0  0  0
   10.4223   -0.9128   -0.8806 H   0  0  0  0  0  0  0  0  0  0  0  0
   11.2988    0.3593    0.0035 H   0  0  0  0  0  0  0  0  0  0  0  0
    9.1501    1.2256    0.8874 H   0  0  0  0  0  0  0  0  0  0  0  0
    9.1514    1.2164   -0.8926 H   0  0  0  0  0  0  0  0  0  0  0  0
    7.9239   -0.9381   -0.8824 H   0  0  0  0  0  0  0  0  0  0  0  0
    7.9226   -0.9289    0.8975 H   0  0  0  0  0  0  0  0  0  0  0  0
    6.6517    1.2003    0.8855 H   0  0  0  0  0  0  0  0  0  0  0  0
    6.6531    1.1911   -0.8944 H   0  0  0  0  0  0  0  0  0  0  0  0
    5.4256   -0.9634   -0.8842 H   0  0  0  0  0  0  0  0  0  0  0  0
    5.4242   -0.9542    0.8957 H   0  0  0  0  0  0  0  0  0  0  0  0
    4.1534    1.1750    0.8837 H   0  0  0  0  0  0  0  0  0  0  0  0
    4.1547    1.1658   -0.8962 H   0  0  0  0  0  0  0  0  0  0  0  0
    2.9272   -0.9887   -0.8860 H   0  0  0  0  0  0  0  0  0  0  0  0
    2.9258   -0.9795    0.8939 H   0  0  0  0  0  0  0  0  0  0  0  0
    1.6550    1.1497    0.8819 H   0  0  0  0  0  0  0  0  0  0  0  0
    1.6564    1.1405   -0.8980 H   0  0  0  0  0  0  0  0  0  0  0  0
   -0.9540    1.2838   -0.0108 H   0  0  0  0  0  0  0  0  0  0  0  0
   -1.8330   -1.6587    0.0037 H   0  0  0  0  0  0  0  0  0  0  0  0
   -4.3129   -1.8767    0.0022 H   0  0  0  0  0  0  0  0  0  0  0  0
   -4.7958    3.0442   -0.0235 H   0  0  0  0  0  0  0  0  0  0  0  0
   -2.5532    2.0437   -0.0105 H   0  0  0  0  0  0  0  0  0  0  0  0
   -7.4084    1.8828    0.8650 H   0  0  0  0  0  0  0  0  0  0  0  0
   -6.0062   -2.7220   -0.8843 H   0  0  0  0  0  0  0  0  0  0  0  0
   -6.0072   -2.7133    0.8957 H   0  0  0  0  0  0  0  0  0  0  0  0
   -7.5310   -2.9475    0.0060 H   0  0  0  0  0  0  0  0  0  0  0  0
  1  2  1  0  0  0  0
  2  3  1  0  0  0  0
  3  4  1  0  0  0  0
  4  5  1  0  0  0  0
  5  6  1  0  0  0  0
  6  7  1  0  0  0  0
  7  8  1  0  0  0  0
  8  9  1  0  0  0  0
  9 10  2  0  0  0  0
  9 11  1  0  0  0  0
 11 12  2  0  0  0  0
 12 13  1  0  0  0  0
 13 14  2  0  0  0  0
 14 15  1  0  0  0  0
 15 16  2  0  0  0  0
 16 17  1  0  0  0  0
 17 18  2  0  0  0  0
 13 18  1  0  0  0  0
 16 19  1  0  0  0  0
 15 20  1  0  0  0  0
 20 21  1  0  0  0  0
  1 22  1  0  0  0  0
  1 23  1  0  0  0  0
  1 24  1  0  0  0  0
  2 25  1  0  0  0  0
  2 26  1  0  0  0  0
  3 27  1  0  0  0  0
  3 28  1  0  0  0  0
  4 29  1  0  0  0  0
  4 30  1  0  0  0  0
  5 31  1  0  0  0  0
  5 32  1  0  0  0  0
  6 33  1  0  0  0  0
  6 34  1  0  0  0  0
  7 35  1  0  0  0  0
  7 36  1  0  0  0  0
  8 37  1  0  0  0  0
  8 38  1  0  0  0  0
 11 39  1  0  0  0  0
 12 40  1  0  0  0  0
 14 41  1  0  0  0  0
 17 42  1  0  0  0  0
 18 43  1  0  0  0  0
 19 44  1  0  0  0  0
 21 45  1  0  0  0  0
 21 46  1  0  0  0  0
 21 47  1  0  0  0  0
M  END
$$$$
