C18H28O3
APtclcactv06281817383D 0   0.00000     0.00000
 
 49 49  0  0  0  0  0  0  0  0999 V2000
   10.3469    0.3070   -0.0198 C   0  0  0  0  0  0  0  0  0  0  0  0
    9.0537    0.3404    0.7973 C   0  0  0  0  0  0  0  0  0  0  0  0
    7.8565    0.1417   -0.1344 C   0  0  0  0  0  0  0  0  0  0  0  0
    6.5634    0.1751    0.6827 C   0  0  0  0  0  0  0  0  0  0  0  0
    5.3661   -0.0235   -0.2490 C   0  0  0  0  0  0  0  0  0  0  0  0
    4.0730    0.0099    0.5681 C   0  0  0  0  0  0  0  0  0  0  0  0
    2.8757   -0.1888   -0.3636 C   0  0  0  0  0  0  0  0  0  0  0  0
    1.5826   -0.1554    0.4534 C   0  0  0  0  0  0  0  0  0  0  0  0
    0.4034   -0.3511   -0.4642 C   0  0  0  0  0  0  0  0  0  0  0  0
    0.5791   -0.5017   -1.6495 O   0  0  0  0  0  0  0  0  0  0  0  0
   -0.9951   -0.3588    0.0971 C   0  0  0  0  0  0  0  0  0  0  0  0
   -1.9989   -0.5734   -1.0374 C   0  0  0  0  0  0  0  0  0  0  0  0
   -3.3975   -0.5811   -0.4760 C   0  0  0  0  0  0  0  0  0  0  0  0
   -4.1087    0.6005   -0.3803 C   0  0  0  0  0  0  0  0  0  0  0  0
   -5.3947    0.5951    0.1357 C   0  0  0  0  0  0  0  0  0  0  0  0
   -5.9673   -0.6013    0.5565 C   0  0  0  0  0  0  0  0  0  0  0  0
   -5.2489   -1.7821    0.4578 C   0  0  0  0  0  0  0  0  0  0  0  0
   -3.9684   -1.7706   -0.0632 C   0  0  0  0  0  0  0  0  0  0  0  0
   -7.2289   -0.6116    1.0640 O   0  0  0  0  0  0  0  0  0  0  0  0
   -6.0956    1.7566    0.2310 O   0  0  0  0  0  0  0  0  0  0  0  0
   -5.4444    2.9461   -0.2198 C   0  0  0  0  0  0  0  0  0  0  0  0
   11.1998    0.4485    0.6440 H   0  0  0  0  0  0  0  0  0  0  0  0
   10.4339   -0.6560   -0.5230 H   0  0  0  0  0  0  0  0  0  0  0  0
   10.3281    1.1046   -0.7624 H   0  0  0  0  0  0  0  0  0  0  0  0
    9.0725   -0.4573    1.5399 H   0  0  0  0  0  0  0  0  0  0  0  0
    8.9667    1.3033    1.3005 H   0  0  0  0  0  0  0  0  0  0  0  0
    7.8377    0.9394   -0.8770 H   0  0  0  0  0  0  0  0  0  0  0  0
    7.9436   -0.8212   -0.6376 H   0  0  0  0  0  0  0  0  0  0  0  0
    6.5821   -0.6225    1.4253 H   0  0  0  0  0  0  0  0  0  0  0  0
    6.4763    1.1381    1.1859 H   0  0  0  0  0  0  0  0  0  0  0  0
    5.3474    0.7741   -0.9917 H   0  0  0  0  0  0  0  0  0  0  0  0
    5.4532   -0.9865   -0.7522 H   0  0  0  0  0  0  0  0  0  0  0  0
    4.0917   -0.7878    1.3107 H   0  0  0  0  0  0  0  0  0  0  0  0
    3.9859    0.9728    1.0713 H   0  0  0  0  0  0  0  0  0  0  0  0
    2.8570    0.6089   -1.1063 H   0  0  0  0  0  0  0  0  0  0  0  0
    2.9628   -1.1518   -0.8668 H   0  0  0  0  0  0  0  0  0  0  0  0
    1.6014   -0.9530    1.1961 H   0  0  0  0  0  0  0  0  0  0  0  0
    1.4956    0.8076    0.9566 H   0  0  0  0  0  0  0  0  0  0  0  0
   -1.0904   -1.1654    0.8240 H   0  0  0  0  0  0  0  0  0  0  0  0
   -1.1962    0.5952    0.5846 H   0  0  0  0  0  0  0  0  0  0  0  0
   -1.9037    0.2333   -1.7643 H   0  0  0  0  0  0  0  0  0  0  0  0
   -1.7978   -1.5273   -1.5249 H   0  0  0  0  0  0  0  0  0  0  0  0
   -3.6619    1.5277   -0.7073 H   0  0  0  0  0  0  0  0  0  0  0  0
   -5.6909   -2.7120    0.7837 H   0  0  0  0  0  0  0  0  0  0  0  0
   -3.4095   -2.6916   -0.1396 H   0  0  0  0  0  0  0  0  0  0  0  0
   -7.9190   -0.7443    0.3997 H   0  0  0  0  0  0  0  0  0  0  0  0
   -6.1119    3.7978   -0.0884 H   0  0  0  0  0  0  0  0  0  0  0  0
   -4.5350    3.1044    0.3599 H   0  0  0  0  0  0  0  0  0  0  0  0
   -5.1897    2.8435   -1.2746 H   0  0  0  0  0  0  0  0  0  0  0  0
  1  2  1  0  0  0  0
  2  3  1  0  0  0  0
  3  4  1  0  0  0  0
  4  5  1  0  0  0  0
  5  6  1  0  0  0  0
  6  7  1  0  0  0  0
  7  8  1  0  0  0  0
  8  9  1  0  0  0  0
  9 10  2  0  0  0  0
  9 11  1  0  0  0  0
 11 12  1  0  0  0  0
 12 13  1  0  0  0  0
 13 14  2  0  0  0  0
 14 15  1  0  0  0  0
 15 16  2  0  0  0  0
 16 17  1  0  0  0  0
 17 18  2  0  0  0  0
 13 18  1  0  0  0  0
 16 19  1  0  0  0  0
 15 20  1  0  0  0  0
 20 21  1  0  0  0  0
  1 22  1  0  0  0  0
  1 23  1  0  0  0  0
  1 24  1  0  0  0  0
  2 25  1  0  0  0  0
  2 26  1  0  0  0  0
  3 27  1  0  0  0  0
  3 28  1  0  0  0  0
  4 29  1  0  0  0  0
  4 30  1  0  0  0  0
  5 31  1  0  0  0  0
  5 32  1  0  0  0  0
  6 33  1  0  0  0  0
  6 34  1  0  0  0  0
  7 35  1  0  0  0  0
  7 36  1  0  0  0  0
  8 37  1  0  0  0  0
  8 38  1  0  0  0  0
 11 39  1  0  0  0  0
 11 40  1  0  0  0  0
 12 41  1  0  0  0  0
 12 42  1  0  0  0  0
 14 43  1  0  0  0  0
 17 44  1  0  0  0  0
 18 45  1  0  0  0  0
 19 46  1  0  0  0  0
 21 47  1  0  0  0  0
 21 48  1  0  0  0  0
 21 49  1  0  0  0  0
M  END
$$$$
