C20H17NO5
APtclcactv06211806393D 0   0.00000     0.00000
 
 43 46  0  0  0  0  0  0  0  0999 V2000
    6.8256   -0.1964    0.0133 C   0  0  0  0  0  0  0  0  0  0  0  0
    5.6661   -1.0316    0.0034 O   0  0  0  0  0  0  0  0  0  0  0  0
    4.4581   -0.4098   -0.0103 C   0  0  0  0  0  0  0  0  0  0  0  0
    3.2966   -1.1623   -0.0204 C   0  0  0  0  0  0  0  0  0  0  0  0
    2.0574   -0.5227   -0.0341 C   0  0  0  0  0  0  0  0  0  0  0  0
    1.9964    0.8837   -0.0375 C   0  0  0  0  0  0  0  0  0  0  0  0
    3.1780    1.6252   -0.0272 C   0  0  0  0  0  0  0  0  0  0  0  0
    4.3952    0.9802   -0.0084 C   0  0  0  0  0  0  0  0  0  0  0  0
    0.6883    1.5655   -0.0524 C   0  0  0  0  0  0  0  0  0  0  0  0
    0.6226    2.8893   -0.0558 N   0  0  0  0  0  0  0  0  0  0  0  0
   -0.5243    3.5419   -0.0694 C   0  0  0  0  0  0  0  0  0  0  0  0
   -1.7360    2.8842   -0.0806 C   0  0  0  0  0  0  0  0  0  0  0  0
   -1.7434    1.4816   -0.0779 C   0  0  0  0  0  0  0  0  0  0  0  0
   -0.5001    0.8065   -0.0635 C   0  0  0  0  0  0  0  0  0  0  0  0
   -0.4746   -0.6066   -0.0607 C   0  0  0  0  0  0  0  0  0  0  0  0
   -1.6793   -1.3200   -0.0722 C   0  0  0  0  0  0  0  0  0  0  0  0
   -2.9012   -0.6428   -0.0865 C   0  0  0  0  0  0  0  0  0  0  0  0
   -2.9451    0.7385   -0.0884 C   0  0  0  0  0  0  0  0  0  0  0  0
   -4.1398    1.3797   -0.1024 O   0  0  0  0  0  0  0  0  0  0  0  0
   -4.7348    1.6705    1.1639 C   0  0  0  0  0  0  0  0  0  0  0  0
   -4.0624   -1.3521   -0.0976 O   0  0  0  0  0  0  0  0  0  0  0  0
   -4.5767   -1.7346   -1.3748 C   0  0  0  0  0  0  0  0  0  0  0  0
   -1.6599   -2.6747   -0.0700 O   0  0  0  0  0  0  0  0  0  0  0  0
   -1.7969   -3.3234    1.1958 C   0  0  0  0  0  0  0  0  0  0  0  0
    0.8106   -1.3104   -0.0456 C   0  0  0  0  0  0  0  0  0  0  0  0
    0.8486   -2.5282   -0.0430 O   0  0  0  0  0  0  0  0  0  0  0  0
    6.8110    0.4349    0.9017 H   0  0  0  0  0  0  0  0  0  0  0  0
    7.7210   -0.8180    0.0239 H   0  0  0  0  0  0  0  0  0  0  0  0
    6.8292    0.4308   -0.8782 H   0  0  0  0  0  0  0  0  0  0  0  0
    3.3497   -2.2410   -0.0180 H   0  0  0  0  0  0  0  0  0  0  0  0
    3.1386    2.7045   -0.0298 H   0  0  0  0  0  0  0  0  0  0  0  0
    5.3076    1.5579   -0.0002 H   0  0  0  0  0  0  0  0  0  0  0  0
   -0.5135    4.6219   -0.0715 H   0  0  0  0  0  0  0  0  0  0  0  0
   -2.6626    3.4388   -0.0910 H   0  0  0  0  0  0  0  0  0  0  0  0
   -4.9859    0.7384    1.6700 H   0  0  0  0  0  0  0  0  0  0  0  0
   -4.0317    2.2374    1.7741 H   0  0  0  0  0  0  0  0  0  0  0  0
   -5.6407    2.2576    1.0133 H   0  0  0  0  0  0  0  0  0  0  0  0
   -3.8847   -2.4282   -1.8523 H   0  0  0  0  0  0  0  0  0  0  0  0
   -5.5451   -2.2182   -1.2465 H   0  0  0  0  0  0  0  0  0  0  0  0
   -4.6927   -0.8492   -1.9998 H   0  0  0  0  0  0  0  0  0  0  0  0
   -1.0075   -2.9829    1.8659 H   0  0  0  0  0  0  0  0  0  0  0  0
   -2.7685   -3.0799    1.6256 H   0  0  0  0  0  0  0  0  0  0  0  0
   -1.7191   -4.4023    1.0615 H   0  0  0  0  0  0  0  0  0  0  0  0
  1  2  1  0  0  0  0
  2  3  1  0  0  0  0
  3  4  2  0  0  0  0
  4  5  1  0  0  0  0
  5  6  2  0  0  0  0
  6  7  1  0  0  0  0
  7  8  2  0  0  0  0
  3  8  1  0  0  0  0
  6  9  1  0  0  0  0
  9 10  2  0  0  0  0
 10 11  1  0  0  0  0
 11 12  2  0  0  0  0
 12 13  1  0  0  0  0
 13 14  2  0  0  0  0
  9 14  1  0  0  0  0
 14 15  1  0  0  0  0
 15 16  2  0  0  0  0
 16 17  1  0  0  0  0
 17 18  2  0  0  0  0
 13 18  1  0  0  0  0
 18 19  1  0  0  0  0
 19 20  1  0  0  0  0
 17 21  1  0  0  0  0
 21 22  1  0  0  0  0
 16 23  1  0  0  0  0
 23 24  1  0  0  0  0
 15 25  1  0  0  0  0
  5 25  1  0  0  0  0
 25 26  2  0  0  0  0
  1 27  1  0  0  0  0
  1 28  1  0  0  0  0
  1 29  1  0  0  0  0
  4 30  1  0  0  0  0
  7 31  1  0  0  0  0
  8 32  1  0  0  0  0
 11 33  1  0  0  0  0
 12 34  1  0  0  0  0
 20 35  1  0  0  0  0
 20 36  1  0  0  0  0
 20 37  1  0  0  0  0
 22 38  1  0  0  0  0
 22 39  1  0  0  0  0
 22 40  1  0  0  0  0
 24 41  1  0  0  0  0
 24 42  1  0  0  0  0
 24 43  1  0  0  0  0
M  END
$$$$
