C23H32O3
APtclcactv06211806063D 0   0.00000     0.00000
 
 58 61  0  0  0  0  0  0  0  0999 V2000
    8.6522   -1.7534   -0.6903 C   0  0  0  0  0  0  0  0  0  0  0  0
    7.1765   -1.8792   -1.0743 C   0  0  0  0  0  0  0  0  0  0  0  0
    6.3554   -0.8576   -0.2851 C   0  0  0  0  0  0  0  0  0  0  0  0
    4.8797   -0.9834   -0.6690 C   0  0  0  0  0  0  0  0  0  0  0  0
    4.0708    0.0229    0.1083 C   0  0  0  0  0  0  0  0  0  0  0  0
    4.6185    0.7646    0.8892 O   0  0  0  0  0  0  0  0  0  0  0  0
    2.7420    0.0952   -0.0669 O   0  0  0  0  0  0  0  0  0  0  0  0
    2.0292    1.0851    0.7128 C   0  0  0  0  0  0  0  0  0  0  0  0
    1.9228    2.4207   -0.0710 C   0  0  0  0  0  0  0  0  0  0  0  0
    0.4370    2.5463   -0.5219 C   0  0  0  0  0  0  0  0  0  0  0  0
   -0.0270    1.0843   -0.4569 C   0  0  0  0  0  0  0  0  0  0  0  0
    0.5606    0.6511    0.9049 C   0  0  0  0  0  0  0  0  0  0  0  0
    0.3312   -0.8182    1.1298 C   0  0  0  0  0  0  0  0  0  0  0  0
   -1.1433   -1.2012    0.9412 C   0  0  0  0  0  0  0  0  0  0  0  0
   -2.0263   -0.0263    0.5804 C   0  0  0  0  0  0  0  0  0  0  0  0
   -1.4760    0.7811   -0.5899 C   0  0  0  0  0  0  0  0  0  0  0  0
   -2.3854    1.9949   -0.7834 C   0  0  0  0  0  0  0  0  0  0  0  0
   -3.6934    1.4810   -1.3915 C   0  0  0  0  0  0  0  0  0  0  0  0
   -4.1942    0.2588   -0.6655 C   0  0  0  0  0  0  0  0  0  0  0  0
   -3.4363   -0.4508    0.2434 C   0  0  0  0  0  0  0  0  0  0  0  0
   -3.9639   -1.5661    0.8729 C   0  0  0  0  0  0  0  0  0  0  0  0
   -5.2523   -1.9794    0.6018 C   0  0  0  0  0  0  0  0  0  0  0  0
   -6.0213   -1.2711   -0.3105 C   0  0  0  0  0  0  0  0  0  0  0  0
   -5.4910   -0.1587   -0.9395 C   0  0  0  0  0  0  0  0  0  0  0  0
   -7.2921   -1.6682   -0.5843 O   0  0  0  0  0  0  0  0  0  0  0  0
    0.0289    1.4778    2.0760 C   0  0  0  0  0  0  0  0  0  0  0  0
    9.0035   -0.7480   -0.9221 H   0  0  0  0  0  0  0  0  0  0  0  0
    8.7673   -1.9415    0.3771 H   0  0  0  0  0  0  0  0  0  0  0  0
    9.2373   -2.4813   -1.2526 H   0  0  0  0  0  0  0  0  0  0  0  0
    7.0615   -1.6912   -2.1418 H   0  0  0  0  0  0  0  0  0  0  0  0
    6.8253   -2.8847   -0.8425 H   0  0  0  0  0  0  0  0  0  0  0  0
    6.4704   -1.0456    0.7824 H   0  0  0  0  0  0  0  0  0  0  0  0
    6.7066    0.1479   -0.5168 H   0  0  0  0  0  0  0  0  0  0  0  0
    4.7647   -0.7954   -1.7365 H   0  0  0  0  0  0  0  0  0  0  0  0
    4.5284   -1.9889   -0.4373 H   0  0  0  0  0  0  0  0  0  0  0  0
    2.4960    1.2408    1.6786 H   0  0  0  0  0  0  0  0  0  0  0  0
    2.1874    3.2554    0.5750 H   0  0  0  0  0  0  0  0  0  0  0  0
    2.5735    2.3938   -0.9431 H   0  0  0  0  0  0  0  0  0  0  0  0
   -0.1291    3.1917    0.1347 H   0  0  0  0  0  0  0  0  0  0  0  0
    0.3903    2.9111   -1.5515 H   0  0  0  0  0  0  0  0  0  0  0  0
    0.5180    0.5352   -1.2563 H   0  0  0  0  0  0  0  0  0  0  0  0
    0.9485   -1.4011    0.4311 H   0  0  0  0  0  0  0  0  0  0  0  0
    0.6509   -1.0873    2.1472 H   0  0  0  0  0  0  0  0  0  0  0  0
   -1.2187   -1.9643    0.1533 H   0  0  0  0  0  0  0  0  0  0  0  0
   -1.5133   -1.6603    1.8694 H   0  0  0  0  0  0  0  0  0  0  0  0
   -2.1441    0.6232    1.4466 H   0  0  0  0  0  0  0  0  0  0  0  0
   -1.6028    0.1528   -1.4999 H   0  0  0  0  0  0  0  0  0  0  0  0
   -2.5848    2.4656    0.1768 H   0  0  0  0  0  0  0  0  0  0  0  0
   -1.9180    2.7043   -1.4633 H   0  0  0  0  0  0  0  0  0  0  0  0
   -4.4462    2.2654   -1.3311 H   0  0  0  0  0  0  0  0  0  0  0  0
   -3.5218    1.2270   -2.4370 H   0  0  0  0  0  0  0  0  0  0  0  0
   -3.3693   -2.1191    1.5843 H   0  0  0  0  0  0  0  0  0  0  0  0
   -5.6589   -2.8475    1.0983 H   0  0  0  0  0  0  0  0  0  0  0  0
   -6.0899    0.3906   -1.6506 H   0  0  0  0  0  0  0  0  0  0  0  0
   -7.9609   -1.2694   -0.0109 H   0  0  0  0  0  0  0  0  0  0  0  0
   -1.0604    1.4978    2.0416 H   0  0  0  0  0  0  0  0  0  0  0  0
    0.3546    1.0296    3.0147 H   0  0  0  0  0  0  0  0  0  0  0  0
    0.4133    2.4954    2.0066 H   0  0  0  0  0  0  0  0  0  0  0  0
  1  2  1  0  0  0  0
  2  3  1  0  0  0  0
  3  4  1  0  0  0  0
  4  5  1  0  0  0  0
  5  6  2  0  0  0  0
  5  7  1  0  0  0  0
  7  8  1  0  0  0  0
  8  9  1  0  0  0  0
  9 10  1  0  0  0  0
 10 11  1  0  0  0  0
 11 12  1  0  0  0  0
  8 12  1  0  0  0  0
 12 13  1  0  0  0  0
 13 14  1  0  0  0  0
 14 15  1  0  0  0  0
 15 16  1  0  0  0  0
 11 16  1  0  0  0  0
 16 17  1  0  0  0  0
 17 18  1  0  0  0  0
 18 19  1  0  0  0  0
 19 20  2  0  0  0  0
 15 20  1  0  0  0  0
 20 21  1  0  0  0  0
 21 22  2  0  0  0  0
 22 23  1  0  0  0  0
 23 24  2  0  0  0  0
 19 24  1  0  0  0  0
 23 25  1  0  0  0  0
 12 26  1  0  0  0  0
  1 27  1  0  0  0  0
  1 28  1  0  0  0  0
  1 29  1  0  0  0  0
  2 30  1  0  0  0  0
  2 31  1  0  0  0  0
  3 32  1  0  0  0  0
  3 33  1  0  0  0  0
  4 34  1  0  0  0  0
  4 35  1  0  0  0  0
  8 36  1  0  0  0  0
  9 37  1  0  0  0  0
  9 38  1  0  0  0  0
 10 39  1  0  0  0  0
 10 40  1  0  0  0  0
 11 41  1  0  0  0  0
 13 42  1  0  0  0  0
 13 43  1  0  0  0  0
 14 44  1  0  0  0  0
 14 45  1  0  0  0  0
 15 46  1  0  0  0  0
 16 47  1  0  0  0  0
 17 48  1  0  0  0  0
 17 49  1  0  0  0  0
 18 50  1  0  0  0  0
 18 51  1  0  0  0  0
 21 52  1  0  0  0  0
 22 53  1  0  0  0  0
 24 54  1  0  0  0  0
 25 55  1  0  0  0  0
 26 56  1  0  0  0  0
 26 57  1  0  0  0  0
 26 58  1  0  0  0  0
M  END
$$$$
