C16H14O4
APtclcactv06281817393D 0   0.00000     0.00000
 
 34 37  0  0  0  0  0  0  0  0999 V2000
    5.9494    1.3091   -0.5801 C   0  0  0  0  0  0  0  0  0  0  0  0
    5.2657    0.0614   -0.4465 O   0  0  0  0  0  0  0  0  0  0  0  0
    3.9417    0.1126   -0.1446 C   0  0  0  0  0  0  0  0  0  0  0  0
    3.2227   -1.0630   -0.0018 C   0  0  0  0  0  0  0  0  0  0  0  0
    1.8717   -1.0205    0.3056 C   0  0  0  0  0  0  0  0  0  0  0  0
    1.2550    0.2314    0.4497 C   0  0  0  0  0  0  0  0  0  0  0  0
    1.9679    1.3932    0.3174 C   0  0  0  0  0  0  0  0  0  0  0  0
    3.3203    1.3421    0.0241 C   0  0  0  0  0  0  0  0  0  0  0  0
   -0.2110    0.1715    0.7253 C   0  0  0  0  0  0  0  0  0  0  0  0
   -0.7199   -0.9115   -0.2890 C   0  0  0  0  0  0  0  0  0  0  0  0
   -0.2371   -2.2439    0.2270 C   0  0  0  0  0  0  0  0  0  0  0  0
    1.1697   -2.1645    0.4892 O   0  0  0  0  0  0  0  0  0  0  0  0
   -2.1696   -0.6006   -0.2958 C   0  0  0  0  0  0  0  0  0  0  0  0
   -2.2629    0.7543    0.0907 C   0  0  0  0  0  0  0  0  0  0  0  0
   -1.0293    1.2732    0.3537 O   0  0  0  0  0  0  0  0  0  0  0  0
   -3.5020    1.3779    0.1700 C   0  0  0  0  0  0  0  0  0  0  0  0
   -4.6246    0.6140   -0.1335 C   0  0  0  0  0  0  0  0  0  0  0  0
   -4.5214   -0.7173   -0.5012 C   0  0  0  0  0  0  0  0  0  0  0  0
   -3.2879   -1.3495   -0.5892 C   0  0  0  0  0  0  0  0  0  0  0  0
   -5.8542    1.1889   -0.0671 O   0  0  0  0  0  0  0  0  0  0  0  0
    6.9964    1.1257   -0.8213 H   0  0  0  0  0  0  0  0  0  0  0  0
    5.4894    1.8919   -1.3780 H   0  0  0  0  0  0  0  0  0  0  0  0
    5.8839    1.8614    0.3574 H   0  0  0  0  0  0  0  0  0  0  0  0
    3.7160   -2.0151   -0.1307 H   0  0  0  0  0  0  0  0  0  0  0  0
    1.4774    2.3468    0.4457 H   0  0  0  0  0  0  0  0  0  0  0  0
    3.8872    2.2553   -0.0811 H   0  0  0  0  0  0  0  0  0  0  0  0
   -0.3997   -0.1335    1.7546 H   0  0  0  0  0  0  0  0  0  0  0  0
   -0.2958   -0.7220   -1.2750 H   0  0  0  0  0  0  0  0  0  0  0  0
   -0.7658   -2.4915    1.1474 H   0  0  0  0  0  0  0  0  0  0  0  0
   -0.4253   -3.0142   -0.5210 H   0  0  0  0  0  0  0  0  0  0  0  0
   -3.5904    2.4155    0.4564 H   0  0  0  0  0  0  0  0  0  0  0  0
   -5.4187   -1.2753   -0.7242 H   0  0  0  0  0  0  0  0  0  0  0  0
   -3.2086   -2.3874   -0.8769 H   0  0  0  0  0  0  0  0  0  0  0  0
   -6.1439    1.5949   -0.8955 H   0  0  0  0  0  0  0  0  0  0  0  0
  1  2  1  0  0  0  0
  2  3  1  0  0  0  0
  3  4  2  0  0  0  0
  4  5  1  0  0  0  0
  5  6  2  0  0  0  0
  6  7  1  0  0  0  0
  7  8  2  0  0  0  0
  3  8  1  0  0  0  0
  6  9  1  0  0  0  0
  9 10  1  0  0  0  0
 10 11  1  0  0  0  0
 11 12  1  0  0  0  0
  5 12  1  0  0  0  0
 10 13  1  0  0  0  0
 13 14  2  0  0  0  0
 14 15  1  0  0  0  0
  9 15  1  0  0  0  0
 14 16  1  0  0  0  0
 16 17  2  0  0  0  0
 17 18  1  0  0  0  0
 18 19  2  0  0  0  0
 13 19  1  0  0  0  0
 17 20  1  0  0  0  0
  1 21  1  0  0  0  0
  1 22  1  0  0  0  0
  1 23  1  0  0  0  0
  4 24  1  0  0  0  0
  7 25  1  0  0  0  0
  8 26  1  0  0  0  0
  9 27  1  0  0  0  0
 10 28  1  0  0  0  0
 11 29  1  0  0  0  0
 11 30  1  0  0  0  0
 16 31  1  0  0  0  0
 18 32  1  0  0  0  0
 19 33  1  0  0  0  0
 20 34  1  0  0  0  0
M  END
$$$$
