C4H7
APtclcactv06211806393D 0   0.00000     0.00000
 
 11 11  0  0  0  0  0  0  0  0999 V2000
   -0.4836    0.9142    0.1880 C   0  0  0  0  0  0  0  0  0  0  0  0
   -0.9537   -0.5059   -0.1591 C   0  0  0  0  0  0  0  0  0  0  0  0
    0.4953   -0.9964    0.1766 C   0  4  0  0  0  0  0  0  0  0  0  0
    1.5984   -1.2746    0.4049 H   0  0  0  0  0  0  0  0  0  0  0  0
    0.9366    0.4625   -0.1828 C   0  0  0  0  0  0  0  0  0  0  0  0
   -0.8829    1.6773   -0.4768 H   0  0  0  0  0  0  0  0  0  0  0  0
   -0.5979    1.1631    1.2410 H   0  0  0  0  0  0  0  0  0  0  0  0
   -1.7091   -0.8912    0.5225 H   0  0  0  0  0  0  0  0  0  0  0  0
   -1.2200   -0.6303   -1.2066 H   0  0  0  0  0  0  0  0  0  0  0  0
    1.1721    0.5955   -1.2367 H   0  0  0  0  0  0  0  0  0  0  0  0
    1.7038    0.8576    0.4797 H   0  0  0  0  0  0  0  0  0  0  0  0
  1  2  1  0  0  0  0
  2  3  1  0  0  0  0
  3  4  1  0  0  0  0
  3  5  1  0  0  0  0
  1  5  1  0  0  0  0
  1  6  1  0  0  0  0
  1  7  1  0  0  0  0
  2  8  1  0  0  0  0
  2  9  1  0  0  0  0
  5 10  1  0  0  0  0
  5 11  1  0  0  0  0
M  RAD  1   3   2
M  END
$$$$
