C15H30O2
APtclcactv06211806063D 0   0.00000     0.00000
 
 47 46  0  0  0  0  0  0  0  0999 V2000
    9.8931   -0.5018   -0.0000 C   0  0  0  0  0  0  0  0  0  0  0  0
    8.6602    0.4043    0.0000 C   0  0  0  0  0  0  0  0  0  0  0  0
    7.3950   -0.4560   -0.0000 C   0  0  0  0  0  0  0  0  0  0  0  0
    6.1622    0.4501    0.0000 C   0  0  0  0  0  0  0  0  0  0  0  0
    4.8969   -0.4102   -0.0000 C   0  0  0  0  0  0  0  0  0  0  0  0
    3.6641    0.4959    0.0000 C   0  0  0  0  0  0  0  0  0  0  0  0
    2.3989   -0.3644   -0.0000 C   0  0  0  0  0  0  0  0  0  0  0  0
    1.1660    0.5417    0.0000 C   0  0  0  0  0  0  0  0  0  0  0  0
   -0.0992   -0.3186   -0.0000 C   0  0  0  0  0  0  0  0  0  0  0  0
   -1.3320    0.5875   -0.0000 C   0  0  0  0  0  0  0  0  0  0  0  0
   -2.5972   -0.2728   -0.0000 C   0  0  0  0  0  0  0  0  0  0  0  0
   -3.8301    0.6332   -0.0000 C   0  0  0  0  0  0  0  0  0  0  0  0
   -5.0953   -0.2271   -0.0000 C   0  0  0  0  0  0  0  0  0  0  0  0
   -6.3281    0.6790   -0.0000 C   0  0  0  0  0  0  0  0  0  0  0  0
   -7.5743   -0.1683    0.0000 C   0  0  0  0  0  0  0  0  0  0  0  0
   -7.4855   -1.3733    0.0000 O   0  0  0  0  0  0  0  0  0  0  0  0
   -8.7830    0.4156   -0.0000 O   0  0  0  0  0  0  0  0  0  0  0  0
   10.7944    0.1111    0.0000 H   0  0  0  0  0  0  0  0  0  0  0  0
    9.8815   -1.1310    0.8900 H   0  0  0  0  0  0  0  0  0  0  0  0
    9.8815   -1.1310   -0.8900 H   0  0  0  0  0  0  0  0  0  0  0  0
    8.6718    1.0335    0.8900 H   0  0  0  0  0  0  0  0  0  0  0  0
    8.6718    1.0335   -0.8900 H   0  0  0  0  0  0  0  0  0  0  0  0
    7.3835   -1.0852   -0.8900 H   0  0  0  0  0  0  0  0  0  0  0  0
    7.3835   -1.0852    0.8900 H   0  0  0  0  0  0  0  0  0  0  0  0
    6.1737    1.0793    0.8900 H   0  0  0  0  0  0  0  0  0  0  0  0
    6.1737    1.0793   -0.8900 H   0  0  0  0  0  0  0  0  0  0  0  0
    4.8854   -1.0394   -0.8900 H   0  0  0  0  0  0  0  0  0  0  0  0
    4.8854   -1.0394    0.8900 H   0  0  0  0  0  0  0  0  0  0  0  0
    3.6756    1.1251    0.8900 H   0  0  0  0  0  0  0  0  0  0  0  0
    3.6756    1.1251   -0.8900 H   0  0  0  0  0  0  0  0  0  0  0  0
    2.3874   -0.9936   -0.8900 H   0  0  0  0  0  0  0  0  0  0  0  0
    2.3874   -0.9936    0.8900 H   0  0  0  0  0  0  0  0  0  0  0  0
    1.1776    1.1709    0.8900 H   0  0  0  0  0  0  0  0  0  0  0  0
    1.1776    1.1709   -0.8900 H   0  0  0  0  0  0  0  0  0  0  0  0
   -0.1107   -0.9478   -0.8900 H   0  0  0  0  0  0  0  0  0  0  0  0
   -0.1107   -0.9478    0.8900 H   0  0  0  0  0  0  0  0  0  0  0  0
   -1.3205    1.2167    0.8900 H   0  0  0  0  0  0  0  0  0  0  0  0
   -1.3205    1.2167   -0.8900 H   0  0  0  0  0  0  0  0  0  0  0  0
   -2.6088   -0.9020   -0.8900 H   0  0  0  0  0  0  0  0  0  0  0  0
   -2.6088   -0.9020    0.8900 H   0  0  0  0  0  0  0  0  0  0  0  0
   -3.8185    1.2625    0.8900 H   0  0  0  0  0  0  0  0  0  0  0  0
   -3.8185    1.2625   -0.8900 H   0  0  0  0  0  0  0  0  0  0  0  0
   -5.1068   -0.8563   -0.8900 H   0  0  0  0  0  0  0  0  0  0  0  0
   -5.1068   -0.8563    0.8900 H   0  0  0  0  0  0  0  0  0  0  0  0
   -6.3166    1.3082    0.8900 H   0  0  0  0  0  0  0  0  0  0  0  0
   -6.3166    1.3082   -0.8900 H   0  0  0  0  0  0  0  0  0  0  0  0
   -9.5531   -0.1693    0.0000 H   0  0  0  0  0  0  0  0  0  0  0  0
  1  2  1  0  0  0  0
  2  3  1  0  0  0  0
  3  4  1  0  0  0  0
  4  5  1  0  0  0  0
  5  6  1  0  0  0  0
  6  7  1  0  0  0  0
  7  8  1  0  0  0  0
  8  9  1  0  0  0  0
  9 10  1  0  0  0  0
 10 11  1  0  0  0  0
 11 12  1  0  0  0  0
 12 13  1  0  0  0  0
 13 14  1  0  0  0  0
 14 15  1  0  0  0  0
 15 16  2  0  0  0  0
 15 17  1  0  0  0  0
  1 18  1  0  0  0  0
  1 19  1  0  0  0  0
  1 20  1  0  0  0  0
  2 21  1  0  0  0  0
  2 22  1  0  0  0  0
  3 23  1  0  0  0  0
  3 24  1  0  0  0  0
  4 25  1  0  0  0  0
  4 26  1  0  0  0  0
  5 27  1  0  0  0  0
  5 28  1  0  0  0  0
  6 29  1  0  0  0  0
  6 30  1  0  0  0  0
  7 31  1  0  0  0  0
  7 32  1  0  0  0  0
  8 33  1  0  0  0  0
  8 34  1  0  0  0  0
  9 35  1  0  0  0  0
  9 36  1  0  0  0  0
 10 37  1  0  0  0  0
 10 38  1  0  0  0  0
 11 39  1  0  0  0  0
 11 40  1  0  0  0  0
 12 41  1  0  0  0  0
 12 42  1  0  0  0  0
 13 43  1  0  0  0  0
 13 44  1  0  0  0  0
 14 45  1  0  0  0  0
 14 46  1  0  0  0  0
 17 47  1  0  0  0  0
M  END
$$$$
