C27H30O16
APtclcactv06281817393D 0   0.00000     0.00000
 
 73 77  0  0  0  0  0  0  0  0999 V2000
   -5.9706   -0.3944   -1.4916 C   0  0  0  0  0  0  0  0  0  0  0  0
   -7.3305   -0.3153   -1.2826 C   0  0  0  0  0  0  0  0  0  0  0  0
   -7.8506   -0.4796   -0.0061 C   0  0  0  0  0  0  0  0  0  0  0  0
   -6.9998   -0.7254    1.0703 C   0  0  0  0  0  0  0  0  0  0  0  0
   -5.6355   -0.8060    0.8683 C   0  0  0  0  0  0  0  0  0  0  0  0
   -5.1117   -0.6405   -0.4169 C   0  0  0  0  0  0  0  0  0  0  0  0
   -3.6559   -0.7260   -0.6386 C   0  0  0  0  0  0  0  0  0  0  0  0
   -3.1756   -0.5608   -1.9004 C   0  0  0  0  0  0  0  0  0  0  0  0
   -1.7819   -0.6394   -2.1324 C   0  0  0  0  0  0  0  0  0  0  0  0
   -1.3163   -0.4958   -3.2513 O   0  0  0  0  0  0  0  0  0  0  0  0
   -0.9152   -0.9007   -0.9707 C   0  0  0  0  0  0  0  0  0  0  0  0
    0.4752   -0.9941   -1.1072 C   0  0  0  0  0  0  0  0  0  0  0  0
    1.2541   -1.2402    0.0087 C   0  0  0  0  0  0  0  0  0  0  0  0
    0.6589   -1.3936    1.2558 C   0  0  0  0  0  0  0  0  0  0  0  0
   -0.7173   -1.3024    1.3981 C   0  0  0  0  0  0  0  0  0  0  0  0
   -1.5143   -1.0562    0.2915 C   0  0  0  0  0  0  0  0  0  0  0  0
   -2.8552   -0.9586    0.4136 O   0  0  0  0  0  0  0  0  0  0  0  0
    1.4327   -1.6354    2.3447 O   0  0  0  0  0  0  0  0  0  0  0  0
    2.7514   -1.3430   -0.1274 C   0  0  0  0  0  0  0  0  0  0  0  0
    3.4021   -0.0684    0.4163 C   0  0  0  0  0  0  0  0  0  0  0  0
    4.9253   -0.2053    0.3300 C   0  0  0  0  0  0  0  0  0  0  0  0
    5.3593   -1.4547    1.1026 C   0  0  0  0  0  0  0  0  0  0  0  0
    4.6329   -2.6758    0.5323 C   0  0  0  0  0  0  0  0  0  0  0  0
    3.2212   -2.4701    0.6149 O   0  0  0  0  0  0  0  0  0  0  0  0
    5.0353   -2.8715   -0.9307 C   0  0  0  0  0  0  0  0  0  0  0  0
    4.4796   -4.0946   -1.4181 O   0  0  0  0  0  0  0  0  0  0  0  0
    6.7707   -1.6330    0.9684 O   0  0  0  0  0  0  0  0  0  0  0  0
    5.3173   -0.3294   -1.0386 O   0  0  0  0  0  0  0  0  0  0  0  0
    2.9786    1.0532   -0.3613 O   0  0  0  0  0  0  0  0  0  0  0  0
    2.9282    2.2807    0.3685 C   0  0  0  0  0  0  0  0  0  0  0  0
    2.5859    3.4282   -0.5854 C   0  0  0  0  0  0  0  0  0  0  0  0
    1.1972    3.1864   -1.1848 C   0  0  0  0  0  0  0  0  0  0  0  0
    0.1790    3.0518   -0.0484 C   0  0  0  0  0  0  0  0  0  0  0  0
    0.6143    1.9189    0.8848 C   0  0  0  0  0  0  0  0  0  0  0  0
    1.9257    2.1912    1.3829 O   0  0  0  0  0  0  0  0  0  0  0  0
   -0.3654    1.8175    2.0556 C   0  0  0  0  0  0  0  0  0  0  0  0
   -0.0272    0.6881    2.8632 O   0  0  0  0  0  0  0  0  0  0  0  0
    0.1167    4.2770    0.6846 O   0  0  0  0  0  0  0  0  0  0  0  0
    0.8385    4.2891   -2.0200 O   0  0  0  0  0  0  0  0  0  0  0  0
    2.5874    4.6633    0.1333 O   0  0  0  0  0  0  0  0  0  0  0  0
    1.0541   -0.8445   -2.3255 O   0  0  0  0  0  0  0  0  0  0  0  0
   -7.5128   -0.8855    2.3197 O   0  0  0  0  0  0  0  0  0  0  0  0
   -9.1918   -0.4003    0.1946 O   0  0  0  0  0  0  0  0  0  0  0  0
   -5.5690   -0.2706   -2.4865 H   0  0  0  0  0  0  0  0  0  0  0  0
   -7.9931   -0.1247   -2.1138 H   0  0  0  0  0  0  0  0  0  0  0  0
   -4.9752   -0.9960    1.7015 H   0  0  0  0  0  0  0  0  0  0  0  0
   -3.8533   -0.3712   -2.7197 H   0  0  0  0  0  0  0  0  0  0  0  0
   -1.1684   -1.4232    2.3719 H   0  0  0  0  0  0  0  0  0  0  0  0
    1.7294   -0.8365    2.8016 H   0  0  0  0  0  0  0  0  0  0  0  0
    3.0133   -1.4649   -1.1785 H   0  0  0  0  0  0  0  0  0  0  0  0
    3.1077    0.0759    1.4559 H   0  0  0  0  0  0  0  0  0  0  0  0
    5.3959    0.6754    0.7670 H   0  0  0  0  0  0  0  0  0  0  0  0
    5.1044   -1.3384    2.1560 H   0  0  0  0  0  0  0  0  0  0  0  0
    4.9053   -3.5616    1.1061 H   0  0  0  0  0  0  0  0  0  0  0  0
    4.6593   -2.0391   -1.5255 H   0  0  0  0  0  0  0  0  0  0  0  0
    6.1220   -2.9106   -1.0066 H   0  0  0  0  0  0  0  0  0  0  0  0
    4.6946   -4.2838   -2.3417 H   0  0  0  0  0  0  0  0  0  0  0  0
    7.1154   -2.4075    1.4337 H   0  0  0  0  0  0  0  0  0  0  0  0
    6.2713   -0.4201   -1.1678 H   0  0  0  0  0  0  0  0  0  0  0  0
    3.8973    2.4690    0.8306 H   0  0  0  0  0  0  0  0  0  0  0  0
    3.3255    3.4701   -1.3850 H   0  0  0  0  0  0  0  0  0  0  0  0
    1.2090    2.2696   -1.7743 H   0  0  0  0  0  0  0  0  0  0  0  0
   -0.8027    2.8246   -0.4639 H   0  0  0  0  0  0  0  0  0  0  0  0
    0.6224    0.9779    0.3348 H   0  0  0  0  0  0  0  0  0  0  0  0
   -0.3079    2.7246    2.6572 H   0  0  0  0  0  0  0  0  0  0  0  0
   -1.3789    1.6994    1.6722 H   0  0  0  0  0  0  0  0  0  0  0  0
   -0.6079    0.5620    3.6260 H   0  0  0  0  0  0  0  0  0  0  0  0
   -0.1486    5.0401    0.1532 H   0  0  0  0  0  0  0  0  0  0  0  0
    1.4453    4.4371   -2.7582 H   0  0  0  0  0  0  0  0  0  0  0  0
    3.4359    4.8781    0.5444 H   0  0  0  0  0  0  0  0  0  0  0  0
    1.2941    0.0679   -2.5376 H   0  0  0  0  0  0  0  0  0  0  0  0
   -7.7336   -1.8008    2.5399 H   0  0  0  0  0  0  0  0  0  0  0  0
   -9.6527   -1.2463    0.1112 H   0  0  0  0  0  0  0  0  0  0  0  0
  1  2  2  0  0  0  0
  2  3  1  0  0  0  0
  3  4  2  0  0  0  0
  4  5  1  0  0  0  0
  5  6  2  0  0  0  0
  1  6  1  0  0  0  0
  6  7  1  0  0  0  0
  7  8  2  0  0  0  0
  8  9  1  0  0  0  0
  9 10  2  0  0  0  0
  9 11  1  0  0  0  0
 11 12  2  0  0  0  0
 12 13  1  0  0  0  0
 13 14  2  0  0  0  0
 14 15  1  0  0  0  0
 15 16  2  0  0  0  0
 11 16  1  0  0  0  0
 16 17  1  0  0  0  0
  7 17  1  0  0  0  0
 14 18  1  0  0  0  0
 13 19  1  0  0  0  0
 19 20  1  0  0  0  0
 20 21  1  0  0  0  0
 21 22  1  0  0  0  0
 22 23  1  0  0  0  0
 23 24  1  0  0  0  0
 19 24  1  0  0  0  0
 23 25  1  0  0  0  0
 25 26  1  0  0  0  0
 22 27  1  0  0  0  0
 21 28  1  0  0  0  0
 20 29  1  0  0  0  0
 29 30  1  0  0  0  0
 30 31  1  0  0  0  0
 31 32  1  0  0  0  0
 32 33  1  0  0  0  0
 33 34  1  0  0  0  0
 34 35  1  0  0  0  0
 30 35  1  0  0  0  0
 34 36  1  0  0  0  0
 36 37  1  0  0  0  0
 33 38  1  0  0  0  0
 32 39  1  0  0  0  0
 31 40  1  0  0  0  0
 12 41  1  0  0  0  0
  4 42  1  0  0  0  0
  3 43  1  0  0  0  0
  1 44  1  0  0  0  0
  2 45  1  0  0  0  0
  5 46  1  0  0  0  0
  8 47  1  0  0  0  0
 15 48  1  0  0  0  0
 18 49  1  0  0  0  0
 19 50  1  0  0  0  0
 20 51  1  0  0  0  0
 21 52  1  0  0  0  0
 22 53  1  0  0  0  0
 23 54  1  0  0  0  0
 25 55  1  0  0  0  0
 25 56  1  0  0  0  0
 26 57  1  0  0  0  0
 27 58  1  0  0  0  0
 28 59  1  0  0  0  0
 30 60  1  0  0  0  0
 31 61  1  0  0  0  0
 32 62  1  0  0  0  0
 33 63  1  0  0  0  0
 34 64  1  0  0  0  0
 36 65  1  0  0  0  0
 36 66  1  0  0  0  0
 37 67  1  0  0  0  0
 38 68  1  0  0  0  0
 39 69  1  0  0  0  0
 40 70  1  0  0  0  0
 41 71  1  0  0  0  0
 42 72  1  0  0  0  0
 43 73  1  0  0  0  0
M  END
$$$$
