C19H30O8
APtclcactv06281817393D 0   0.00000     0.00000
 
 57 58  0  0  0  0  0  0  0  0999 V2000
    3.7905    2.3499    1.0712 C   0  0  0  0  0  0  0  0  0  0  0  0
    3.9166    1.0255    0.3633 C   0  0  0  0  0  0  0  0  0  0  0  0
    5.0570    0.3555    0.4759 C   0  0  0  0  0  0  0  0  0  0  0  0
    5.2287   -0.9427   -0.1846 C   0  0  0  0  0  0  0  0  0  0  0  0
    6.1753   -1.6568    0.0724 O   0  0  0  0  0  0  0  0  0  0  0  0
    4.1838   -1.3620   -1.1982 C   0  0  0  0  0  0  0  0  0  0  0  0
    2.8115   -0.9868   -0.6208 C   0  0  0  0  0  0  0  0  0  0  0  0
    2.7453    0.5257   -0.4290 C   0  0  0  0  0  0  0  0  0  0  0  0
    1.4688    0.8771    0.2907 C   0  0  0  0  0  0  0  0  0  0  0  0
    0.5929    1.6682   -0.2777 C   0  0  0  0  0  0  0  0  0  0  0  0
   -0.6836    2.0197    0.4420 C   0  0  0  0  0  0  0  0  0  0  0  0
   -0.7578    3.5352    0.6383 C   0  0  0  0  0  0  0  0  0  0  0  0
   -1.8027    1.5845   -0.3328 O   0  0  0  0  0  0  0  0  0  0  0  0
   -2.9474    1.2319    0.4465 C   0  0  0  0  0  0  0  0  0  0  0  0
   -4.1173    0.9031   -0.4846 C   0  0  0  0  0  0  0  0  0  0  0  0
   -3.7496   -0.3094   -1.3453 C   0  0  0  0  0  0  0  0  0  0  0  0
   -3.3891   -1.4822   -0.4282 C   0  0  0  0  0  0  0  0  0  0  0  0
   -2.2473   -1.0613    0.5007 C   0  0  0  0  0  0  0  0  0  0  0  0
   -2.6438    0.0895    1.2495 O   0  0  0  0  0  0  0  0  0  0  0  0
   -1.9217   -2.2073    1.4606 C   0  0  0  0  0  0  0  0  0  0  0  0
   -0.7815   -1.8593    2.2486 O   0  0  0  0  0  0  0  0  0  0  0  0
   -4.5297   -1.8465    0.3518 O   0  0  0  0  0  0  0  0  0  0  0  0
   -4.8631   -0.6688   -2.1656 O   0  0  0  0  0  0  0  0  0  0  0  0
   -5.2772    0.6020    0.2939 O   0  0  0  0  0  0  0  0  0  0  0  0
    2.7502    1.1609   -1.7090 O   0  0  0  0  0  0  0  0  0  0  0  0
    1.7111   -1.4303   -1.5868 C   0  0  0  0  0  0  0  0  0  0  0  0
    2.6183   -1.6781    0.7304 C   0  0  0  0  0  0  0  0  0  0  0  0
    4.7173    2.5679    1.6020 H   0  0  0  0  0  0  0  0  0  0  0  0
    3.5968    3.1353    0.3407 H   0  0  0  0  0  0  0  0  0  0  0  0
    2.9663    2.3044    1.7830 H   0  0  0  0  0  0  0  0  0  0  0  0
    5.8659    0.7703    1.0588 H   0  0  0  0  0  0  0  0  0  0  0  0
    4.3471   -0.8356   -2.1385 H   0  0  0  0  0  0  0  0  0  0  0  0
    4.2360   -2.4386   -1.3609 H   0  0  0  0  0  0  0  0  0  0  0  0
    1.2761    0.4768    1.2751 H   0  0  0  0  0  0  0  0  0  0  0  0
    0.7856    2.0686   -1.2621 H   0  0  0  0  0  0  0  0  0  0  0  0
   -0.7006    1.5262    1.4137 H   0  0  0  0  0  0  0  0  0  0  0  0
   -1.6811    3.7894    1.1589 H   0  0  0  0  0  0  0  0  0  0  0  0
    0.0958    3.8672    1.2294 H   0  0  0  0  0  0  0  0  0  0  0  0
   -0.7408    4.0287   -0.3334 H   0  0  0  0  0  0  0  0  0  0  0  0
   -3.2196    2.0676    1.0911 H   0  0  0  0  0  0  0  0  0  0  0  0
   -4.3218    1.7584   -1.1287 H   0  0  0  0  0  0  0  0  0  0  0  0
   -2.8950   -0.0635   -1.9756 H   0  0  0  0  0  0  0  0  0  0  0  0
   -3.0728   -2.3328   -1.0319 H   0  0  0  0  0  0  0  0  0  0  0  0
   -1.3650   -0.8224   -0.0930 H   0  0  0  0  0  0  0  0  0  0  0  0
   -2.7747   -2.3865    2.1152 H   0  0  0  0  0  0  0  0  0  0  0  0
   -1.7065   -3.1101    0.8890 H   0  0  0  0  0  0  0  0  0  0  0  0
   -0.5175   -2.5414    2.8811 H   0  0  0  0  0  0  0  0  0  0  0  0
   -5.2943   -2.1200   -0.1733 H   0  0  0  0  0  0  0  0  0  0  0  0
   -5.1501    0.0313   -2.7678 H   0  0  0  0  0  0  0  0  0  0  0  0
   -5.5644    1.3254    0.8678 H   0  0  0  0  0  0  0  0  0  0  0  0
    2.7099    2.1263   -1.6692 H   0  0  0  0  0  0  0  0  0  0  0  0
    1.7631   -2.5102   -1.7257 H   0  0  0  0  0  0  0  0  0  0  0  0
    0.7375   -1.1633   -1.1757 H   0  0  0  0  0  0  0  0  0  0  0  0
    1.8487   -0.9334   -2.5471 H   0  0  0  0  0  0  0  0  0  0  0  0
    3.4010   -1.3573    1.4179 H   0  0  0  0  0  0  0  0  0  0  0  0
    1.6438   -1.4109    1.1392 H   0  0  0  0  0  0  0  0  0  0  0  0
    2.6724   -2.7585    0.5968 H   0  0  0  0  0  0  0  0  0  0  0  0
  1  2  1  0  0  0  0
  2  3  2  0  0  0  0
  3  4  1  0  0  0  0
  4  5  2  0  0  0  0
  4  6  1  0  0  0  0
  6  7  1  0  0  0  0
  7  8  1  0  0  0  0
  2  8  1  0  0  0  0
  8  9  1  0  0  0  0
  9 10  2  0  0  0  0
 10 11  1  0  0  0  0
 11 12  1  0  0  0  0
 11 13  1  0  0  0  0
 13 14  1  0  0  0  0
 14 15  1  0  0  0  0
 15 16  1  0  0  0  0
 16 17  1  0  0  0  0
 17 18  1  0  0  0  0
 18 19  1  0  0  0  0
 14 19  1  0  0  0  0
 18 20  1  0  0  0  0
 20 21  1  0  0  0  0
 17 22  1  0  0  0  0
 16 23  1  0  0  0  0
 15 24  1  0  0  0  0
  8 25  1  0  0  0  0
  7 26  1  0  0  0  0
  7 27  1  0  0  0  0
  1 28  1  0  0  0  0
  1 29  1  0  0  0  0
  1 30  1  0  0  0  0
  3 31  1  0  0  0  0
  6 32  1  0  0  0  0
  6 33  1  0  0  0  0
  9 34  1  0  0  0  0
 10 35  1  0  0  0  0
 11 36  1  0  0  0  0
 12 37  1  0  0  0  0
 12 38  1  0  0  0  0
 12 39  1  0  0  0  0
 14 40  1  0  0  0  0
 15 41  1  0  0  0  0
 16 42  1  0  0  0  0
 17 43  1  0  0  0  0
 18 44  1  0  0  0  0
 20 45  1  0  0  0  0
 20 46  1  0  0  0  0
 21 47  1  0  0  0  0
 22 48  1  0  0  0  0
 23 49  1  0  0  0  0
 24 50  1  0  0  0  0
 25 51  1  0  0  0  0
 26 52  1  0  0  0  0
 26 53  1  0  0  0  0
 26 54  1  0  0  0  0
 27 55  1  0  0  0  0
 27 56  1  0  0  0  0
 27 57  1  0  0  0  0
M  END
$$$$
