C21H21NO4
APtclcactv06281817393D 0   0.00000     0.00000
 
 47 50  0  0  0  0  0  0  0  0999 V2000
    1.3161    4.6125    0.1080 C   0  0  0  0  0  0  0  0  0  0  0  0
    1.8677    3.2562    0.0589 N   0  0  0  0  0  0  0  0  0  0  0  0
    3.2319    3.0871    0.0515 C   0  0  0  0  0  0  0  0  0  0  0  0
    3.7959    1.8725    0.0075 C   0  0  0  0  0  0  0  0  0  0  0  0
    2.9355    0.6809   -0.0344 C   0  0  0  0  0  0  0  0  0  0  0  0
    3.4637   -0.6016   -0.0803 C   0  0  0  0  0  0  0  0  0  0  0  0
    2.6183   -1.7049   -0.1190 C   0  0  0  0  0  0  0  0  0  0  0  0
    1.2394   -1.5453   -0.1125 C   0  0  0  0  0  0  0  0  0  0  0  0
    0.6850   -0.2621   -0.0660 C   0  0  0  0  0  0  0  0  0  0  0  0
   -0.7654   -0.0442   -0.0579 C   0  0  0  0  0  0  0  0  0  0  0  0
   -1.6608   -1.1145   -0.0964 C   0  0  0  0  0  0  0  0  0  0  0  0
   -3.0181   -0.8731   -0.0878 C   0  0  0  0  0  0  0  0  0  0  0  0
   -3.5045    0.4379   -0.0408 C   0  0  0  0  0  0  0  0  0  0  0  0
   -2.6375    1.5069   -0.0028 C   0  0  0  0  0  0  0  0  0  0  0  0
   -1.2516    1.2834   -0.0103 C   0  0  0  0  0  0  0  0  0  0  0  0
   -0.3489    2.3688    0.0278 C   0  0  0  0  0  0  0  0  0  0  0  0
    0.9987    2.1715    0.0265 C   0  0  0  0  0  0  0  0  0  0  0  0
    1.5331    0.8615   -0.0266 C   0  0  0  0  0  0  0  0  0  0  0  0
   -4.8461    0.6585   -0.0330 O   0  0  0  0  0  0  0  0  0  0  0  0
   -5.2796    2.0193    0.0158 C   0  0  0  0  0  0  0  0  0  0  0  0
   -3.8902   -1.9163   -0.1258 O   0  0  0  0  0  0  0  0  0  0  0  0
   -3.3290   -3.2296   -0.1733 C   0  0  0  0  0  0  0  0  0  0  0  0
    0.4277   -2.6364   -0.1517 O   0  0  0  0  0  0  0  0  0  0  0  0
    0.0413   -3.2029    1.1020 C   0  0  0  0  0  0  0  0  0  0  0  0
    3.1491   -2.9561   -0.1643 O   0  0  0  0  0  0  0  0  0  0  0  0
    4.5746   -3.0564   -0.1692 C   0  0  0  0  0  0  0  0  0  0  0  0
    2.1313    5.3356    0.1331 H   0  0  0  0  0  0  0  0  0  0  0  0
    0.7024    4.7873   -0.7757 H   0  0  0  0  0  0  0  0  0  0  0  0
    0.7041    4.7236    1.0031 H   0  0  0  0  0  0  0  0  0  0  0  0
    3.8681    3.9594    0.0818 H   0  0  0  0  0  0  0  0  0  0  0  0
    4.8710    1.7699    0.0024 H   0  0  0  0  0  0  0  0  0  0  0  0
    4.5344   -0.7431   -0.0864 H   0  0  0  0  0  0  0  0  0  0  0  0
   -1.2913   -2.1287   -0.1331 H   0  0  0  0  0  0  0  0  0  0  0  0
   -3.0229    2.5151    0.0326 H   0  0  0  0  0  0  0  0  0  0  0  0
   -0.7353    3.3767    0.0633 H   0  0  0  0  0  0  0  0  0  0  0  0
   -6.3691    2.0537    0.0169 H   0  0  0  0  0  0  0  0  0  0  0  0
   -4.9003    2.4891    0.9232 H   0  0  0  0  0  0  0  0  0  0  0  0
   -4.9001    2.5530   -0.8556 H   0  0  0  0  0  0  0  0  0  0  0  0
   -4.1314   -3.9669   -0.2002 H   0  0  0  0  0  0  0  0  0  0  0  0
   -2.7136   -3.3296   -1.0674 H   0  0  0  0  0  0  0  0  0  0  0  0
   -2.7139   -3.3941    0.7114 H   0  0  0  0  0  0  0  0  0  0  0  0
   -0.6034   -4.0644    0.9281 H   0  0  0  0  0  0  0  0  0  0  0  0
    0.9306   -3.5189    1.6474 H   0  0  0  0  0  0  0  0  0  0  0  0
   -0.4979   -2.4577    1.6867 H   0  0  0  0  0  0  0  0  0  0  0  0
    4.8648   -4.1063   -0.2071 H   0  0  0  0  0  0  0  0  0  0  0  0
    4.9723   -2.5378   -1.0416 H   0  0  0  0  0  0  0  0  0  0  0  0
    4.9739   -2.6014    0.7372 H   0  0  0  0  0  0  0  0  0  0  0  0
  1  2  1  0  0  0  0
  2  3  1  0  0  0  0
  3  4  2  0  0  0  0
  4  5  1  0  0  0  0
  5  6  2  0  0  0  0
  6  7  1  0  0  0  0
  7  8  2  0  0  0  0
  8  9  1  0  0  0  0
  9 10  2  0  0  0  0
 10 11  1  0  0  0  0
 11 12  2  0  0  0  0
 12 13  1  0  0  0  0
 13 14  2  0  0  0  0
 14 15  1  0  0  0  0
 10 15  1  0  0  0  0
 15 16  2  0  0  0  0
 16 17  1  0  0  0  0
  2 17  1  0  0  0  0
 17 18  2  0  0  0  0
  5 18  1  0  0  0  0
  9 18  1  0  0  0  0
 13 19  1  0  0  0  0
 19 20  1  0  0  0  0
 12 21  1  0  0  0  0
 21 22  1  0  0  0  0
  8 23  1  0  0  0  0
 23 24  1  0  0  0  0
  7 25  1  0  0  0  0
 25 26  1  0  0  0  0
  1 27  1  0  0  0  0
  1 28  1  0  0  0  0
  1 29  1  0  0  0  0
  3 30  1  0  0  0  0
  4 31  1  0  0  0  0
  6 32  1  0  0  0  0
 11 33  1  0  0  0  0
 14 34  1  0  0  0  0
 16 35  1  0  0  0  0
 20 36  1  0  0  0  0
 20 37  1  0  0  0  0
 20 38  1  0  0  0  0
 22 39  1  0  0  0  0
 22 40  1  0  0  0  0
 22 41  1  0  0  0  0
 24 42  1  0  0  0  0
 24 43  1  0  0  0  0
 24 44  1  0  0  0  0
 26 45  1  0  0  0  0
 26 46  1  0  0  0  0
 26 47  1  0  0  0  0
M  END
$$$$
