C10H20O7P2
APtclcactv06281817393D 0   0.00000     0.00000
 
 39 38  0  0  0  0  0  0  0  0999 V2000
   -2.4792   -2.7940    0.9001 C   0  0  0  0  0  0  0  0  0  0  0  0
   -3.5735   -2.3793   -0.0494 C   0  0  0  0  0  0  0  0  0  0  0  0
   -3.8248   -1.1085   -0.2444 C   0  0  0  0  0  0  0  0  0  0  0  0
   -2.9432   -0.0608    0.3852 C   0  0  0  0  0  0  0  0  0  0  0  0
   -2.4189    0.8830   -0.6988 C   0  0  0  0  0  0  0  0  0  0  0  0
   -1.5239    1.9467   -0.0596 C   0  0  0  0  0  0  0  0  0  0  0  0
   -1.1005    2.9627   -1.1224 C   0  0  0  0  0  0  0  0  0  0  0  0
   -2.2839    2.6513    1.0344 C   0  0  0  0  0  0  0  0  0  0  0  0
   -1.8926    2.5406    2.2797 C   0  0  0  0  0  0  0  0  0  0  0  0
   -0.3628    1.3230    0.4925 O   0  0  0  0  0  0  0  0  0  0  0  0
    0.8632    0.7980   -0.4094 P   0  0  0  0  0  0  0  0  0  0  0  0
    0.3519   -0.1230   -1.4490 O   0  0  0  0  0  0  0  0  0  0  0  0
    1.5877    2.0521   -1.1126 O   0  0  0  0  0  0  0  0  0  0  0  0
    1.9210    0.0208    0.5229 O   0  0  0  0  0  0  0  0  0  0  0  0
    3.1534   -0.9723    0.2281 P   0  0  0  0  0  0  0  0  0  0  0  0
    2.7894   -1.8987   -0.8672 O   0  0  0  0  0  0  0  0  0  0  0  0
    4.4443   -0.1123   -0.2031 O   0  0  0  0  0  0  0  0  0  0  0  0
    3.4910   -1.8177    1.5561 O   0  0  0  0  0  0  0  0  0  0  0  0
   -4.3788   -3.4265   -0.7746 C   0  0  0  0  0  0  0  0  0  0  0  0
   -2.6526   -2.3389    1.8753 H   0  0  0  0  0  0  0  0  0  0  0  0
   -2.4774   -3.8793    1.0008 H   0  0  0  0  0  0  0  0  0  0  0  0
   -1.5161   -2.4636    0.5111 H   0  0  0  0  0  0  0  0  0  0  0  0
   -4.6637   -0.8116   -0.8563 H   0  0  0  0  0  0  0  0  0  0  0  0
   -3.5194    0.5082    1.1148 H   0  0  0  0  0  0  0  0  0  0  0  0
   -2.1029   -0.5446    0.8832 H   0  0  0  0  0  0  0  0  0  0  0  0
   -1.8427    0.3140   -1.4284 H   0  0  0  0  0  0  0  0  0  0  0  0
   -3.2592    1.3668   -1.1969 H   0  0  0  0  0  0  0  0  0  0  0  0
   -1.9862    3.4384   -1.5435 H   0  0  0  0  0  0  0  0  0  0  0  0
   -0.4629    3.7204   -0.6670 H   0  0  0  0  0  0  0  0  0  0  0  0
   -0.5508    2.4530   -1.9137 H   0  0  0  0  0  0  0  0  0  0  0  0
   -3.1511    3.2475    0.7918 H   0  0  0  0  0  0  0  0  0  0  0  0
   -0.9800    2.0127    2.5141 H   0  0  0  0  0  0  0  0  0  0  0  0
   -2.4826    2.9773    3.0720 H   0  0  0  0  0  0  0  0  0  0  0  0
    2.0142    2.6587   -0.4919 H   0  0  0  0  0  0  0  0  0  0  0  0
    4.7397    0.5174    0.4686 H   0  0  0  0  0  0  0  0  0  0  0  0
    4.2252   -2.4382    1.4513 H   0  0  0  0  0  0  0  0  0  0  0  0
   -5.2496   -3.6941   -0.1762 H   0  0  0  0  0  0  0  0  0  0  0  0
   -4.7062   -3.0316   -1.7363 H   0  0  0  0  0  0  0  0  0  0  0  0
   -3.7629   -4.3113   -0.9359 H   0  0  0  0  0  0  0  0  0  0  0  0
  1  2  1  0  0  0  0
  2  3  2  0  0  0  0
  3  4  1  0  0  0  0
  4  5  1  0  0  0  0
  5  6  1  0  0  0  0
  6  7  1  0  0  0  0
  6  8  1  0  0  0  0
  8  9  2  0  0  0  0
  6 10  1  0  0  0  0
 10 11  1  0  0  0  0
 11 12  2  0  0  0  0
 11 13  1  0  0  0  0
 11 14  1  0  0  0  0
 14 15  1  0  0  0  0
 15 16  2  0  0  0  0
 15 17  1  0  0  0  0
 15 18  1  0  0  0  0
  2 19  1  0  0  0  0
  1 20  1  0  0  0  0
  1 21  1  0  0  0  0
  1 22  1  0  0  0  0
  3 23  1  0  0  0  0
  4 24  1  0  0  0  0
  4 25  1  0  0  0  0
  5 26  1  0  0  0  0
  5 27  1  0  0  0  0
  7 28  1  0  0  0  0
  7 29  1  0  0  0  0
  7 30  1  0  0  0  0
  8 31  1  0  0  0  0
  9 32  1  0  0  0  0
  9 33  1  0  0  0  0
 13 34  1  0  0  0  0
 17 35  1  0  0  0  0
 18 36  1  0  0  0  0
 19 37  1  0  0  0  0
 19 38  1  0  0  0  0
 19 39  1  0  0  0  0
M  END
$$$$
