C24H26O6
APtclcactv06281817393D 0   0.00000     0.00000
 
 56 59  0  0  0  0  0  0  0  0999 V2000
    5.3589   -2.7675   -0.0861 C   0  0  0  0  0  0  0  0  0  0  0  0
    4.0647   -2.7936   -0.8577 C   0  0  0  0  0  0  0  0  0  0  0  0
    3.0418   -2.0867   -0.4453 C   0  0  0  0  0  0  0  0  0  0  0  0
    3.1936   -1.1572    0.7312 C   0  0  0  0  0  0  0  0  0  0  0  0
    2.7435    0.2266    0.3393 C   0  0  0  0  0  0  0  0  0  0  0  0
    1.3914    0.5666    0.3941 C   0  0  0  0  0  0  0  0  0  0  0  0
    0.9626    1.8562    0.0391 C   0  0  0  0  0  0  0  0  0  0  0  0
    1.9038    2.7882   -0.3803 C   0  0  0  0  0  0  0  0  0  0  0  0
    3.2432    2.4460   -0.4380 C   0  0  0  0  0  0  0  0  0  0  0  0
    3.6668    1.1668   -0.0703 C   0  0  0  0  0  0  0  0  0  0  0  0
    4.9872    0.8443   -0.1276 O   0  0  0  0  0  0  0  0  0  0  0  0
    5.7654    1.0850    1.0465 C   0  0  0  0  0  0  0  0  0  0  0  0
    4.1549    3.3639   -0.8507 O   0  0  0  0  0  0  0  0  0  0  0  0
   -0.3403    2.1997    0.1065 O   0  0  0  0  0  0  0  0  0  0  0  0
   -1.3170    1.2741    0.1946 C   0  0  0  0  0  0  0  0  0  0  0  0
   -2.6310    1.6233   -0.0724 C   0  0  0  0  0  0  0  0  0  0  0  0
   -3.6490    0.6794    0.0235 C   0  0  0  0  0  0  0  0  0  0  0  0
   -3.3607   -0.6281    0.3872 C   0  0  0  0  0  0  0  0  0  0  0  0
   -4.4427   -1.6727    0.4948 C   0  0  0  0  0  0  0  0  0  0  0  0
   -5.8095   -0.9907    0.5930 C   0  0  0  0  0  0  0  0  0  0  0  0
   -5.8960    0.0730   -0.5090 C   0  0  0  0  0  0  0  0  0  0  0  0
   -4.9195    1.0798   -0.2415 O   0  0  0  0  0  0  0  0  0  0  0  0
   -5.6142   -0.5697   -1.8686 C   0  0  0  0  0  0  0  0  0  0  0  0
   -7.2925    0.6980   -0.5134 C   0  0  0  0  0  0  0  0  0  0  0  0
   -2.0525   -0.9991    0.6580 C   0  0  0  0  0  0  0  0  0  0  0  0
   -1.0267   -0.0533    0.5569 C   0  0  0  0  0  0  0  0  0  0  0  0
    0.3767   -0.4204    0.8175 C   0  0  0  0  0  0  0  0  0  0  0  0
    0.6814   -1.4732    1.3491 O   0  0  0  0  0  0  0  0  0  0  0  0
   -1.7682   -2.2752    1.0207 O   0  0  0  0  0  0  0  0  0  0  0  0
    3.9471   -3.6330   -2.1038 C   0  0  0  0  0  0  0  0  0  0  0  0
    5.1683   -3.0385    0.9523 H   0  0  0  0  0  0  0  0  0  0  0  0
    6.0580   -3.4793   -0.5250 H   0  0  0  0  0  0  0  0  0  0  0  0
    5.7864   -1.7657   -0.1276 H   0  0  0  0  0  0  0  0  0  0  0  0
    2.0898   -2.1700   -0.9484 H   0  0  0  0  0  0  0  0  0  0  0  0
    2.5831   -1.5169    1.5595 H   0  0  0  0  0  0  0  0  0  0  0  0
    4.2393   -1.1261    1.0371 H   0  0  0  0  0  0  0  0  0  0  0  0
    1.5891    3.7821   -0.6624 H   0  0  0  0  0  0  0  0  0  0  0  0
    6.7975    0.7846    0.8663 H   0  0  0  0  0  0  0  0  0  0  0  0
    5.7335    2.1465    1.2922 H   0  0  0  0  0  0  0  0  0  0  0  0
    5.3586    0.5076    1.8767 H   0  0  0  0  0  0  0  0  0  0  0  0
    4.5240    3.9005   -0.1359 H   0  0  0  0  0  0  0  0  0  0  0  0
   -2.8674    2.6379   -0.3574 H   0  0  0  0  0  0  0  0  0  0  0  0
   -4.4188   -2.3119   -0.3878 H   0  0  0  0  0  0  0  0  0  0  0  0
   -4.2747   -2.2785    1.3852 H   0  0  0  0  0  0  0  0  0  0  0  0
   -6.5994   -1.7288    0.4542 H   0  0  0  0  0  0  0  0  0  0  0  0
   -5.9150   -0.5178    1.5694 H   0  0  0  0  0  0  0  0  0  0  0  0
   -6.3503   -1.3503   -2.0610 H   0  0  0  0  0  0  0  0  0  0  0  0
   -5.6765    0.1888   -2.6489 H   0  0  0  0  0  0  0  0  0  0  0  0
   -4.6151   -1.0055   -1.8644 H   0  0  0  0  0  0  0  0  0  0  0  0
   -7.4856    1.1627    0.4535 H   0  0  0  0  0  0  0  0  0  0  0  0
   -7.3502    1.4530   -1.2974 H   0  0  0  0  0  0  0  0  0  0  0  0
   -8.0366   -0.0765   -0.6993 H   0  0  0  0  0  0  0  0  0  0  0  0
   -1.5713   -2.8609    0.2769 H   0  0  0  0  0  0  0  0  0  0  0  0
    3.5974   -4.6306   -1.8382 H   0  0  0  0  0  0  0  0  0  0  0  0
    3.2370   -3.1694   -2.7885 H   0  0  0  0  0  0  0  0  0  0  0  0
    4.9220   -3.7061   -2.5859 H   0  0  0  0  0  0  0  0  0  0  0  0
  1  2  1  0  0  0  0
  2  3  2  0  0  0  0
  3  4  1  0  0  0  0
  4  5  1  0  0  0  0
  5  6  2  0  0  0  0
  6  7  1  0  0  0  0
  7  8  2  0  0  0  0
  8  9  1  0  0  0  0
  9 10  2  0  0  0  0
  5 10  1  0  0  0  0
 10 11  1  0  0  0  0
 11 12  1  0  0  0  0
  9 13  1  0  0  0  0
  7 14  1  0  0  0  0
 14 15  1  0  0  0  0
 15 16  2  0  0  0  0
 16 17  1  0  0  0  0
 17 18  2  0  0  0  0
 18 19  1  0  0  0  0
 19 20  1  0  0  0  0
 20 21  1  0  0  0  0
 21 22  1  0  0  0  0
 17 22  1  0  0  0  0
 21 23  1  0  0  0  0
 21 24  1  0  0  0  0
 18 25  1  0  0  0  0
 25 26  2  0  0  0  0
 15 26  1  0  0  0  0
 26 27  1  0  0  0  0
  6 27  1  0  0  0  0
 27 28  2  0  0  0  0
 25 29  1  0  0  0  0
  2 30  1  0  0  0  0
  1 31  1  0  0  0  0
  1 32  1  0  0  0  0
  1 33  1  0  0  0  0
  3 34  1  0  0  0  0
  4 35  1  0  0  0  0
  4 36  1  0  0  0  0
  8 37  1  0  0  0  0
 12 38  1  0  0  0  0
 12 39  1  0  0  0  0
 12 40  1  0  0  0  0
 13 41  1  0  0  0  0
 16 42  1  0  0  0  0
 19 43  1  0  0  0  0
 19 44  1  0  0  0  0
 20 45  1  0  0  0  0
 20 46  1  0  0  0  0
 23 47  1  0  0  0  0
 23 48  1  0  0  0  0
 23 49  1  0  0  0  0
 24 50  1  0  0  0  0
 24 51  1  0  0  0  0
 24 52  1  0  0  0  0
 29 53  1  0  0  0  0
 30 54  1  0  0  0  0
 30 55  1  0  0  0  0
 30 56  1  0  0  0  0
M  END
$$$$
