C28H48O4
APtclcactv06281817393D 0   0.00000     0.00000
 
 80 83  0  0  0  0  0  0  0  0999 V2000
    7.2164   -0.6436    1.1858 C   0  0  0  0  0  0  0  0  0  0  0  0
    6.3050    0.5731    1.3590 C   0  0  0  0  0  0  0  0  0  0  0  0
    7.0415    1.6529    2.1543 C   0  0  0  0  0  0  0  0  0  0  0  0
    5.9286    1.1157    0.0045 C   0  0  0  0  0  0  0  0  0  0  0  0
    6.8635    1.4570   -0.8473 C   0  0  0  0  0  0  0  0  0  0  0  0
    4.4766    1.2658   -0.3703 C   0  0  0  0  0  0  0  0  0  0  0  0
    3.8188   -0.1145   -0.4253 C   0  0  0  0  0  0  0  0  0  0  0  0
    2.3645    0.0313   -0.8777 C   0  0  0  0  0  0  0  0  0  0  0  0
    2.3275    0.5549   -2.3148 C   0  0  0  0  0  0  0  0  0  0  0  0
    1.6746   -1.3249   -0.8136 C   0  0  0  0  0  0  0  0  0  0  0  0
    1.9025   -1.9810    0.5753 C   0  0  0  0  0  0  0  0  0  0  0  0
    0.5179   -1.9962    1.2859 C   0  0  0  0  0  0  0  0  0  0  0  0
   -0.2299   -0.8816    0.5387 C   0  0  0  0  0  0  0  0  0  0  0  0
    0.1433   -1.2021   -0.9244 C   0  0  0  0  0  0  0  0  0  0  0  0
   -0.3979   -0.1397   -1.8392 C   0  0  0  0  0  0  0  0  0  0  0  0
   -1.9007    0.0889   -1.6168 C   0  0  0  0  0  0  0  0  0  0  0  0
   -2.5007   -0.7911   -0.5401 C   0  0  0  0  0  0  0  0  0  0  0  0
   -1.7042   -0.7605    0.7595 C   0  0  0  0  0  0  0  0  0  0  0  0
   -2.2609   -1.8113    1.7197 C   0  0  0  0  0  0  0  0  0  0  0  0
   -3.7271   -1.4793    2.0223 C   0  0  0  0  0  0  0  0  0  0  0  0
   -4.1408   -0.2230    1.2616 C   0  0  0  0  0  0  0  0  0  0  0  0
   -3.9571   -0.3993   -0.2430 C   0  0  0  0  0  0  0  0  0  0  0  0
   -4.3166    0.9049   -0.9514 C   0  0  0  0  0  0  0  0  0  0  0  0
   -5.7611    1.3000   -0.6398 C   0  0  0  0  0  0  0  0  0  0  0  0
   -5.9640    1.4382    0.8683 C   0  0  0  0  0  0  0  0  0  0  0  0
   -5.5927    0.1361    1.5785 C   0  0  0  0  0  0  0  0  0  0  0  0
   -5.1535    2.5047    1.3662 O   0  0  0  0  0  0  0  0  0  0  0  0
   -6.0404    2.5614   -1.2625 O   0  0  0  0  0  0  0  0  0  0  0  0
   -4.8536   -1.5269   -0.7664 C   0  0  0  0  0  0  0  0  0  0  0  0
   -0.3420   -2.5902   -1.3645 C   0  0  0  0  0  0  0  0  0  0  0  0
    4.5252   -0.9422   -1.3517 O   0  0  0  0  0  0  0  0  0  0  0  0
    3.8134    2.0709    0.6064 O   0  0  0  0  0  0  0  0  0  0  0  0
    6.6662   -1.4416    0.6872 H   0  0  0  0  0  0  0  0  0  0  0  0
    8.0812   -0.3668    0.5828 H   0  0  0  0  0  0  0  0  0  0  0  0
    7.5510   -0.9891    2.1639 H   0  0  0  0  0  0  0  0  0  0  0  0
    5.4032    0.2781    1.8956 H   0  0  0  0  0  0  0  0  0  0  0  0
    7.8980    2.0063    1.5803 H   0  0  0  0  0  0  0  0  0  0  0  0
    6.3656    2.4857    2.3485 H   0  0  0  0  0  0  0  0  0  0  0  0
    7.3855    1.2359    3.1009 H   0  0  0  0  0  0  0  0  0  0  0  0
    6.5937    1.8459   -1.8181 H   0  0  0  0  0  0  0  0  0  0  0  0
    7.9040    1.3495   -0.5788 H   0  0  0  0  0  0  0  0  0  0  0  0
    4.4010    1.7435   -1.3471 H   0  0  0  0  0  0  0  0  0  0  0  0
    3.8475   -0.5704    0.5644 H   0  0  0  0  0  0  0  0  0  0  0  0
    1.8486    0.7327   -0.2220 H   0  0  0  0  0  0  0  0  0  0  0  0
    1.2939    0.7383   -2.6082 H   0  0  0  0  0  0  0  0  0  0  0  0
    2.8933    1.4844   -2.3775 H   0  0  0  0  0  0  0  0  0  0  0  0
    2.7690   -0.1849   -2.9826 H   0  0  0  0  0  0  0  0  0  0  0  0
    2.0420   -1.9832   -1.6004 H   0  0  0  0  0  0  0  0  0  0  0  0
    2.2688   -2.9982    0.4513 H   0  0  0  0  0  0  0  0  0  0  0  0
    2.6101   -1.3894    1.1533 H   0  0  0  0  0  0  0  0  0  0  0  0
    0.0299   -2.9568    1.1923 H   0  0  0  0  0  0  0  0  0  0  0  0
    0.6362   -1.7284    2.3393 H   0  0  0  0  0  0  0  0  0  0  0  0
    0.2388    0.0827    0.8250 H   0  0  0  0  0  0  0  0  0  0  0  0
    0.1158    0.8174   -1.6861 H   0  0  0  0  0  0  0  0  0  0  0  0
   -0.2316   -0.4358   -2.8859 H   0  0  0  0  0  0  0  0  0  0  0  0
   -2.0511    1.1451   -1.3541 H   0  0  0  0  0  0  0  0  0  0  0  0
   -2.4268   -0.0873   -2.5651 H   0  0  0  0  0  0  0  0  0  0  0  0
   -2.5733   -1.8229   -0.9032 H   0  0  0  0  0  0  0  0  0  0  0  0
   -1.8733    0.2294    1.2324 H   0  0  0  0  0  0  0  0  0  0  0  0
   -2.1984   -2.7973    1.2603 H   0  0  0  0  0  0  0  0  0  0  0  0
   -1.6870   -1.8006    2.6458 H   0  0  0  0  0  0  0  0  0  0  0  0
   -4.3596   -2.3203    1.7502 H   0  0  0  0  0  0  0  0  0  0  0  0
   -3.8322   -1.2969    3.0970 H   0  0  0  0  0  0  0  0  0  0  0  0
   -3.5139    0.6134    1.6000 H   0  0  0  0  0  0  0  0  0  0  0  0
   -3.6491    1.7004   -0.6146 H   0  0  0  0  0  0  0  0  0  0  0  0
   -4.2067    0.7767   -2.0300 H   0  0  0  0  0  0  0  0  0  0  0  0
   -6.4527    0.5597   -1.0379 H   0  0  0  0  0  0  0  0  0  0  0  0
   -7.0142    1.6673    1.0684 H   0  0  0  0  0  0  0  0  0  0  0  0
   -6.2650   -0.6608    1.2770 H   0  0  0  0  0  0  0  0  0  0  0  0
   -5.6915    0.2829    2.6601 H   0  0  0  0  0  0  0  0  0  0  0  0
   -5.3515    3.3657    0.9731 H   0  0  0  0  0  0  0  0  0  0  0  0
   -6.9397    2.8836   -1.1123 H   0  0  0  0  0  0  0  0  0  0  0  0
   -5.8970   -1.2854   -0.5636 H   0  0  0  0  0  0  0  0  0  0  0  0
   -4.7085   -1.6373   -1.8410 H   0  0  0  0  0  0  0  0  0  0  0  0
   -4.5929   -2.4599   -0.2668 H   0  0  0  0  0  0  0  0  0  0  0  0
   -1.4296   -2.5887   -1.4370 H   0  0  0  0  0  0  0  0  0  0  0  0
    0.0867   -2.8336   -2.3367 H   0  0  0  0  0  0  0  0  0  0  0  0
   -0.0277   -3.3340   -0.6323 H   0  0  0  0  0  0  0  0  0  0  0  0
    4.5405   -0.5972   -2.2549 H   0  0  0  0  0  0  0  0  0  0  0  0
    3.8996    1.7419    1.5116 H   0  0  0  0  0  0  0  0  0  0  0  0
  1  2  1  0  0  0  0
  2  3  1  0  0  0  0
  2  4  1  0  0  0  0
  4  5  2  0  0  0  0
  4  6  1  0  0  0  0
  6  7  1  0  0  0  0
  7  8  1  0  0  0  0
  8  9  1  0  0  0  0
  8 10  1  0  0  0  0
 10 11  1  0  0  0  0
 11 12  1  0  0  0  0
 12 13  1  0  0  0  0
 13 14  1  0  0  0  0
 10 14  1  0  0  0  0
 14 15  1  0  0  0  0
 15 16  1  0  0  0  0
 16 17  1  0  0  0  0
 17 18  1  0  0  0  0
 13 18  1  0  0  0  0
 18 19  1  0  0  0  0
 19 20  1  0  0  0  0
 20 21  1  0  0  0  0
 21 22  1  0  0  0  0
 17 22  1  0  0  0  0
 22 23  1  0  0  0  0
 23 24  1  0  0  0  0
 24 25  1  0  0  0  0
 25 26  1  0  0  0  0
 21 26  1  0  0  0  0
 25 27  1  0  0  0  0
 24 28  1  0  0  0  0
 22 29  1  0  0  0  0
 14 30  1  0  0  0  0
  7 31  1  0  0  0  0
  6 32  1  0  0  0  0
  1 33  1  0  0  0  0
  1 34  1  0  0  0  0
  1 35  1  0  0  0  0
  2 36  1  0  0  0  0
  3 37  1  0  0  0  0
  3 38  1  0  0  0  0
  3 39  1  0  0  0  0
  5 40  1  0  0  0  0
  5 41  1  0  0  0  0
  6 42  1  0  0  0  0
  7 43  1  0  0  0  0
  8 44  1  0  0  0  0
  9 45  1  0  0  0  0
  9 46  1  0  0  0  0
  9 47  1  0  0  0  0
 10 48  1  0  0  0  0
 11 49  1  0  0  0  0
 11 50  1  0  0  0  0
 12 51  1  0  0  0  0
 12 52  1  0  0  0  0
 13 53  1  0  0  0  0
 15 54  1  0  0  0  0
 15 55  1  0  0  0  0
 16 56  1  0  0  0  0
 16 57  1  0  0  0  0
 17 58  1  0  0  0  0
 18 59  1  0  0  0  0
 19 60  1  0  0  0  0
 19 61  1  0  0  0  0
 20 62  1  0  0  0  0
 20 63  1  0  0  0  0
 21 64  1  0  0  0  0
 23 65  1  0  0  0  0
 23 66  1  0  0  0  0
 24 67  1  0  0  0  0
 25 68  1  0  0  0  0
 26 69  1  0  0  0  0
 26 70  1  0  0  0  0
 27 71  1  0  0  0  0
 28 72  1  0  0  0  0
 29 73  1  0  0  0  0
 29 74  1  0  0  0  0
 29 75  1  0  0  0  0
 30 76  1  0  0  0  0
 30 77  1  0  0  0  0
 30 78  1  0  0  0  0
 31 79  1  0  0  0  0
 32 80  1  0  0  0  0
M  END
$$$$
