C21H26O6
APtclcactv06281817393D 0   0.00000     0.00000
 
 53 55  0  0  0  0  0  0  0  0999 V2000
   -1.8713    1.4185   -2.1356 C   0  0  0  0  0  0  0  0  0  0  0  0
   -1.1324    0.0852   -2.0046 C   0  0  0  0  0  0  0  0  0  0  0  0
    0.4051    0.3040   -1.9939 C   0  0  0  0  0  0  0  0  0  0  0  0
    0.6450    0.6327   -0.4988 C   0  0  0  0  0  0  0  0  0  0  0  0
   -0.2754   -0.2026    0.2212 O   0  0  0  0  0  0  0  0  0  0  0  0
   -1.3829   -0.5479   -0.6191 C   0  0  0  0  0  0  0  0  0  0  0  0
   -2.6595   -0.0038   -0.0316 C   0  0  0  0  0  0  0  0  0  0  0  0
   -3.8212   -0.7505   -0.0951 C   0  0  0  0  0  0  0  0  0  0  0  0
   -4.9958   -0.2516    0.4445 C   0  0  0  0  0  0  0  0  0  0  0  0
   -5.0027    1.0014    1.0498 C   0  0  0  0  0  0  0  0  0  0  0  0
   -3.8349    1.7447    1.1101 C   0  0  0  0  0  0  0  0  0  0  0  0
   -2.6651    1.2387    0.5748 C   0  0  0  0  0  0  0  0  0  0  0  0
   -6.1532    1.4955    1.5805 O   0  0  0  0  0  0  0  0  0  0  0  0
   -6.1396   -0.9847    0.3824 O   0  0  0  0  0  0  0  0  0  0  0  0
   -6.0579   -2.2616   -0.2539 C   0  0  0  0  0  0  0  0  0  0  0  0
    2.0636    0.3027   -0.1118 C   0  0  0  0  0  0  0  0  0  0  0  0
    3.0087    1.3085   -0.0343 C   0  0  0  0  0  0  0  0  0  0  0  0
    4.3151    1.0089    0.3210 C   0  0  0  0  0  0  0  0  0  0  0  0
    4.6737   -0.3045    0.5999 C   0  0  0  0  0  0  0  0  0  0  0  0
    3.7204   -1.3128    0.5213 C   0  0  0  0  0  0  0  0  0  0  0  0
    2.4149   -1.0041    0.1703 C   0  0  0  0  0  0  0  0  0  0  0  0
    4.0664   -2.5997    0.7928 O   0  0  0  0  0  0  0  0  0  0  0  0
    3.0352   -3.5838    0.6922 C   0  0  0  0  0  0  0  0  0  0  0  0
    5.9550   -0.6027    0.9485 O   0  0  0  0  0  0  0  0  0  0  0  0
    5.2444    1.9990    0.3960 O   0  0  0  0  0  0  0  0  0  0  0  0
    4.8051    3.3252    0.0956 C   0  0  0  0  0  0  0  0  0  0  0  0
    1.1464   -0.9700   -2.4042 C   0  0  0  0  0  0  0  0  0  0  0  0
   -1.5797    1.9056   -3.0662 H   0  0  0  0  0  0  0  0  0  0  0  0
   -2.9464    1.2391   -2.1408 H   0  0  0  0  0  0  0  0  0  0  0  0
   -1.6141    2.0607   -1.2933 H   0  0  0  0  0  0  0  0  0  0  0  0
   -1.4216   -0.5968   -2.8042 H   0  0  0  0  0  0  0  0  0  0  0  0
    0.6870    1.1426   -2.6306 H   0  0  0  0  0  0  0  0  0  0  0  0
    0.4337    1.6841   -0.3039 H   0  0  0  0  0  0  0  0  0  0  0  0
   -1.4508   -1.6316   -0.7145 H   0  0  0  0  0  0  0  0  0  0  0  0
   -3.8132   -1.7226   -0.5658 H   0  0  0  0  0  0  0  0  0  0  0  0
   -3.8375    2.7174    1.5793 H   0  0  0  0  0  0  0  0  0  0  0  0
   -1.7555    1.8190    0.6224 H   0  0  0  0  0  0  0  0  0  0  0  0
   -6.2886    1.2648    2.5098 H   0  0  0  0  0  0  0  0  0  0  0  0
   -5.7363   -2.1327   -1.2873 H   0  0  0  0  0  0  0  0  0  0  0  0
   -5.3382   -2.8860    0.2755 H   0  0  0  0  0  0  0  0  0  0  0  0
   -7.0371   -2.7402   -0.2352 H   0  0  0  0  0  0  0  0  0  0  0  0
    2.7292    2.3289   -0.2512 H   0  0  0  0  0  0  0  0  0  0  0  0
    1.6734   -1.7870    0.1094 H   0  0  0  0  0  0  0  0  0  0  0  0
    3.4443   -4.5648    0.9337 H   0  0  0  0  0  0  0  0  0  0  0  0
    2.2334   -3.3426    1.3901 H   0  0  0  0  0  0  0  0  0  0  0  0
    2.6412   -3.5946   -0.3241 H   0  0  0  0  0  0  0  0  0  0  0  0
    6.1230   -0.5634    1.9000 H   0  0  0  0  0  0  0  0  0  0  0  0
    5.6425    4.0162    0.1929 H   0  0  0  0  0  0  0  0  0  0  0  0
    4.4230    3.3590   -0.9247 H   0  0  0  0  0  0  0  0  0  0  0  0
    4.0148    3.6121    0.7893 H   0  0  0  0  0  0  0  0  0  0  0  0
    0.8426   -1.2590   -3.4104 H   0  0  0  0  0  0  0  0  0  0  0  0
    2.2207   -0.7866   -2.3876 H   0  0  0  0  0  0  0  0  0  0  0  0
    0.9038   -1.7720   -1.7071 H   0  0  0  0  0  0  0  0  0  0  0  0
  1  2  1  0  0  0  0
  2  3  1  0  0  0  0
  3  4  1  0  0  0  0
  4  5  1  0  0  0  0
  5  6  1  0  0  0  0
  2  6  1  0  0  0  0
  6  7  1  0  0  0  0
  7  8  2  0  0  0  0
  8  9  1  0  0  0  0
  9 10  2  0  0  0  0
 10 11  1  0  0  0  0
 11 12  2  0  0  0  0
  7 12  1  0  0  0  0
 10 13  1  0  0  0  0
  9 14  1  0  0  0  0
 14 15  1  0  0  0  0
  4 16  1  0  0  0  0
 16 17  2  0  0  0  0
 17 18  1  0  0  0  0
 18 19  2  0  0  0  0
 19 20  1  0  0  0  0
 20 21  2  0  0  0  0
 16 21  1  0  0  0  0
 20 22  1  0  0  0  0
 22 23  1  0  0  0  0
 19 24  1  0  0  0  0
 18 25  1  0  0  0  0
 25 26  1  0  0  0  0
  3 27  1  0  0  0  0
  1 28  1  0  0  0  0
  1 29  1  0  0  0  0
  1 30  1  0  0  0  0
  2 31  1  0  0  0  0
  3 32  1  0  0  0  0
  4 33  1  0  0  0  0
  6 34  1  0  0  0  0
  8 35  1  0  0  0  0
 11 36  1  0  0  0  0
 12 37  1  0  0  0  0
 13 38  1  0  0  0  0
 15 39  1  0  0  0  0
 15 40  1  0  0  0  0
 15 41  1  0  0  0  0
 17 42  1  0  0  0  0
 21 43  1  0  0  0  0
 23 44  1  0  0  0  0
 23 45  1  0  0  0  0
 23 46  1  0  0  0  0
 24 47  1  0  0  0  0
 26 48  1  0  0  0  0
 26 49  1  0  0  0  0
 26 50  1  0  0  0  0
 27 51  1  0  0  0  0
 27 52  1  0  0  0  0
 27 53  1  0  0  0  0
M  END
$$$$
