C28H22O6
APtclcactv06281817393D 0   0.00000     0.00000
 
 56 60  0  0  0  0  0  0  0  0999 V2000
    4.1088   -1.2928    0.6240 C   0  0  0  0  0  0  0  0  0  0  0  0
    5.0211   -2.3173    0.7533 C   0  0  0  0  0  0  0  0  0  0  0  0
    6.3579   -2.1032    0.4427 C   0  0  0  0  0  0  0  0  0  0  0  0
    6.7817   -0.8564    0.0006 C   0  0  0  0  0  0  0  0  0  0  0  0
    5.8767    0.1741   -0.1323 C   0  0  0  0  0  0  0  0  0  0  0  0
    4.5304   -0.0365    0.1791 C   0  0  0  0  0  0  0  0  0  0  0  0
    3.5586    1.0620    0.0382 C   0  0  0  0  0  0  0  0  0  0  0  0
    2.2659    0.8573    0.3379 C   0  0  0  0  0  0  0  0  0  0  0  0
    1.2938    1.9563    0.1970 C   0  0  0  0  0  0  0  0  0  0  0  0
    1.7144    3.2126   -0.2482 C   0  0  0  0  0  0  0  0  0  0  0  0
    0.7901    4.2359   -0.3762 C   0  0  0  0  0  0  0  0  0  0  0  0
   -0.5433    4.0191   -0.0694 C   0  0  0  0  0  0  0  0  0  0  0  0
   -0.9745    2.7693    0.3716 C   0  0  0  0  0  0  0  0  0  0  0  0
   -0.0489    1.7457    0.5015 C   0  0  0  0  0  0  0  0  0  0  0  0
   -0.7965    0.5305    1.0150 C   0  0  0  0  0  0  0  0  0  0  0  0
   -2.1244    1.1554    1.5043 C   0  0  0  0  0  0  0  0  0  0  0  0
   -2.2259    2.3475    0.7043 O   0  0  0  0  0  0  0  0  0  0  0  0
   -3.2827    0.2312    1.2300 C   0  0  0  0  0  0  0  0  0  0  0  0
   -3.6169   -0.7477    2.1475 C   0  0  0  0  0  0  0  0  0  0  0  0
   -4.6783   -1.5961    1.8984 C   0  0  0  0  0  0  0  0  0  0  0  0
   -5.4090   -1.4653    0.7264 C   0  0  0  0  0  0  0  0  0  0  0  0
   -5.0717   -0.4823   -0.1926 C   0  0  0  0  0  0  0  0  0  0  0  0
   -4.0130    0.3673    0.0638 C   0  0  0  0  0  0  0  0  0  0  0  0
   -6.4533   -2.2991    0.4788 O   0  0  0  0  0  0  0  0  0  0  0  0
   -1.0434   -0.4587   -0.0948 C   0  0  0  0  0  0  0  0  0  0  0  0
   -0.8112   -1.8043    0.1163 C   0  0  0  0  0  0  0  0  0  0  0  0
   -1.0374   -2.7171   -0.9042 C   0  0  0  0  0  0  0  0  0  0  0  0
   -1.4972   -2.2779   -2.1361 C   0  0  0  0  0  0  0  0  0  0  0  0
   -1.7299   -0.9273   -2.3453 C   0  0  0  0  0  0  0  0  0  0  0  0
   -1.5071   -0.0191   -1.3199 C   0  0  0  0  0  0  0  0  0  0  0  0
   -2.1802   -0.4937   -3.5519 O   0  0  0  0  0  0  0  0  0  0  0  0
   -0.8080   -4.0403   -0.6963 O   0  0  0  0  0  0  0  0  0  0  0  0
    1.1938    5.4607   -0.8051 O   0  0  0  0  0  0  0  0  0  0  0  0
    7.2538   -3.1162    0.5721 O   0  0  0  0  0  0  0  0  0  0  0  0
    3.0688   -1.4614    0.8618 H   0  0  0  0  0  0  0  0  0  0  0  0
    4.6963   -3.2883    1.0969 H   0  0  0  0  0  0  0  0  0  0  0  0
    7.8222   -0.6944   -0.2390 H   0  0  0  0  0  0  0  0  0  0  0  0
    6.2072    1.1433   -0.4757 H   0  0  0  0  0  0  0  0  0  0  0  0
    3.8861    2.0319   -0.3060 H   0  0  0  0  0  0  0  0  0  0  0  0
    1.9383   -0.1125    0.6821 H   0  0  0  0  0  0  0  0  0  0  0  0
    2.7528    3.3842   -0.4904 H   0  0  0  0  0  0  0  0  0  0  0  0
   -1.2545    4.8253   -0.1725 H   0  0  0  0  0  0  0  0  0  0  0  0
   -0.2591    0.0623    1.8398 H   0  0  0  0  0  0  0  0  0  0  0  0
   -2.0680    1.4017    2.5646 H   0  0  0  0  0  0  0  0  0  0  0  0
   -3.0475   -0.8493    3.0596 H   0  0  0  0  0  0  0  0  0  0  0  0
   -4.9387   -2.3608    2.6152 H   0  0  0  0  0  0  0  0  0  0  0  0
   -5.6391   -0.3785   -1.1057 H   0  0  0  0  0  0  0  0  0  0  0  0
   -3.7500    1.1327   -0.6513 H   0  0  0  0  0  0  0  0  0  0  0  0
   -7.3020   -1.9758    0.8110 H   0  0  0  0  0  0  0  0  0  0  0  0
   -0.4530   -2.1460    1.0762 H   0  0  0  0  0  0  0  0  0  0  0  0
   -1.6735   -2.9867   -2.9317 H   0  0  0  0  0  0  0  0  0  0  0  0
   -1.6882    1.0331   -1.4824 H   0  0  0  0  0  0  0  0  0  0  0  0
   -3.1440   -0.4693   -3.6264 H   0  0  0  0  0  0  0  0  0  0  0  0
   -1.5749   -4.5245   -0.3608 H   0  0  0  0  0  0  0  0  0  0  0  0
    1.1581    5.5728   -1.7650 H   0  0  0  0  0  0  0  0  0  0  0  0
    7.3582   -3.6532   -0.2253 H   0  0  0  0  0  0  0  0  0  0  0  0
  1  2  2  0  0  0  0
  2  3  1  0  0  0  0
  3  4  2  0  0  0  0
  4  5  1  0  0  0  0
  5  6  2  0  0  0  0
  1  6  1  0  0  0  0
  6  7  1  0  0  0  0
  7  8  2  0  0  0  0
  8  9  1  0  0  0  0
  9 10  2  0  0  0  0
 10 11  1  0  0  0  0
 11 12  2  0  0  0  0
 12 13  1  0  0  0  0
 13 14  2  0  0  0  0
  9 14  1  0  0  0  0
 14 15  1  0  0  0  0
 15 16  1  0  0  0  0
 16 17  1  0  0  0  0
 13 17  1  0  0  0  0
 16 18  1  0  0  0  0
 18 19  2  0  0  0  0
 19 20  1  0  0  0  0
 20 21  2  0  0  0  0
 21 22  1  0  0  0  0
 22 23  2  0  0  0  0
 18 23  1  0  0  0  0
 21 24  1  0  0  0  0
 15 25  1  0  0  0  0
 25 26  2  0  0  0  0
 26 27  1  0  0  0  0
 27 28  2  0  0  0  0
 28 29  1  0  0  0  0
 29 30  2  0  0  0  0
 25 30  1  0  0  0  0
 29 31  1  0  0  0  0
 27 32  1  0  0  0  0
 11 33  1  0  0  0  0
  3 34  1  0  0  0  0
  1 35  1  0  0  0  0
  2 36  1  0  0  0  0
  4 37  1  0  0  0  0
  5 38  1  0  0  0  0
  7 39  1  0  0  0  0
  8 40  1  0  0  0  0
 10 41  1  0  0  0  0
 12 42  1  0  0  0  0
 15 43  1  0  0  0  0
 16 44  1  0  0  0  0
 19 45  1  0  0  0  0
 20 46  1  0  0  0  0
 22 47  1  0  0  0  0
 23 48  1  0  0  0  0
 24 49  1  0  0  0  0
 26 50  1  0  0  0  0
 28 51  1  0  0  0  0
 30 52  1  0  0  0  0
 31 53  1  0  0  0  0
 32 54  1  0  0  0  0
 33 55  1  0  0  0  0
 34 56  1  0  0  0  0
M  END
$$$$
