C16H12O6
APtclcactv06281817393D 0   0.00000     0.00000
 
 34 36  0  0  0  0  0  0  0  0999 V2000
   -2.9851    2.5851    2.0299 C   0  0  0  0  0  0  0  0  0  0  0  0
   -2.2000    1.6038    1.3497 O   0  0  0  0  0  0  0  0  0  0  0  0
   -2.8540    0.7733    0.4986 C   0  0  0  0  0  0  0  0  0  0  0  0
   -4.2218    0.8977    0.3199 C   0  0  0  0  0  0  0  0  0  0  0  0
   -4.8906    0.0527   -0.5467 C   0  0  0  0  0  0  0  0  0  0  0  0
   -4.2037   -0.9243   -1.2431 C   0  0  0  0  0  0  0  0  0  0  0  0
   -2.8354   -1.0662   -1.0792 C   0  0  0  0  0  0  0  0  0  0  0  0
   -2.1463   -0.2105   -0.2076 C   0  0  0  0  0  0  0  0  0  0  0  0
   -0.6921   -0.3517   -0.0260 C   0  0  0  0  0  0  0  0  0  0  0  0
   -0.2172   -1.4442    0.6343 C   0  0  0  0  0  0  0  0  0  0  0  0
    1.1759   -1.5968    0.8177 C   0  0  0  0  0  0  0  0  0  0  0  0
    1.6360   -2.5633    1.4041 O   0  0  0  0  0  0  0  0  0  0  0  0
    2.0510   -0.5444    0.2732 C   0  0  0  0  0  0  0  0  0  0  0  0
    3.4428   -0.6145    0.4085 C   0  0  0  0  0  0  0  0  0  0  0  0
    4.2299    0.3938   -0.1172 C   0  0  0  0  0  0  0  0  0  0  0  0
    3.6416    1.4682   -0.7748 C   0  0  0  0  0  0  0  0  0  0  0  0
    2.2639    1.5438   -0.9123 C   0  0  0  0  0  0  0  0  0  0  0  0
    1.4588    0.5429   -0.3921 C   0  0  0  0  0  0  0  0  0  0  0  0
    0.1161    0.5987   -0.5223 O   0  0  0  0  0  0  0  0  0  0  0  0
    4.4233    2.4529   -1.2868 O   0  0  0  0  0  0  0  0  0  0  0  0
    4.0151   -1.6639    1.0511 O   0  0  0  0  0  0  0  0  0  0  0  0
   -2.1633   -2.0261   -1.7640 O   0  0  0  0  0  0  0  0  0  0  0  0
   -2.3413    3.1808    2.6769 H   0  0  0  0  0  0  0  0  0  0  0  0
   -3.4673    3.2348    1.2995 H   0  0  0  0  0  0  0  0  0  0  0  0
   -3.7457    2.0882    2.6322 H   0  0  0  0  0  0  0  0  0  0  0  0
   -4.7680    1.6572    0.8596 H   0  0  0  0  0  0  0  0  0  0  0  0
   -5.9572    0.1565   -0.6803 H   0  0  0  0  0  0  0  0  0  0  0  0
   -4.7357   -1.5796   -1.9169 H   0  0  0  0  0  0  0  0  0  0  0  0
   -0.9005   -2.1887    1.0154 H   0  0  0  0  0  0  0  0  0  0  0  0
    5.3042    0.3467   -0.0164 H   0  0  0  0  0  0  0  0  0  0  0  0
    1.8179    2.3834   -1.4248 H   0  0  0  0  0  0  0  0  0  0  0  0
    4.7024    2.2989   -2.1998 H   0  0  0  0  0  0  0  0  0  0  0  0
    4.2332   -2.4077    0.4729 H   0  0  0  0  0  0  0  0  0  0  0  0
   -1.8304   -1.7355   -2.6241 H   0  0  0  0  0  0  0  0  0  0  0  0
  1  2  1  0  0  0  0
  2  3  1  0  0  0  0
  3  4  2  0  0  0  0
  4  5  1  0  0  0  0
  5  6  2  0  0  0  0
  6  7  1  0  0  0  0
  7  8  2  0  0  0  0
  3  8  1  0  0  0  0
  8  9  1  0  0  0  0
  9 10  2  0  0  0  0
 10 11  1  0  0  0  0
 11 12  2  0  0  0  0
 11 13  1  0  0  0  0
 13 14  2  0  0  0  0
 14 15  1  0  0  0  0
 15 16  2  0  0  0  0
 16 17  1  0  0  0  0
 17 18  2  0  0  0  0
 13 18  1  0  0  0  0
 18 19  1  0  0  0  0
  9 19  1  0  0  0  0
 16 20  1  0  0  0  0
 14 21  1  0  0  0  0
  7 22  1  0  0  0  0
  1 23  1  0  0  0  0
  1 24  1  0  0  0  0
  1 25  1  0  0  0  0
  4 26  1  0  0  0  0
  5 27  1  0  0  0  0
  6 28  1  0  0  0  0
 10 29  1  0  0  0  0
 15 30  1  0  0  0  0
 17 31  1  0  0  0  0
 20 32  1  0  0  0  0
 21 33  1  0  0  0  0
 22 34  1  0  0  0  0
M  END
$$$$
