C18H16O7
APtclcactv06281817393D 0   0.00000     0.00000
 
 41 43  0  0  0  0  0  0  0  0999 V2000
   -3.1398    2.2541    2.4360 C   0  0  0  0  0  0  0  0  0  0  0  0
   -2.4598    1.3019    1.6157 O   0  0  0  0  0  0  0  0  0  0  0  0
   -3.1776    0.7220    0.6205 C   0  0  0  0  0  0  0  0  0  0  0  0
   -4.5077    1.0601    0.4351 C   0  0  0  0  0  0  0  0  0  0  0  0
   -5.2413    0.4707   -0.5783 C   0  0  0  0  0  0  0  0  0  0  0  0
   -4.6570   -0.4605   -1.4165 C   0  0  0  0  0  0  0  0  0  0  0  0
   -3.3277   -0.8129   -1.2490 C   0  0  0  0  0  0  0  0  0  0  0  0
   -2.5733   -0.2177   -0.2276 C   0  0  0  0  0  0  0  0  0  0  0  0
   -1.1596   -0.5841   -0.0405 C   0  0  0  0  0  0  0  0  0  0  0  0
   -0.8616   -1.8265    0.4319 C   0  0  0  0  0  0  0  0  0  0  0  0
    0.4898   -2.1960    0.6175 C   0  0  0  0  0  0  0  0  0  0  0  0
    0.7927   -3.3009    1.0386 O   0  0  0  0  0  0  0  0  0  0  0  0
    1.5189   -1.1963    0.2828 C   0  0  0  0  0  0  0  0  0  0  0  0
    1.1045    0.0573   -0.1980 C   0  0  0  0  0  0  0  0  0  0  0  0
   -0.2127    0.3170   -0.3471 O   0  0  0  0  0  0  0  0  0  0  0  0
    2.0589    1.0143   -0.5195 C   0  0  0  0  0  0  0  0  0  0  0  0
    3.4089    0.7270   -0.3644 C   0  0  0  0  0  0  0  0  0  0  0  0
    3.8182   -0.5135    0.1113 C   0  0  0  0  0  0  0  0  0  0  0  0
    2.8818   -1.4772    0.4364 C   0  0  0  0  0  0  0  0  0  0  0  0
    3.2815   -2.6889    0.9015 O   0  0  0  0  0  0  0  0  0  0  0  0
    4.3378    1.6666   -0.6808 O   0  0  0  0  0  0  0  0  0  0  0  0
    5.7096    1.3098   -0.4990 C   0  0  0  0  0  0  0  0  0  0  0  0
    1.6711    2.2331   -0.9868 O   0  0  0  0  0  0  0  0  0  0  0  0
    1.4432    3.2574   -0.0168 C   0  0  0  0  0  0  0  0  0  0  0  0
   -2.7566   -1.7276   -2.0729 O   0  0  0  0  0  0  0  0  0  0  0  0
   -3.4992    3.0761    1.8169 H   0  0  0  0  0  0  0  0  0  0  0  0
   -3.9854    1.7725    2.9271 H   0  0  0  0  0  0  0  0  0  0  0  0
   -2.4536    2.6402    3.1898 H   0  0  0  0  0  0  0  0  0  0  0  0
   -4.9739    1.7864    1.0844 H   0  0  0  0  0  0  0  0  0  0  0  0
   -6.2783    0.7395   -0.7155 H   0  0  0  0  0  0  0  0  0  0  0  0
   -5.2389   -0.9152   -2.2046 H   0  0  0  0  0  0  0  0  0  0  0  0
   -1.6527   -2.5243    0.6635 H   0  0  0  0  0  0  0  0  0  0  0  0
    4.8710   -0.7249    0.2275 H   0  0  0  0  0  0  0  0  0  0  0  0
    3.3678   -2.7320    1.8636 H   0  0  0  0  0  0  0  0  0  0  0  0
    5.8856    1.0650    0.5484 H   0  0  0  0  0  0  0  0  0  0  0  0
    5.9451    0.4446   -1.1189 H   0  0  0  0  0  0  0  0  0  0  0  0
    6.3443    2.1474   -0.7880 H   0  0  0  0  0  0  0  0  0  0  0  0
    1.1403    4.1748   -0.5214 H   0  0  0  0  0  0  0  0  0  0  0  0
    0.6552    2.9415    0.6669 H   0  0  0  0  0  0  0  0  0  0  0  0
    2.3604    3.4371    0.5441 H   0  0  0  0  0  0  0  0  0  0  0  0
   -2.3501   -1.3458   -2.8629 H   0  0  0  0  0  0  0  0  0  0  0  0
  1  2  1  0  0  0  0
  2  3  1  0  0  0  0
  3  4  2  0  0  0  0
  4  5  1  0  0  0  0
  5  6  2  0  0  0  0
  6  7  1  0  0  0  0
  7  8  2  0  0  0  0
  3  8  1  0  0  0  0
  8  9  1  0  0  0  0
  9 10  2  0  0  0  0
 10 11  1  0  0  0  0
 11 12  2  0  0  0  0
 11 13  1  0  0  0  0
 13 14  2  0  0  0  0
 14 15  1  0  0  0  0
  9 15  1  0  0  0  0
 14 16  1  0  0  0  0
 16 17  2  0  0  0  0
 17 18  1  0  0  0  0
 18 19  2  0  0  0  0
 13 19  1  0  0  0  0
 19 20  1  0  0  0  0
 17 21  1  0  0  0  0
 21 22  1  0  0  0  0
 16 23  1  0  0  0  0
 23 24  1  0  0  0  0
  7 25  1  0  0  0  0
  1 26  1  0  0  0  0
  1 27  1  0  0  0  0
  1 28  1  0  0  0  0
  4 29  1  0  0  0  0
  5 30  1  0  0  0  0
  6 31  1  0  0  0  0
 10 32  1  0  0  0  0
 18 33  1  0  0  0  0
 20 34  1  0  0  0  0
 22 35  1  0  0  0  0
 22 36  1  0  0  0  0
 22 37  1  0  0  0  0
 24 38  1  0  0  0  0
 24 39  1  0  0  0  0
 24 40  1  0  0  0  0
 25 41  1  0  0  0  0
M  END
$$$$
