C11H9N
APtclcactv06211806063D 0   0.00000     0.00000
 
 21 22  0  0  0  0  0  0  0  0999 V2000
   -3.5054    0.0000    0.0005 C   0  0  0  0  0  0  0  0  0  0  0  0
   -2.8166   -1.1313   -0.3984 C   0  0  0  0  0  0  0  0  0  0  0  0
   -1.4365   -1.1370   -0.4009 C   0  0  0  0  0  0  0  0  0  0  0  0
   -0.7368   -0.0001   -0.0007 C   0  0  0  0  0  0  0  0  0  0  0  0
   -1.4360    1.1368    0.4001 C   0  0  0  0  0  0  0  0  0  0  0  0
   -2.8161    1.1313    0.3987 C   0  0  0  0  0  0  0  0  0  0  0  0
    0.7466   -0.0004   -0.0009 C   0  0  0  0  0  0  0  0  0  0  0  0
    1.4375    1.1338   -0.4212 C   0  0  0  0  0  0  0  0  0  0  0  0
    2.8218    1.1188   -0.4154 C   0  0  0  0  0  0  0  0  0  0  0  0
    3.4699   -0.0314    0.0111 C   0  0  0  0  0  0  0  0  0  0  0  0
    2.7210   -1.1216    0.4151 C   0  0  0  0  0  0  0  0  0  0  0  0
    1.4044   -1.0790    0.4045 N   0  0  0  0  0  0  0  0  0  0  0  0
   -4.5854    0.0016   -0.0033 H   0  0  0  0  0  0  0  0  0  0  0  0
   -3.3598   -2.0119   -0.7080 H   0  0  0  0  0  0  0  0  0  0  0  0
   -0.8997   -2.0210   -0.7121 H   0  0  0  0  0  0  0  0  0  0  0  0
   -0.8988    2.0205    0.7115 H   0  0  0  0  0  0  0  0  0  0  0  0
   -3.3589    2.0118    0.7091 H   0  0  0  0  0  0  0  0  0  0  0  0
    0.9007    2.0123   -0.7474 H   0  0  0  0  0  0  0  0  0  0  0  0
    3.3846    1.9830   -0.7361 H   0  0  0  0  0  0  0  0  0  0  0  0
    4.5489   -0.0751    0.0271 H   0  0  0  0  0  0  0  0  0  0  0  0
    3.2223   -2.0186    0.7474 H   0  0  0  0  0  0  0  0  0  0  0  0
  1  2  2  0  0  0  0
  2  3  1  0  0  0  0
  3  4  2  0  0  0  0
  4  5  1  0  0  0  0
  5  6  2  0  0  0  0
  1  6  1  0  0  0  0
  4  7  1  0  0  0  0
  7  8  2  0  0  0  0
  8  9  1  0  0  0  0
  9 10  2  0  0  0  0
 10 11  1  0  0  0  0
 11 12  2  0  0  0  0
  7 12  1  0  0  0  0
  1 13  1  0  0  0  0
  2 14  1  0  0  0  0
  3 15  1  0  0  0  0
  5 16  1  0  0  0  0
  6 17  1  0  0  0  0
  8 18  1  0  0  0  0
  9 19  1  0  0  0  0
 10 20  1  0  0  0  0
 11 21  1  0  0  0  0
M  END
$$$$
