C30H50O
APtclcactv06281817403D 0   0.00000     0.00000
 
 81 84  0  0  0  0  0  0  0  0999 V2000
   -8.2290    0.3423   -0.0459 C   0  0  0  0  0  0  0  0  0  0  0  0
   -7.4494    1.6087    0.1984 C   0  0  0  0  0  0  0  0  0  0  0  0
   -6.1779    1.5458    0.5074 C   0  0  0  0  0  0  0  0  0  0  0  0
   -5.4641    0.2186    0.4948 C   0  0  0  0  0  0  0  0  0  0  0  0
   -4.2608    0.2956   -0.4470 C   0  0  0  0  0  0  0  0  0  0  0  0
   -3.4787   -0.9902   -0.3689 C   0  0  0  0  0  0  0  0  0  0  0  0
   -3.6957   -1.9429   -1.2415 C   0  0  0  0  0  0  0  0  0  0  0  0
   -2.4520   -1.1790    0.7075 C   0  0  0  0  0  0  0  0  0  0  0  0
   -2.1078   -2.6771    0.9066 C   0  0  0  0  0  0  0  0  0  0  0  0
   -0.5555   -2.7718    0.8098 C   0  0  0  0  0  0  0  0  0  0  0  0
   -0.2360   -1.6353   -0.1687 C   0  0  0  0  0  0  0  0  0  0  0  0
   -1.1247   -0.5024    0.3879 C   0  0  0  0  0  0  0  0  0  0  0  0
   -1.1023    0.6919   -0.5280 C   0  0  0  0  0  0  0  0  0  0  0  0
    0.3611    1.1904   -0.6046 C   0  0  0  0  0  0  0  0  0  0  0  0
    1.2441    0.2893    0.2472 C   0  0  0  0  0  0  0  0  0  0  0  0
    1.2159   -1.1599   -0.2088 C   0  0  0  0  0  0  0  0  0  0  0  0
    2.0878   -2.0250    0.6859 C   0  0  0  0  0  0  0  0  0  0  0  0
    3.4930   -1.4616    0.8942 C   0  0  0  0  0  0  0  0  0  0  0  0
    3.7215   -0.1588    0.1490 C   0  0  0  0  0  0  0  0  0  0  0  0
    2.6423    0.8576    0.4671 C   0  0  0  0  0  0  0  0  0  0  0  0
    2.8563    2.1075   -0.3901 C   0  0  0  0  0  0  0  0  0  0  0  0
    4.2348    2.6977   -0.0953 C   0  0  0  0  0  0  0  0  0  0  0  0
    5.3352    1.6975   -0.4133 C   0  0  0  0  0  0  0  0  0  0  0  0
    5.1470    0.3553    0.2908 C   0  0  0  0  0  0  0  0  0  0  0  0
    5.6281    0.4368    1.7348 C   0  0  0  0  0  0  0  0  0  0  0  0
    6.0769   -0.6496   -0.4374 C   0  0  0  0  0  0  0  0  0  0  0  0
    5.3918    1.4817   -1.8289 O   0  0  0  0  0  0  0  0  0  0  0  0
    2.6832    1.2794    1.9486 C   0  0  0  0  0  0  0  0  0  0  0  0
    1.6307   -1.3144   -1.6777 C   0  0  0  0  0  0  0  0  0  0  0  0
   -0.6400   -2.0487   -1.5884 C   0  0  0  0  0  0  0  0  0  0  0  0
   -8.1324    2.9474    0.0870 C   0  0  0  0  0  0  0  0  0  0  0  0
   -8.1313   -0.3166    0.8169 H   0  0  0  0  0  0  0  0  0  0  0  0
   -9.2801    0.5867   -0.1993 H   0  0  0  0  0  0  0  0  0  0  0  0
   -7.8394   -0.1590   -0.9318 H   0  0  0  0  0  0  0  0  0  0  0  0
   -5.6412    2.4450    0.7713 H   0  0  0  0  0  0  0  0  0  0  0  0
   -5.1225   -0.0199    1.5020 H   0  0  0  0  0  0  0  0  0  0  0  0
   -6.1468   -0.5578    0.1493 H   0  0  0  0  0  0  0  0  0  0  0  0
   -4.6083    0.4480   -1.4688 H   0  0  0  0  0  0  0  0  0  0  0  0
   -3.6217    1.1281   -0.1526 H   0  0  0  0  0  0  0  0  0  0  0  0
   -3.2059   -2.8989   -1.1302 H   0  0  0  0  0  0  0  0  0  0  0  0
   -4.3646   -1.7723   -2.0721 H   0  0  0  0  0  0  0  0  0  0  0  0
   -2.8414   -0.7773    1.6546 H   0  0  0  0  0  0  0  0  0  0  0  0
   -2.4343   -3.0071    1.8922 H   0  0  0  0  0  0  0  0  0  0  0  0
   -2.5719   -3.2809    0.1317 H   0  0  0  0  0  0  0  0  0  0  0  0
   -0.1084   -2.5943    1.7843 H   0  0  0  0  0  0  0  0  0  0  0  0
   -0.2559   -3.7343    0.4016 H   0  0  0  0  0  0  0  0  0  0  0  0
   -0.7198   -0.1867    1.3718 H   0  0  0  0  0  0  0  0  0  0  0  0
   -1.4609    0.4582   -1.5266 H   0  0  0  0  0  0  0  0  0  0  0  0
   -1.7233    1.4943   -0.1091 H   0  0  0  0  0  0  0  0  0  0  0  0
    0.6903    1.2001   -1.6389 H   0  0  0  0  0  0  0  0  0  0  0  0
    0.3919    2.2116   -0.2113 H   0  0  0  0  0  0  0  0  0  0  0  0
    0.8036    0.3075    1.2736 H   0  0  0  0  0  0  0  0  0  0  0  0
    1.6096   -2.1292    1.6684 H   0  0  0  0  0  0  0  0  0  0  0  0
    2.1688   -3.0280    0.2483 H   0  0  0  0  0  0  0  0  0  0  0  0
    3.6491   -1.3200    1.9698 H   0  0  0  0  0  0  0  0  0  0  0  0
    4.2146   -2.2180    0.5602 H   0  0  0  0  0  0  0  0  0  0  0  0
    3.6604   -0.3817   -0.9417 H   0  0  0  0  0  0  0  0  0  0  0  0
    2.7908    1.8403   -1.4447 H   0  0  0  0  0  0  0  0  0  0  0  0
    2.0930    2.8491   -0.1538 H   0  0  0  0  0  0  0  0  0  0  0  0
    4.3719    3.5826   -0.7370 H   0  0  0  0  0  0  0  0  0  0  0  0
    4.3054    3.0331    0.9351 H   0  0  0  0  0  0  0  0  0  0  0  0
    6.2994    2.1207   -0.0984 H   0  0  0  0  0  0  0  0  0  0  0  0
    5.0339    1.1742    2.2746 H   0  0  0  0  0  0  0  0  0  0  0  0
    5.5172   -0.5377    2.2103 H   0  0  0  0  0  0  0  0  0  0  0  0
    6.6771    0.7323    1.7521 H   0  0  0  0  0  0  0  0  0  0  0  0
    7.1096   -0.3090   -0.3625 H   0  0  0  0  0  0  0  0  0  0  0  0
    5.9838   -1.6320    0.0256 H   0  0  0  0  0  0  0  0  0  0  0  0
    5.7908   -0.7141   -1.4872 H   0  0  0  0  0  0  0  0  0  0  0  0
    5.5762    2.2806   -2.3415 H   0  0  0  0  0  0  0  0  0  0  0  0
    3.5596    1.9031    2.1248 H   0  0  0  0  0  0  0  0  0  0  0  0
    1.7819    1.8425    2.1910 H   0  0  0  0  0  0  0  0  0  0  0  0
    2.7369    0.3911    2.5780 H   0  0  0  0  0  0  0  0  0  0  0  0
    2.6968   -1.1105   -1.7775 H   0  0  0  0  0  0  0  0  0  0  0  0
    1.4227   -2.3318   -2.0088 H   0  0  0  0  0  0  0  0  0  0  0  0
    1.0672   -0.6106   -2.2903 H   0  0  0  0  0  0  0  0  0  0  0  0
   -1.6863   -2.3544   -1.5940 H   0  0  0  0  0  0  0  0  0  0  0  0
   -0.5044   -1.2049   -2.2650 H   0  0  0  0  0  0  0  0  0  0  0  0
   -0.0167   -2.8808   -1.9158 H   0  0  0  0  0  0  0  0  0  0  0  0
   -8.5416    3.2283    1.0574 H   0  0  0  0  0  0  0  0  0  0  0  0
   -7.4103    3.6981   -0.2340 H   0  0  0  0  0  0  0  0  0  0  0  0
   -8.9394    2.8839   -0.6430 H   0  0  0  0  0  0  0  0  0  0  0  0
  1  2  1  0  0  0  0
  2  3  2  0  0  0  0
  3  4  1  0  0  0  0
  4  5  1  0  0  0  0
  5  6  1  0  0  0  0
  6  7  2  0  0  0  0
  6  8  1  0  0  0  0
  8  9  1  0  0  0  0
  9 10  1  0  0  0  0
 10 11  1  0  0  0  0
 11 12  1  0  0  0  0
  8 12  1  0  0  0  0
 12 13  1  0  0  0  0
 13 14  1  0  0  0  0
 14 15  1  0  0  0  0
 15 16  1  0  0  0  0
 11 16  1  0  0  0  0
 16 17  1  0  0  0  0
 17 18  1  0  0  0  0
 18 19  1  0  0  0  0
 19 20  1  0  0  0  0
 15 20  1  0  0  0  0
 20 21  1  0  0  0  0
 21 22  1  0  0  0  0
 22 23  1  0  0  0  0
 23 24  1  0  0  0  0
 19 24  1  0  0  0  0
 24 25  1  0  0  0  0
 24 26  1  0  0  0  0
 23 27  1  0  0  0  0
 20 28  1  0  0  0  0
 16 29  1  0  0  0  0
 11 30  1  0  0  0  0
  2 31  1  0  0  0  0
  1 32  1  0  0  0  0
  1 33  1  0  0  0  0
  1 34  1  0  0  0  0
  3 35  1  0  0  0  0
  4 36  1  0  0  0  0
  4 37  1  0  0  0  0
  5 38  1  0  0  0  0
  5 39  1  0  0  0  0
  7 40  1  0  0  0  0
  7 41  1  0  0  0  0
  8 42  1  0  0  0  0
  9 43  1  0  0  0  0
  9 44  1  0  0  0  0
 10 45  1  0  0  0  0
 10 46  1  0  0  0  0
 12 47  1  0  0  0  0
 13 48  1  0  0  0  0
 13 49  1  0  0  0  0
 14 50  1  0  0  0  0
 14 51  1  0  0  0  0
 15 52  1  0  0  0  0
 17 53  1  0  0  0  0
 17 54  1  0  0  0  0
 18 55  1  0  0  0  0
 18 56  1  0  0  0  0
 19 57  1  0  0  0  0
 21 58  1  0  0  0  0
 21 59  1  0  0  0  0
 22 60  1  0  0  0  0
 22 61  1  0  0  0  0
 23 62  1  0  0  0  0
 25 63  1  0  0  0  0
 25 64  1  0  0  0  0
 25 65  1  0  0  0  0
 26 66  1  0  0  0  0
 26 67  1  0  0  0  0
 26 68  1  0  0  0  0
 27 69  1  0  0  0  0
 28 70  1  0  0  0  0
 28 71  1  0  0  0  0
 28 72  1  0  0  0  0
 29 73  1  0  0  0  0
 29 74  1  0  0  0  0
 29 75  1  0  0  0  0
 30 76  1  0  0  0  0
 30 77  1  0  0  0  0
 30 78  1  0  0  0  0
 31 79  1  0  0  0  0
 31 80  1  0  0  0  0
 31 81  1  0  0  0  0
M  END
$$$$
