C15H8O8
APtclcactv06281817403D 0   0.00000     0.00000
 
 31 34  0  0  0  0  0  0  0  0999 V2000
    4.3038   -1.8116    0.8315 C   0  0  0  0  0  0  0  0  0  0  0  0
    3.8000   -1.2445   -0.3796 O   0  0  0  0  0  0  0  0  0  0  0  0
    2.8147   -0.3162   -0.2629 C   0  0  0  0  0  0  0  0  0  0  0  0
    3.1419    1.0346   -0.1394 C   0  0  0  0  0  0  0  0  0  0  0  0
    2.1666    2.0133   -0.0115 C   0  0  0  0  0  0  0  0  0  0  0  0
    0.8298    1.6383    0.0047 C   0  0  0  0  0  0  0  0  0  0  0  0
    0.5073    0.2706   -0.1247 C   0  0  0  0  0  0  0  0  0  0  0  0
    1.4813   -0.7141   -0.2726 C   0  0  0  0  0  0  0  0  0  0  0  0
    1.1095   -2.0069   -0.4441 O   0  0  0  0  0  0  0  0  0  0  0  0
   -0.0993   -2.4056    0.0190 C   0  0  0  0  0  0  0  0  0  0  0  0
   -0.2468   -3.5254    0.4703 O   0  0  0  0  0  0  0  0  0  0  0  0
   -1.2314   -1.4677   -0.0300 C   0  0  0  0  0  0  0  0  0  0  0  0
   -2.5678   -1.8430    0.0030 C   0  0  0  0  0  0  0  0  0  0  0  0
   -3.5471   -0.8606   -0.0227 C   0  0  0  0  0  0  0  0  0  0  0  0
   -3.2250    0.4956   -0.0859 C   0  0  0  0  0  0  0  0  0  0  0  0
   -1.8931    0.8957   -0.1359 C   0  0  0  0  0  0  0  0  0  0  0  0
   -0.9146   -0.0935   -0.1086 C   0  0  0  0  0  0  0  0  0  0  0  0
   -1.5291    2.1975   -0.2461 O   0  0  0  0  0  0  0  0  0  0  0  0
   -0.2969    2.5691    0.1718 C   0  0  0  0  0  0  0  0  0  0  0  0
   -0.1232    3.6571    0.6872 O   0  0  0  0  0  0  0  0  0  0  0  0
   -4.2138    1.4275   -0.0993 O   0  0  0  0  0  0  0  0  0  0  0  0
   -4.8554   -1.2290    0.0143 O   0  0  0  0  0  0  0  0  0  0  0  0
    4.4511    1.4016   -0.1442 O   0  0  0  0  0  0  0  0  0  0  0  0
    4.7183   -1.0216    1.4577 H   0  0  0  0  0  0  0  0  0  0  0  0
    3.4936   -2.3098    1.3639 H   0  0  0  0  0  0  0  0  0  0  0  0
    5.0837   -2.5359    0.5966 H   0  0  0  0  0  0  0  0  0  0  0  0
    2.4438    3.0535    0.0749 H   0  0  0  0  0  0  0  0  0  0  0  0
   -2.8416   -2.8868    0.0478 H   0  0  0  0  0  0  0  0  0  0  0  0
   -4.4780    1.7332    0.7793 H   0  0  0  0  0  0  0  0  0  0  0  0
   -5.2195   -1.2982    0.9075 H   0  0  0  0  0  0  0  0  0  0  0  0
    4.8022    1.5948   -1.0242 H   0  0  0  0  0  0  0  0  0  0  0  0
  1  2  1  0  0  0  0
  2  3  1  0  0  0  0
  3  4  2  0  0  0  0
  4  5  1  0  0  0  0
  5  6  2  0  0  0  0
  6  7  1  0  0  0  0
  7  8  2  0  0  0  0
  3  8  1  0  0  0  0
  8  9  1  0  0  0  0
  9 10  1  0  0  0  0
 10 11  2  0  0  0  0
 10 12  1  0  0  0  0
 12 13  2  0  0  0  0
 13 14  1  0  0  0  0
 14 15  2  0  0  0  0
 15 16  1  0  0  0  0
 16 17  2  0  0  0  0
 12 17  1  0  0  0  0
  7 17  1  0  0  0  0
 16 18  1  0  0  0  0
 18 19  1  0  0  0  0
  6 19  1  0  0  0  0
 19 20  2  0  0  0  0
 15 21  1  0  0  0  0
 14 22  1  0  0  0  0
  4 23  1  0  0  0  0
  1 24  1  0  0  0  0
  1 25  1  0  0  0  0
  1 26  1  0  0  0  0
  5 27  1  0  0  0  0
 13 28  1  0  0  0  0
 21 29  1  0  0  0  0
 22 30  1  0  0  0  0
 23 31  1  0  0  0  0
M  END
$$$$
