C17H17NO3
APtclcactv06281817103D 0   0.00000     0.00000
 
 38 39  0  0  0  0  0  0  0  0999 V2000
   -4.9250    0.4976   -1.1963 C   0  0  0  0  0  0  0  0  0  0  0  0
   -6.2375    0.0667   -1.2037 C   0  0  0  0  0  0  0  0  0  0  0  0
   -6.8990   -0.1591   -0.0053 C   0  0  0  0  0  0  0  0  0  0  0  0
   -6.2401    0.0486    1.1978 C   0  0  0  0  0  0  0  0  0  0  0  0
   -4.9276    0.4795    1.1999 C   0  0  0  0  0  0  0  0  0  0  0  0
   -4.2706    0.7038    0.0042 C   0  0  0  0  0  0  0  0  0  0  0  0
   -2.8388    1.1739    0.0093 C   0  0  0  0  0  0  0  0  0  0  0  0
   -1.9043   -0.0376    0.0011 C   0  0  0  0  0  0  0  0  0  0  0  0
   -0.5124    0.4194    0.0061 N   0  0  0  0  0  0  0  0  0  0  0  0
    0.4920   -0.4794    0.0004 C   0  0  0  0  0  0  0  0  0  0  0  0
    0.2425   -1.6707   -0.0089 O   0  0  0  0  0  0  0  0  0  0  0  0
    1.8816   -0.0232    0.0054 C   0  0  0  0  0  0  0  0  0  0  0  0
    2.8874   -0.9233   -0.0004 C   0  0  0  0  0  0  0  0  0  0  0  0
    4.2841   -0.4648    0.0046 C   0  0  0  0  0  0  0  0  0  0  0  0
    5.3290   -1.3961   -0.0013 C   0  0  0  0  0  0  0  0  0  0  0  0
    6.6352   -0.9615    0.0030 C   0  0  0  0  0  0  0  0  0  0  0  0
    6.9174    0.3997    0.0136 C   0  0  0  0  0  0  0  0  0  0  0  0
    5.8833    1.3288    0.0200 C   0  0  0  0  0  0  0  0  0  0  0  0
    4.5736    0.9047    0.0095 C   0  0  0  0  0  0  0  0  0  0  0  0
    8.2070    0.8231    0.0182 O   0  0  0  0  0  0  0  0  0  0  0  0
   -8.1903   -0.5825   -0.0099 O   0  0  0  0  0  0  0  0  0  0  0  0
   -4.4082    0.6692   -2.1289 H   0  0  0  0  0  0  0  0  0  0  0  0
   -6.7483   -0.0939   -2.1416 H   0  0  0  0  0  0  0  0  0  0  0  0
   -6.7530   -0.1262    2.1321 H   0  0  0  0  0  0  0  0  0  0  0  0
   -4.4144    0.6416    2.1362 H   0  0  0  0  0  0  0  0  0  0  0  0
   -2.6529    1.7821   -0.8759 H   0  0  0  0  0  0  0  0  0  0  0  0
   -2.6548    1.7686    0.9040 H   0  0  0  0  0  0  0  0  0  0  0  0
   -2.0902   -0.6458    0.8863 H   0  0  0  0  0  0  0  0  0  0  0  0
   -2.0882   -0.6323   -0.8936 H   0  0  0  0  0  0  0  0  0  0  0  0
   -0.3136    1.3688    0.0135 H   0  0  0  0  0  0  0  0  0  0  0  0
    2.1029    1.0339    0.0136 H   0  0  0  0  0  0  0  0  0  0  0  0
    2.6661   -1.9803   -0.0086 H   0  0  0  0  0  0  0  0  0  0  0  0
    5.1108   -2.4538   -0.0088 H   0  0  0  0  0  0  0  0  0  0  0  0
    7.4421   -1.6793   -0.0016 H   0  0  0  0  0  0  0  0  0  0  0  0
    6.1077    2.3852    0.0290 H   0  0  0  0  0  0  0  0  0  0  0  0
    3.7710    1.6272    0.0141 H   0  0  0  0  0  0  0  0  0  0  0  0
    8.5817    0.9524   -0.8638 H   0  0  0  0  0  0  0  0  0  0  0  0
   -8.2888   -1.5445   -0.0175 H   0  0  0  0  0  0  0  0  0  0  0  0
  1  2  2  0  0  0  0
  2  3  1  0  0  0  0
  3  4  2  0  0  0  0
  4  5  1  0  0  0  0
  5  6  2  0  0  0  0
  1  6  1  0  0  0  0
  6  7  1  0  0  0  0
  7  8  1  0  0  0  0
  8  9  1  0  0  0  0
  9 10  1  0  0  0  0
 10 11  2  0  0  0  0
 10 12  1  0  0  0  0
 12 13  2  0  0  0  0
 13 14  1  0  0  0  0
 14 15  2  0  0  0  0
 15 16  1  0  0  0  0
 16 17  2  0  0  0  0
 17 18  1  0  0  0  0
 18 19  2  0  0  0  0
 14 19  1  0  0  0  0
 17 20  1  0  0  0  0
  3 21  1  0  0  0  0
  1 22  1  0  0  0  0
  2 23  1  0  0  0  0
  4 24  1  0  0  0  0
  5 25  1  0  0  0  0
  7 26  1  0  0  0  0
  7 27  1  0  0  0  0
  8 28  1  0  0  0  0
  8 29  1  0  0  0  0
  9 30  1  0  0  0  0
 12 31  1  0  0  0  0
 13 32  1  0  0  0  0
 15 33  1  0  0  0  0
 16 34  1  0  0  0  0
 18 35  1  0  0  0  0
 19 36  1  0  0  0  0
 20 37  1  0  0  0  0
 21 38  1  0  0  0  0
M  END
$$$$
