C24H42O21
APtclcactv06281817403D 0   0.00000     0.00000
 
 87 90  0  0  0  0  0  0  0  0999 V2000
    7.3945    1.1696   -1.0898 C   0  0  0  0  0  0  0  0  0  0  0  0
    6.2840    0.3206   -0.4677 C   0  0  0  0  0  0  0  0  0  0  0  0
    6.5755   -1.1619   -0.7151 C   0  0  0  0  0  0  0  0  0  0  0  0
    5.4921   -2.0071   -0.0382 C   0  0  0  0  0  0  0  0  0  0  0  0
    5.4505   -1.6640    1.4541 C   0  0  0  0  0  0  0  0  0  0  0  0
    5.2025   -0.1622    1.6177 C   0  0  0  0  0  0  0  0  0  0  0  0
    6.2283    0.5654    0.9391 O   0  0  0  0  0  0  0  0  0  0  0  0
    3.9307    0.1744    1.0597 O   0  0  0  0  0  0  0  0  0  0  0  0
    3.5502    1.5371    1.2606 C   0  0  0  0  0  0  0  0  0  0  0  0
    2.1801    1.7829    0.6254 C   0  0  0  0  0  0  0  0  0  0  0  0
    1.7161    3.2059    0.9471 C   0  0  0  0  0  0  0  0  0  0  0  0
    0.3727    3.4646    0.2582 C   0  0  0  0  0  0  0  0  0  0  0  0
    0.5301    3.2308   -1.2474 C   0  0  0  0  0  0  0  0  0  0  0  0
    1.0399    1.8068   -1.4843 C   0  0  0  0  0  0  0  0  0  0  0  0
    2.2761    1.6234   -0.7914 O   0  0  0  0  0  0  0  0  0  0  0  0
    0.0774    0.8691   -0.9982 O   0  0  0  0  0  0  0  0  0  0  0  0
    0.4047   -0.4946   -1.2724 C   0  0  0  0  0  0  0  0  0  0  0  0
   -0.6891   -1.4046   -0.7099 C   0  0  0  0  0  0  0  0  0  0  0  0
   -0.4035   -2.8542   -1.1109 C   0  0  0  0  0  0  0  0  0  0  0  0
   -1.4688   -3.7658   -0.4940 C   0  0  0  0  0  0  0  0  0  0  0  0
   -1.4723   -3.5730    1.0256 C   0  0  0  0  0  0  0  0  0  0  0  0
   -1.7166   -2.0956    1.3441 C   0  0  0  0  0  0  0  0  0  0  0  0
   -0.7089   -1.3011    0.7153 O   0  0  0  0  0  0  0  0  0  0  0  0
   -3.0024   -1.7090    0.8549 O   0  0  0  0  0  0  0  0  0  0  0  0
   -3.3783   -0.3742    1.2000 C   0  0  0  0  0  0  0  0  0  0  0  0
   -4.7643   -0.0705    0.6275 C   0  0  0  0  0  0  0  0  0  0  0  0
   -5.2205    1.3121    1.1008 C   0  0  0  0  0  0  0  0  0  0  0  0
   -6.5812    1.6340    0.4755 C   0  0  0  0  0  0  0  0  0  0  0  0
   -6.4623    1.5517   -1.0494 C   0  0  0  0  0  0  0  0  0  0  0  0
   -5.9582    0.1598   -1.4397 C   0  0  0  0  0  0  0  0  0  0  0  0
   -4.7045   -0.0879   -0.8002 O   0  0  0  0  0  0  0  0  0  0  0  0
   -6.9075   -0.8245   -1.0250 O   0  0  0  0  0  0  0  0  0  0  0  0
   -7.7430    1.7790   -1.6412 O   0  0  0  0  0  0  0  0  0  0  0  0
   -7.5521    0.6896    0.9310 O   0  0  0  0  0  0  0  0  0  0  0  0
   -5.3368    1.3149    2.5251 O   0  0  0  0  0  0  0  0  0  0  0  0
   -2.5114   -4.3646    1.6050 O   0  0  0  0  0  0  0  0  0  0  0  0
   -2.7525   -3.4262   -1.0220 O   0  0  0  0  0  0  0  0  0  0  0  0
   -0.4404   -2.9720   -2.5345 O   0  0  0  0  0  0  0  0  0  0  0  0
   -0.7344    3.3987   -1.8915 O   0  0  0  0  0  0  0  0  0  0  0  0
   -0.6122    2.5705    0.7804 O   0  0  0  0  0  0  0  0  0  0  0  0
    1.5636    3.3504    2.3606 O   0  0  0  0  0  0  0  0  0  0  0  0
    4.3947   -2.3936    2.0826 O   0  0  0  0  0  0  0  0  0  0  0  0
    4.2233   -1.7211   -0.6300 O   0  0  0  0  0  0  0  0  0  0  0  0
    6.5744   -1.4207   -2.1205 O   0  0  0  0  0  0  0  0  0  0  0  0
    7.0644    2.5540   -0.9610 O   0  0  0  0  0  0  0  0  0  0  0  0
    8.3349    0.9710   -0.5757 H   0  0  0  0  0  0  0  0  0  0  0  0
    7.4969    0.9171   -2.1452 H   0  0  0  0  0  0  0  0  0  0  0  0
    5.3282    0.5837   -0.9208 H   0  0  0  0  0  0  0  0  0  0  0  0
    7.5497   -1.4162   -0.2977 H   0  0  0  0  0  0  0  0  0  0  0  0
    5.7240   -3.0648   -0.1628 H   0  0  0  0  0  0  0  0  0  0  0  0
    6.4020   -1.9284    1.9154 H   0  0  0  0  0  0  0  0  0  0  0  0
    5.2145    0.0950    2.6769 H   0  0  0  0  0  0  0  0  0  0  0  0
    3.4980    1.7460    2.3291 H   0  0  0  0  0  0  0  0  0  0  0  0
    4.2880    2.1924    0.7978 H   0  0  0  0  0  0  0  0  0  0  0  0
    1.4610    1.0673    1.0240 H   0  0  0  0  0  0  0  0  0  0  0  0
    2.4550    3.9206    0.5846 H   0  0  0  0  0  0  0  0  0  0  0  0
    0.0636    4.4944    0.4370 H   0  0  0  0  0  0  0  0  0  0  0  0
    1.2450    3.9460   -1.6543 H   0  0  0  0  0  0  0  0  0  0  0  0
    1.1945    1.6490   -2.5517 H   0  0  0  0  0  0  0  0  0  0  0  0
    0.4801   -0.6406   -2.3499 H   0  0  0  0  0  0  0  0  0  0  0  0
    1.3581   -0.7406   -0.8048 H   0  0  0  0  0  0  0  0  0  0  0  0
   -1.6563   -1.1006   -1.1100 H   0  0  0  0  0  0  0  0  0  0  0  0
    0.5813   -3.1459   -0.7458 H   0  0  0  0  0  0  0  0  0  0  0  0
   -1.2398   -4.8052   -0.7291 H   0  0  0  0  0  0  0  0  0  0  0  0
   -0.5091   -3.8791    1.4338 H   0  0  0  0  0  0  0  0  0  0  0  0
   -1.6777   -1.9451    2.4229 H   0  0  0  0  0  0  0  0  0  0  0  0
   -3.4031   -0.2727    2.2849 H   0  0  0  0  0  0  0  0  0  0  0  0
   -2.6528    0.3261    0.7860 H   0  0  0  0  0  0  0  0  0  0  0  0
   -5.4727   -0.8243    0.9711 H   0  0  0  0  0  0  0  0  0  0  0  0
   -4.4915    2.0615    0.7925 H   0  0  0  0  0  0  0  0  0  0  0  0
   -6.8861    2.6401    0.7637 H   0  0  0  0  0  0  0  0  0  0  0  0
   -5.7584    2.3059   -1.4012 H   0  0  0  0  0  0  0  0  0  0  0  0
   -5.8309    0.1094   -2.5211 H   0  0  0  0  0  0  0  0  0  0  0  0
   -6.6526   -1.7321   -1.2404 H   0  0  0  0  0  0  0  0  0  0  0  0
   -7.7420    1.7414   -2.6075 H   0  0  0  0  0  0  0  0  0  0  0  0
   -8.4390    0.8339    0.5737 H   0  0  0  0  0  0  0  0  0  0  0  0
   -5.6226    2.1615    2.8947 H   0  0  0  0  0  0  0  0  0  0  0  0
   -2.5718   -4.2909    2.5673 H   0  0  0  0  0  0  0  0  0  0  0  0
   -3.4760   -3.9651   -0.6740 H   0  0  0  0  0  0  0  0  0  0  0  0
   -0.2676   -3.8661   -2.8598 H   0  0  0  0  0  0  0  0  0  0  0  0
   -0.7090    3.2651   -2.8489 H   0  0  0  0  0  0  0  0  0  0  0  0
   -1.4893    2.6790    0.3879 H   0  0  0  0  0  0  0  0  0  0  0  0
    1.2710    4.2298    2.6367 H   0  0  0  0  0  0  0  0  0  0  0  0
    4.3100   -2.2245    3.0309 H   0  0  0  0  0  0  0  0  0  0  0  0
    3.4895   -2.2224   -0.2487 H   0  0  0  0  0  0  0  0  0  0  0  0
    6.7528   -2.3428   -2.3507 H   0  0  0  0  0  0  0  0  0  0  0  0
    7.7257    3.1524   -1.3347 H   0  0  0  0  0  0  0  0  0  0  0  0
  1  2  1  0  0  0  0
  2  3  1  0  0  0  0
  3  4  1  0  0  0  0
  4  5  1  0  0  0  0
  5  6  1  0  0  0  0
  6  7  1  0  0  0  0
  2  7  1  0  0  0  0
  6  8  1  0  0  0  0
  8  9  1  0  0  0  0
  9 10  1  0  0  0  0
 10 11  1  0  0  0  0
 11 12  1  0  0  0  0
 12 13  1  0  0  0  0
 13 14  1  0  0  0  0
 14 15  1  0  0  0  0
 10 15  1  0  0  0  0
 14 16  1  0  0  0  0
 16 17  1  0  0  0  0
 17 18  1  0  0  0  0
 18 19  1  0  0  0  0
 19 20  1  0  0  0  0
 20 21  1  0  0  0  0
 21 22  1  0  0  0  0
 22 23  1  0  0  0  0
 18 23  1  0  0  0  0
 22 24  1  0  0  0  0
 24 25  1  0  0  0  0
 25 26  1  0  0  0  0
 26 27  1  0  0  0  0
 27 28  1  0  0  0  0
 28 29  1  0  0  0  0
 29 30  1  0  0  0  0
 30 31  1  0  0  0  0
 26 31  1  0  0  0  0
 30 32  1  0  0  0  0
 29 33  1  0  0  0  0
 28 34  1  0  0  0  0
 27 35  1  0  0  0  0
 21 36  1  0  0  0  0
 20 37  1  0  0  0  0
 19 38  1  0  0  0  0
 13 39  1  0  0  0  0
 12 40  1  0  0  0  0
 11 41  1  0  0  0  0
  5 42  1  0  0  0  0
  4 43  1  0  0  0  0
  3 44  1  0  0  0  0
  1 45  1  0  0  0  0
  1 46  1  0  0  0  0
  1 47  1  0  0  0  0
  2 48  1  0  0  0  0
  3 49  1  0  0  0  0
  4 50  1  0  0  0  0
  5 51  1  0  0  0  0
  6 52  1  0  0  0  0
  9 53  1  0  0  0  0
  9 54  1  0  0  0  0
 10 55  1  0  0  0  0
 11 56  1  0  0  0  0
 12 57  1  0  0  0  0
 13 58  1  0  0  0  0
 14 59  1  0  0  0  0
 17 60  1  0  0  0  0
 17 61  1  0  0  0  0
 18 62  1  0  0  0  0
 19 63  1  0  0  0  0
 20 64  1  0  0  0  0
 21 65  1  0  0  0  0
 22 66  1  0  0  0  0
 25 67  1  0  0  0  0
 25 68  1  0  0  0  0
 26 69  1  0  0  0  0
 27 70  1  0  0  0  0
 28 71  1  0  0  0  0
 29 72  1  0  0  0  0
 30 73  1  0  0  0  0
 32 74  1  0  0  0  0
 33 75  1  0  0  0  0
 34 76  1  0  0  0  0
 35 77  1  0  0  0  0
 36 78  1  0  0  0  0
 37 79  1  0  0  0  0
 38 80  1  0  0  0  0
 39 81  1  0  0  0  0
 40 82  1  0  0  0  0
 41 83  1  0  0  0  0
 42 84  1  0  0  0  0
 43 85  1  0  0  0  0
 44 86  1  0  0  0  0
 45 87  1  0  0  0  0
M  END
$$$$
