C16H26
APtclcactv06281817223D 0   0.00000     0.00000
 
 42 41  0  0  0  0  0  0  0  0999 V2000
   -4.2837    2.0382   -0.5150 C   0  0  0  0  0  0  0  0  0  0  0  0
   -5.0470    0.7512   -0.3360 C   0  0  0  0  0  0  0  0  0  0  0  0
   -4.4221   -0.3974   -0.4154 C   0  0  0  0  0  0  0  0  0  0  0  0
   -2.9233   -0.4307   -0.5690 C   0  0  0  0  0  0  0  0  0  0  0  0
   -2.3165   -1.2964    0.5370 C   0  0  0  0  0  0  0  0  0  0  0  0
   -0.8177   -1.3298    0.3835 C   0  0  0  0  0  0  0  0  0  0  0  0
   -0.0711   -0.4926    1.0601 C   0  0  0  0  0  0  0  0  0  0  0  0
    1.4307   -0.5872    0.9790 C   0  0  0  0  0  0  0  0  0  0  0  0
    2.0063    0.7721    0.5763 C   0  0  0  0  0  0  0  0  0  0  0  0
    3.5081    0.6775    0.4952 C   0  0  0  0  0  0  0  0  0  0  0  0
    4.0966    0.4383   -0.6718 C   0  0  0  0  0  0  0  0  0  0  0  0
    5.5628    0.3459   -0.7511 C   0  0  0  0  0  0  0  0  0  0  0  0
    6.1513    0.1067   -1.9180 C   0  0  0  0  0  0  0  0  0  0  0  0
    4.3425    0.8542    1.7376 C   0  0  0  0  0  0  0  0  0  0  0  0
   -0.1777   -2.3262   -0.5485 C   0  0  0  0  0  0  0  0  0  0  0  0
   -6.5292    0.7855   -0.0656 C   0  0  0  0  0  0  0  0  0  0  0  0
   -3.7537    2.0169   -1.4672 H   0  0  0  0  0  0  0  0  0  0  0  0
   -4.9792    2.8775   -0.5050 H   0  0  0  0  0  0  0  0  0  0  0  0
   -3.5663    2.1512    0.2978 H   0  0  0  0  0  0  0  0  0  0  0  0
   -4.9810   -1.3205   -0.3709 H   0  0  0  0  0  0  0  0  0  0  0  0
   -2.6670   -0.8512   -1.5414 H   0  0  0  0  0  0  0  0  0  0  0  0
   -2.5279    0.5824   -0.4956 H   0  0  0  0  0  0  0  0  0  0  0  0
   -2.5728   -0.8760    1.5094 H   0  0  0  0  0  0  0  0  0  0  0  0
   -2.7118   -2.3095    0.4636 H   0  0  0  0  0  0  0  0  0  0  0  0
   -0.5320    0.2654    1.6762 H   0  0  0  0  0  0  0  0  0  0  0  0
    1.8296   -0.8771    1.9511 H   0  0  0  0  0  0  0  0  0  0  0  0
    1.7080   -1.3340    0.2350 H   0  0  0  0  0  0  0  0  0  0  0  0
    1.6074    1.0620   -0.3958 H   0  0  0  0  0  0  0  0  0  0  0  0
    1.7289    1.5189    1.3203 H   0  0  0  0  0  0  0  0  0  0  0  0
    3.4987    0.3116   -1.5622 H   0  0  0  0  0  0  0  0  0  0  0  0
    6.1607    0.4726    0.1393 H   0  0  0  0  0  0  0  0  0  0  0  0
    7.2276    0.0389   -1.9762 H   0  0  0  0  0  0  0  0  0  0  0  0
    5.5533   -0.0200   -2.8085 H   0  0  0  0  0  0  0  0  0  0  0  0
    4.4897   -0.1135    2.2171 H   0  0  0  0  0  0  0  0  0  0  0  0
    5.3103    1.2772    1.4682 H   0  0  0  0  0  0  0  0  0  0  0  0
    3.8309    1.5268    2.4262 H   0  0  0  0  0  0  0  0  0  0  0  0
   -0.0003   -1.8567   -1.5161 H   0  0  0  0  0  0  0  0  0  0  0  0
    0.7705   -2.6605   -0.1275 H   0  0  0  0  0  0  0  0  0  0  0  0
   -0.8405   -3.1821   -0.6761 H   0  0  0  0  0  0  0  0  0  0  0  0
   -7.0715    0.7630   -1.0109 H   0  0  0  0  0  0  0  0  0  0  0  0
   -6.8091   -0.0802    0.5346 H   0  0  0  0  0  0  0  0  0  0  0  0
   -6.7789    1.6985    0.4749 H   0  0  0  0  0  0  0  0  0  0  0  0
  1  2  1  0  0  0  0
  2  3  2  0  0  0  0
  3  4  1  0  0  0  0
  4  5  1  0  0  0  0
  5  6  1  0  0  0  0
  6  7  2  0  0  0  0
  7  8  1  0  0  0  0
  8  9  1  0  0  0  0
  9 10  1  0  0  0  0
 10 11  2  0  0  0  0
 11 12  1  0  0  0  0
 12 13  2  0  0  0  0
 10 14  1  0  0  0  0
  6 15  1  0  0  0  0
  2 16  1  0  0  0  0
  1 17  1  0  0  0  0
  1 18  1  0  0  0  0
  1 19  1  0  0  0  0
  3 20  1  0  0  0  0
  4 21  1  0  0  0  0
  4 22  1  0  0  0  0
  5 23  1  0  0  0  0
  5 24  1  0  0  0  0
  7 25  1  0  0  0  0
  8 26  1  0  0  0  0
  8 27  1  0  0  0  0
  9 28  1  0  0  0  0
  9 29  1  0  0  0  0
 11 30  1  0  0  0  0
 12 31  1  0  0  0  0
 13 32  1  0  0  0  0
 13 33  1  0  0  0  0
 14 34  1  0  0  0  0
 14 35  1  0  0  0  0
 14 36  1  0  0  0  0
 15 37  1  0  0  0  0
 15 38  1  0  0  0  0
 15 39  1  0  0  0  0
 16 40  1  0  0  0  0
 16 41  1  0  0  0  0
 16 42  1  0  0  0  0
M  END
$$$$
