C22H22O11
APtclcactv06281817403D 0   0.00000     0.00000
 
 55 58  0  0  0  0  0  0  0  0999 V2000
    2.6982    3.9984   -1.1617 C   0  0  0  0  0  0  0  0  0  0  0  0
    2.3199    3.2989    0.0255 O   0  0  0  0  0  0  0  0  0  0  0  0
    1.2319    2.4846   -0.0570 C   0  0  0  0  0  0  0  0  0  0  0  0
    1.3894    1.1470   -0.4146 C   0  0  0  0  0  0  0  0  0  0  0  0
    0.2911    0.3062   -0.5027 C   0  0  0  0  0  0  0  0  0  0  0  0
   -0.9789    0.7919   -0.2344 C   0  0  0  0  0  0  0  0  0  0  0  0
   -1.1422    2.1407    0.1273 C   0  0  0  0  0  0  0  0  0  0  0  0
   -0.0301    2.9855    0.2203 C   0  0  0  0  0  0  0  0  0  0  0  0
   -0.1877    4.2885    0.5701 O   0  0  0  0  0  0  0  0  0  0  0  0
   -2.5017    2.6333    0.4075 C   0  0  0  0  0  0  0  0  0  0  0  0
   -2.7022    3.7945    0.7253 O   0  0  0  0  0  0  0  0  0  0  0  0
   -3.5660    1.7083    0.2936 C   0  0  0  0  0  0  0  0  0  0  0  0
   -3.3019    0.4224   -0.0635 C   0  0  0  0  0  0  0  0  0  0  0  0
   -2.0586   -0.0153   -0.3170 O   0  0  0  0  0  0  0  0  0  0  0  0
   -4.4251   -0.5271   -0.1769 C   0  0  0  0  0  0  0  0  0  0  0  0
   -4.4493   -1.4633   -1.2145 C   0  0  0  0  0  0  0  0  0  0  0  0
   -5.4997   -2.3483   -1.3163 C   0  0  0  0  0  0  0  0  0  0  0  0
   -6.5347   -2.3111   -0.3896 C   0  0  0  0  0  0  0  0  0  0  0  0
   -6.5148   -1.3816    0.6433 C   0  0  0  0  0  0  0  0  0  0  0  0
   -5.4652   -0.4970    0.7563 C   0  0  0  0  0  0  0  0  0  0  0  0
   -7.5684   -3.1850   -0.4940 O   0  0  0  0  0  0  0  0  0  0  0  0
    2.6306    0.6629   -0.6798 O   0  0  0  0  0  0  0  0  0  0  0  0
    2.7255   -0.7164   -1.0408 C   0  0  0  0  0  0  0  0  0  0  0  0
    4.1713   -1.0464   -1.4209 C   0  0  0  0  0  0  0  0  0  0  0  0
    5.0748   -0.8211   -0.2047 C   0  0  0  0  0  0  0  0  0  0  0  0
    4.5693   -1.6792    0.9591 C   0  0  0  0  0  0  0  0  0  0  0  0
    3.1081   -1.3248    1.2472 C   0  0  0  0  0  0  0  0  0  0  0  0
    2.3286   -1.5274    0.0668 O   0  0  0  0  0  0  0  0  0  0  0  0
    2.5776   -2.2199    2.3689 C   0  0  0  0  0  0  0  0  0  0  0  0
    1.2531   -1.8122    2.7176 O   0  0  0  0  0  0  0  0  0  0  0  0
    4.6655   -3.0616    0.6101 O   0  0  0  0  0  0  0  0  0  0  0  0
    6.4150   -1.1966   -0.5286 O   0  0  0  0  0  0  0  0  0  0  0  0
    4.2570   -2.4120   -1.8329 O   0  0  0  0  0  0  0  0  0  0  0  0
    3.5775    4.6099   -0.9586 H   0  0  0  0  0  0  0  0  0  0  0  0
    2.9290    3.2803   -1.9486 H   0  0  0  0  0  0  0  0  0  0  0  0
    1.8769    4.6387   -1.4835 H   0  0  0  0  0  0  0  0  0  0  0  0
    0.4251   -0.7287   -0.7812 H   0  0  0  0  0  0  0  0  0  0  0  0
   -0.1396    4.4486    1.5226 H   0  0  0  0  0  0  0  0  0  0  0  0
   -4.5811    2.0207    0.4891 H   0  0  0  0  0  0  0  0  0  0  0  0
   -3.6458   -1.4924   -1.9355 H   0  0  0  0  0  0  0  0  0  0  0  0
   -5.5192   -3.0720   -2.1177 H   0  0  0  0  0  0  0  0  0  0  0  0
   -7.3213   -1.3559    1.3611 H   0  0  0  0  0  0  0  0  0  0  0  0
   -5.4506    0.2250    1.5594 H   0  0  0  0  0  0  0  0  0  0  0  0
   -7.4325   -4.0140   -0.0149 H   0  0  0  0  0  0  0  0  0  0  0  0
    2.0719   -0.9157   -1.8901 H   0  0  0  0  0  0  0  0  0  0  0  0
    4.4905   -0.3980   -2.2369 H   0  0  0  0  0  0  0  0  0  0  0  0
    5.0481    0.2309    0.0795 H   0  0  0  0  0  0  0  0  0  0  0  0
    5.1732   -1.4834    1.8452 H   0  0  0  0  0  0  0  0  0  0  0  0
    3.0408   -0.2806    1.5526 H   0  0  0  0  0  0  0  0  0  0  0  0
    2.5616   -3.2558    2.0303 H   0  0  0  0  0  0  0  0  0  0  0  0
    3.2260   -2.1326    3.2408 H   0  0  0  0  0  0  0  0  0  0  0  0
    0.8532   -2.3373    3.4243 H   0  0  0  0  0  0  0  0  0  0  0  0
    5.5649   -3.3549    0.4095 H   0  0  0  0  0  0  0  0  0  0  0  0
    6.7968   -0.6970   -1.2634 H   0  0  0  0  0  0  0  0  0  0  0  0
    3.7052   -2.6276   -2.5973 H   0  0  0  0  0  0  0  0  0  0  0  0
  1  2  1  0  0  0  0
  2  3  1  0  0  0  0
  3  4  2  0  0  0  0
  4  5  1  0  0  0  0
  5  6  2  0  0  0  0
  6  7  1  0  0  0  0
  7  8  2  0  0  0  0
  3  8  1  0  0  0  0
  8  9  1  0  0  0  0
  7 10  1  0  0  0  0
 10 11  2  0  0  0  0
 10 12  1  0  0  0  0
 12 13  2  0  0  0  0
 13 14  1  0  0  0  0
  6 14  1  0  0  0  0
 13 15  1  0  0  0  0
 15 16  2  0  0  0  0
 16 17  1  0  0  0  0
 17 18  2  0  0  0  0
 18 19  1  0  0  0  0
 19 20  2  0  0  0  0
 15 20  1  0  0  0  0
 18 21  1  0  0  0  0
  4 22  1  0  0  0  0
 22 23  1  0  0  0  0
 23 24  1  0  0  0  0
 24 25  1  0  0  0  0
 25 26  1  0  0  0  0
 26 27  1  0  0  0  0
 27 28  1  0  0  0  0
 23 28  1  0  0  0  0
 27 29  1  0  0  0  0
 29 30  1  0  0  0  0
 26 31  1  0  0  0  0
 25 32  1  0  0  0  0
 24 33  1  0  0  0  0
  1 34  1  0  0  0  0
  1 35  1  0  0  0  0
  1 36  1  0  0  0  0
  5 37  1  0  0  0  0
  9 38  1  0  0  0  0
 12 39  1  0  0  0  0
 16 40  1  0  0  0  0
 17 41  1  0  0  0  0
 19 42  1  0  0  0  0
 20 43  1  0  0  0  0
 21 44  1  0  0  0  0
 23 45  1  0  0  0  0
 24 46  1  0  0  0  0
 25 47  1  0  0  0  0
 26 48  1  0  0  0  0
 27 49  1  0  0  0  0
 29 50  1  0  0  0  0
 29 51  1  0  0  0  0
 30 52  1  0  0  0  0
 31 53  1  0  0  0  0
 32 54  1  0  0  0  0
 33 55  1  0  0  0  0
M  END
$$$$
