C33H40O21
APtclcactv06281817403D 0   0.00000     0.00000
 
 94 99  0  0  0  0  0  0  0  0999 V2000
   -6.5701   -4.0213    0.7898 C   0  0  0  0  0  0  0  0  0  0  0  0
   -5.3625   -3.9501    1.7266 C   0  0  0  0  0  0  0  0  0  0  0  0
   -4.3454   -5.0236    1.3308 C   0  0  0  0  0  0  0  0  0  0  0  0
   -3.8479   -4.7451   -0.0909 C   0  0  0  0  0  0  0  0  0  0  0  0
   -3.2546   -3.3340   -0.1452 C   0  0  0  0  0  0  0  0  0  0  0  0
   -4.3139   -2.3257    0.3076 C   0  0  0  0  0  0  0  0  0  0  0  0
   -4.7558   -2.6603    1.6248 O   0  0  0  0  0  0  0  0  0  0  0  0
   -3.7503   -1.0126    0.3132 O   0  0  0  0  0  0  0  0  0  0  0  0
   -4.6895    0.0217    0.6136 C   0  0  0  0  0  0  0  0  0  0  0  0
   -3.9798    1.3770    0.5921 C   0  0  0  0  0  0  0  0  0  0  0  0
   -5.0073    2.4945    0.7901 C   0  0  0  0  0  0  0  0  0  0  0  0
   -4.2822    3.8433    0.8276 C   0  0  0  0  0  0  0  0  0  0  0  0
   -3.2319    3.8152    1.9421 C   0  0  0  0  0  0  0  0  0  0  0  0
   -2.2730    2.6467    1.6996 C   0  0  0  0  0  0  0  0  0  0  0  0
   -3.0151    1.4266    1.6451 O   0  0  0  0  0  0  0  0  0  0  0  0
   -1.5865    2.8426    0.4616 O   0  0  0  0  0  0  0  0  0  0  0  0
   -0.4949    2.0635    0.2304 C   0  0  0  0  0  0  0  0  0  0  0  0
   -0.4734    1.2087   -0.8304 C   0  0  0  0  0  0  0  0  0  0  0  0
    0.5813    0.4202   -1.0998 O   0  0  0  0  0  0  0  0  0  0  0  0
    1.6949    0.4194   -0.3375 C   0  0  0  0  0  0  0  0  0  0  0  0
    2.7644   -0.4072   -0.6457 C   0  0  0  0  0  0  0  0  0  0  0  0
    3.9014   -0.3959    0.1471 C   0  0  0  0  0  0  0  0  0  0  0  0
    3.9844    0.4392    1.2560 C   0  0  0  0  0  0  0  0  0  0  0  0
    2.9283    1.2705    1.5800 C   0  0  0  0  0  0  0  0  0  0  0  0
    1.7764    1.2652    0.7828 C   0  0  0  0  0  0  0  0  0  0  0  0
    0.6325    2.1390    1.0888 C   0  0  0  0  0  0  0  0  0  0  0  0
    0.6508    2.8958    2.0465 O   0  0  0  0  0  0  0  0  0  0  0  0
    3.0069    2.0855    2.6623 O   0  0  0  0  0  0  0  0  0  0  0  0
    4.9442   -1.2085   -0.1617 O   0  0  0  0  0  0  0  0  0  0  0  0
    6.0873   -1.1506    0.6938 C   0  0  0  0  0  0  0  0  0  0  0  0
    7.0999   -2.2161    0.2657 C   0  0  0  0  0  0  0  0  0  0  0  0
    7.5713   -1.9173   -1.1607 C   0  0  0  0  0  0  0  0  0  0  0  0
    8.1602   -0.5040   -1.2067 C   0  0  0  0  0  0  0  0  0  0  0  0
    7.1066    0.4953   -0.7217 C   0  0  0  0  0  0  0  0  0  0  0  0
    6.6890    0.1421    0.5985 O   0  0  0  0  0  0  0  0  0  0  0  0
    7.7067    1.9027   -0.7076 C   0  0  0  0  0  0  0  0  0  0  0  0
    6.6920    2.8497   -0.3674 O   0  0  0  0  0  0  0  0  0  0  0  0
    9.3081   -0.4371   -0.3582 O   0  0  0  0  0  0  0  0  0  0  0  0
    8.5713   -2.8644   -1.5419 O   0  0  0  0  0  0  0  0  0  0  0  0
    8.2197   -2.1945    1.1532 O   0  0  0  0  0  0  0  0  0  0  0  0
   -1.6509    1.1461   -1.7157 C   0  0  0  0  0  0  0  0  0  0  0  0
   -2.2036   -0.0907   -2.0601 C   0  0  0  0  0  0  0  0  0  0  0  0
   -3.3071   -0.1435   -2.8900 C   0  0  0  0  0  0  0  0  0  0  0  0
   -3.8662    1.0344   -3.3820 C   0  0  0  0  0  0  0  0  0  0  0  0
   -3.3177    2.2627   -3.0403 C   0  0  0  0  0  0  0  0  0  0  0  0
   -2.2208    2.3237   -2.2079 C   0  0  0  0  0  0  0  0  0  0  0  0
   -4.9508    0.9803   -4.1988 O   0  0  0  0  0  0  0  0  0  0  0  0
   -3.8474   -1.3452   -3.2271 O   0  0  0  0  0  0  0  0  0  0  0  0
   -2.4996    5.0423    1.9393 O   0  0  0  0  0  0  0  0  0  0  0  0
   -3.6409    4.0763   -0.4280 O   0  0  0  0  0  0  0  0  0  0  0  0
   -5.9396    2.4834   -0.2928 O   0  0  0  0  0  0  0  0  0  0  0  0
   -2.1217   -3.2586    0.7226 O   0  0  0  0  0  0  0  0  0  0  0  0
   -2.8439   -5.6996   -0.4416 O   0  0  0  0  0  0  0  0  0  0  0  0
   -3.2414   -4.9930    2.2376 O   0  0  0  0  0  0  0  0  0  0  0  0
   -7.0322   -5.0055    0.8668 H   0  0  0  0  0  0  0  0  0  0  0  0
   -7.2942   -3.2569    1.0717 H   0  0  0  0  0  0  0  0  0  0  0  0
   -6.2443   -3.8522   -0.2365 H   0  0  0  0  0  0  0  0  0  0  0  0
   -5.6883   -4.1188    2.7530 H   0  0  0  0  0  0  0  0  0  0  0  0
   -4.8191   -6.0047    1.3653 H   0  0  0  0  0  0  0  0  0  0  0  0
   -4.6814   -4.8174   -0.7896 H   0  0  0  0  0  0  0  0  0  0  0  0
   -2.9482   -3.1066   -1.1662 H   0  0  0  0  0  0  0  0  0  0  0  0
   -5.1604   -2.3552   -0.3783 H   0  0  0  0  0  0  0  0  0  0  0  0
   -5.4858    0.0167   -0.1306 H   0  0  0  0  0  0  0  0  0  0  0  0
   -5.1150   -0.1499    1.6023 H   0  0  0  0  0  0  0  0  0  0  0  0
   -3.4787    1.5097   -0.3668 H   0  0  0  0  0  0  0  0  0  0  0  0
   -5.5373    2.3397    1.7299 H   0  0  0  0  0  0  0  0  0  0  0  0
   -5.0014    4.6385    1.0243 H   0  0  0  0  0  0  0  0  0  0  0  0
   -3.7260    3.6870    2.9052 H   0  0  0  0  0  0  0  0  0  0  0  0
   -1.5489    2.5957    2.5128 H   0  0  0  0  0  0  0  0  0  0  0  0
    2.7114   -1.0607   -1.5040 H   0  0  0  0  0  0  0  0  0  0  0  0
    4.8758    0.4381    1.8657 H   0  0  0  0  0  0  0  0  0  0  0  0
    3.3761    2.9586    2.4712 H   0  0  0  0  0  0  0  0  0  0  0  0
    5.7803   -1.3338    1.7235 H   0  0  0  0  0  0  0  0  0  0  0  0
    6.6292   -3.1987    0.2955 H   0  0  0  0  0  0  0  0  0  0  0  0
    6.7257   -1.9825   -1.8454 H   0  0  0  0  0  0  0  0  0  0  0  0
    8.4477   -0.2623   -2.2299 H   0  0  0  0  0  0  0  0  0  0  0  0
    6.2481    0.4727   -1.3928 H   0  0  0  0  0  0  0  0  0  0  0  0
    8.5084    1.9485    0.0295 H   0  0  0  0  0  0  0  0  0  0  0  0
    8.1064    2.1371   -1.6942 H   0  0  0  0  0  0  0  0  0  0  0  0
    7.0020    3.7652   -0.3395 H   0  0  0  0  0  0  0  0  0  0  0  0
   10.0155   -1.0486   -0.6047 H   0  0  0  0  0  0  0  0  0  0  0  0
    8.2687   -3.7827   -1.5285 H   0  0  0  0  0  0  0  0  0  0  0  0
    7.9933   -2.3713    2.0765 H   0  0  0  0  0  0  0  0  0  0  0  0
   -1.7690   -1.0028   -1.6787 H   0  0  0  0  0  0  0  0  0  0  0  0
   -3.7542    3.1731   -3.4238 H   0  0  0  0  0  0  0  0  0  0  0  0
   -1.7959    3.2808   -1.9435 H   0  0  0  0  0  0  0  0  0  0  0  0
   -5.7969    1.0061   -3.7312 H   0  0  0  0  0  0  0  0  0  0  0  0
   -4.5353   -1.6513   -2.6203 H   0  0  0  0  0  0  0  0  0  0  0  0
   -1.8158    5.0938    2.6212 H   0  0  0  0  0  0  0  0  0  0  0  0
   -3.1614    4.9148   -0.4751 H   0  0  0  0  0  0  0  0  0  0  0  0
   -6.6209    3.1670   -0.2322 H   0  0  0  0  0  0  0  0  0  0  0  0
   -1.6952   -2.3909    0.7380 H   0  0  0  0  0  0  0  0  0  0  0  0
   -2.4834   -5.5825   -1.3312 H   0  0  0  0  0  0  0  0  0  0  0  0
   -3.4847   -5.1569    3.1591 H   0  0  0  0  0  0  0  0  0  0  0  0
  1  2  1  0  0  0  0
  2  3  1  0  0  0  0
  3  4  1  0  0  0  0
  4  5  1  0  0  0  0
  5  6  1  0  0  0  0
  6  7  1  0  0  0  0
  2  7  1  0  0  0  0
  6  8  1  0  0  0  0
  8  9  1  0  0  0  0
  9 10  1  0  0  0  0
 10 11  1  0  0  0  0
 11 12  1  0  0  0  0
 12 13  1  0  0  0  0
 13 14  1  0  0  0  0
 14 15  1  0  0  0  0
 10 15  1  0  0  0  0
 14 16  1  0  0  0  0
 16 17  1  0  0  0  0
 17 18  2  0  0  0  0
 18 19  1  0  0  0  0
 19 20  1  0  0  0  0
 20 21  2  0  0  0  0
 21 22  1  0  0  0  0
 22 23  2  0  0  0  0
 23 24  1  0  0  0  0
 24 25  2  0  0  0  0
 20 25  1  0  0  0  0
 25 26  1  0  0  0  0
 17 26  1  0  0  0  0
 26 27  2  0  0  0  0
 24 28  1  0  0  0  0
 22 29  1  0  0  0  0
 29 30  1  0  0  0  0
 30 31  1  0  0  0  0
 31 32  1  0  0  0  0
 32 33  1  0  0  0  0
 33 34  1  0  0  0  0
 34 35  1  0  0  0  0
 30 35  1  0  0  0  0
 34 36  1  0  0  0  0
 36 37  1  0  0  0  0
 33 38  1  0  0  0  0
 32 39  1  0  0  0  0
 31 40  1  0  0  0  0
 18 41  1  0  0  0  0
 41 42  2  0  0  0  0
 42 43  1  0  0  0  0
 43 44  2  0  0  0  0
 44 45  1  0  0  0  0
 45 46  2  0  0  0  0
 41 46  1  0  0  0  0
 44 47  1  0  0  0  0
 43 48  1  0  0  0  0
 13 49  1  0  0  0  0
 12 50  1  0  0  0  0
 11 51  1  0  0  0  0
  5 52  1  0  0  0  0
  4 53  1  0  0  0  0
  3 54  1  0  0  0  0
  1 55  1  0  0  0  0
  1 56  1  0  0  0  0
  1 57  1  0  0  0  0
  2 58  1  0  0  0  0
  3 59  1  0  0  0  0
  4 60  1  0  0  0  0
  5 61  1  0  0  0  0
  6 62  1  0  0  0  0
  9 63  1  0  0  0  0
  9 64  1  0  0  0  0
 10 65  1  0  0  0  0
 11 66  1  0  0  0  0
 12 67  1  0  0  0  0
 13 68  1  0  0  0  0
 14 69  1  0  0  0  0
 21 70  1  0  0  0  0
 23 71  1  0  0  0  0
 28 72  1  0  0  0  0
 30 73  1  0  0  0  0
 31 74  1  0  0  0  0
 32 75  1  0  0  0  0
 33 76  1  0  0  0  0
 34 77  1  0  0  0  0
 36 78  1  0  0  0  0
 36 79  1  0  0  0  0
 37 80  1  0  0  0  0
 38 81  1  0  0  0  0
 39 82  1  0  0  0  0
 40 83  1  0  0  0  0
 42 84  1  0  0  0  0
 45 85  1  0  0  0  0
 46 86  1  0  0  0  0
 47 87  1  0  0  0  0
 48 88  1  0  0  0  0
 49 89  1  0  0  0  0
 50 90  1  0  0  0  0
 51 91  1  0  0  0  0
 52 92  1  0  0  0  0
 53 93  1  0  0  0  0
 54 94  1  0  0  0  0
M  END
$$$$
