C16H20O9
APtclcactv06281817403D 0   0.00000     0.00000
 
 45 46  0  0  0  0  0  0  0  0999 V2000
   -6.5515    2.1134    0.8588 C   0  0  0  0  0  0  0  0  0  0  0  0
   -6.7120    0.8710    0.1712 O   0  0  0  0  0  0  0  0  0  0  0  0
   -5.5907    0.1291   -0.0331 C   0  0  0  0  0  0  0  0  0  0  0  0
   -5.6756   -1.0939   -0.6977 C   0  0  0  0  0  0  0  0  0  0  0  0
   -4.5333   -1.8550   -0.9086 C   0  0  0  0  0  0  0  0  0  0  0  0
   -3.3100   -1.4059   -0.4625 C   0  0  0  0  0  0  0  0  0  0  0  0
   -3.2164   -0.1791    0.2049 C   0  0  0  0  0  0  0  0  0  0  0  0
   -4.3676    0.5898    0.4125 C   0  0  0  0  0  0  0  0  0  0  0  0
   -1.9125    0.3027    0.6820 C   0  0  0  0  0  0  0  0  0  0  0  0
   -0.8021   -0.4388    0.4766 C   0  0  0  0  0  0  0  0  0  0  0  0
    0.4558    0.0259    0.9369 C   0  0  0  0  0  0  0  0  0  0  0  0
    0.5352    1.0924    1.5168 O   0  0  0  0  0  0  0  0  0  0  0  0
    1.5649   -0.7146    0.7318 O   0  0  0  0  0  0  0  0  0  0  0  0
    2.7984   -0.1853    1.2222 C   0  0  0  0  0  0  0  0  0  0  0  0
    3.9145   -1.2115    1.0105 C   0  0  0  0  0  0  0  0  0  0  0  0
    4.0830   -1.4688   -0.4901 C   0  0  0  0  0  0  0  0  0  0  0  0
    4.3734   -0.1403   -1.1952 C   0  0  0  0  0  0  0  0  0  0  0  0
    3.2396    0.8445   -0.8983 C   0  0  0  0  0  0  0  0  0  0  0  0
    3.1165    1.0151    0.5151 O   0  0  0  0  0  0  0  0  0  0  0  0
    3.5516    2.1933   -1.5498 C   0  0  0  0  0  0  0  0  0  0  0  0
    2.4421    3.0762   -1.3720 O   0  0  0  0  0  0  0  0  0  0  0  0
    5.6086    0.3948   -0.7157 O   0  0  0  0  0  0  0  0  0  0  0  0
    5.1717   -2.3700   -0.7013 O   0  0  0  0  0  0  0  0  0  0  0  0
    5.1375   -0.7047    1.5484 O   0  0  0  0  0  0  0  0  0  0  0  0
   -6.8791   -1.5423   -1.1395 O   0  0  0  0  0  0  0  0  0  0  0  0
   -5.8741    2.7554    0.2958 H   0  0  0  0  0  0  0  0  0  0  0  0
   -7.5205    2.6032    0.9550 H   0  0  0  0  0  0  0  0  0  0  0  0
   -6.1376    1.9291    1.8502 H   0  0  0  0  0  0  0  0  0  0  0  0
   -4.6044   -2.8017   -1.4235 H   0  0  0  0  0  0  0  0  0  0  0  0
   -2.4234   -2.0002   -0.6274 H   0  0  0  0  0  0  0  0  0  0  0  0
   -4.3005    1.5372    0.9266 H   0  0  0  0  0  0  0  0  0  0  0  0
   -1.8421    1.2494    1.1969 H   0  0  0  0  0  0  0  0  0  0  0  0
   -0.8725   -1.3856   -0.0382 H   0  0  0  0  0  0  0  0  0  0  0  0
    2.7027    0.0336    2.2857 H   0  0  0  0  0  0  0  0  0  0  0  0
    3.6529   -2.1430    1.5126 H   0  0  0  0  0  0  0  0  0  0  0  0
    3.1665   -1.9017   -0.8910 H   0  0  0  0  0  0  0  0  0  0  0  0
    4.4400   -0.3057   -2.2705 H   0  0  0  0  0  0  0  0  0  0  0  0
    2.3045    0.4543   -1.3002 H   0  0  0  0  0  0  0  0  0  0  0  0
    4.4377    2.6251   -1.0846 H   0  0  0  0  0  0  0  0  0  0  0  0
    3.7341    2.0489   -2.6147 H   0  0  0  0  0  0  0  0  0  0  0  0
    2.5704    3.9522   -1.7609 H   0  0  0  0  0  0  0  0  0  0  0  0
    6.3712   -0.1803   -0.8663 H   0  0  0  0  0  0  0  0  0  0  0  0
    5.0578   -3.2310   -0.2759 H   0  0  0  0  0  0  0  0  0  0  0  0
    5.1015   -0.5144    2.4958 H   0  0  0  0  0  0  0  0  0  0  0  0
   -7.0972   -1.2620   -2.0389 H   0  0  0  0  0  0  0  0  0  0  0  0
  1  2  1  0  0  0  0
  2  3  1  0  0  0  0
  3  4  2  0  0  0  0
  4  5  1  0  0  0  0
  5  6  2  0  0  0  0
  6  7  1  0  0  0  0
  7  8  2  0  0  0  0
  3  8  1  0  0  0  0
  7  9  1  0  0  0  0
  9 10  2  0  0  0  0
 10 11  1  0  0  0  0
 11 12  2  0  0  0  0
 11 13  1  0  0  0  0
 13 14  1  0  0  0  0
 14 15  1  0  0  0  0
 15 16  1  0  0  0  0
 16 17  1  0  0  0  0
 17 18  1  0  0  0  0
 18 19  1  0  0  0  0
 14 19  1  0  0  0  0
 18 20  1  0  0  0  0
 20 21  1  0  0  0  0
 17 22  1  0  0  0  0
 16 23  1  0  0  0  0
 15 24  1  0  0  0  0
  4 25  1  0  0  0  0
  1 26  1  0  0  0  0
  1 27  1  0  0  0  0
  1 28  1  0  0  0  0
  5 29  1  0  0  0  0
  6 30  1  0  0  0  0
  8 31  1  0  0  0  0
  9 32  1  0  0  0  0
 10 33  1  0  0  0  0
 14 34  1  0  0  0  0
 15 35  1  0  0  0  0
 16 36  1  0  0  0  0
 17 37  1  0  0  0  0
 18 38  1  0  0  0  0
 20 39  1  0  0  0  0
 20 40  1  0  0  0  0
 21 41  1  0  0  0  0
 22 42  1  0  0  0  0
 23 43  1  0  0  0  0
 24 44  1  0  0  0  0
 25 45  1  0  0  0  0
M  END
$$$$
