C27H38O3
APtclcactv06281817403D 0   0.00000     0.00000
 
 68 69  0  0  0  0  0  0  0  0999 V2000
   -8.2867    2.0019    0.0950 C   0  0  0  0  0  0  0  0  0  0  0  0
   -8.4102    0.5056   -0.0350 C   0  0  0  0  0  0  0  0  0  0  0  0
   -7.2937   -0.2641   -0.1089 C   0  0  0  0  0  0  0  0  0  0  0  0
   -6.0216    0.3356   -0.0641 C   0  0  0  0  0  0  0  0  0  0  0  0
   -4.9009   -0.4370   -0.1383 C   0  0  0  0  0  0  0  0  0  0  0  0
   -3.6317    0.1613   -0.0935 C   0  0  0  0  0  0  0  0  0  0  0  0
   -2.5099   -0.6120   -0.1678 C   0  0  0  0  0  0  0  0  0  0  0  0
   -2.6334   -2.1083   -0.2978 C   0  0  0  0  0  0  0  0  0  0  0  0
   -1.2406   -0.0137   -0.1231 C   0  0  0  0  0  0  0  0  0  0  0  0
   -0.1199   -0.7862   -0.1973 C   0  0  0  0  0  0  0  0  0  0  0  0
    1.1522   -0.1866   -0.1524 C   0  0  0  0  0  0  0  0  0  0  0  0
    2.2687   -0.9562   -0.2263 C   0  0  0  0  0  0  0  0  0  0  0  0
    2.1452   -2.4525   -0.3564 C   0  0  0  0  0  0  0  0  0  0  0  0
    3.5508   -0.3519   -0.1811 C   0  0  0  0  0  0  0  0  0  0  0  0
    4.6492   -1.1091   -0.2539 C   0  0  0  0  0  0  0  0  0  0  0  0
    6.0117   -0.4668   -0.2058 C   0  0  0  0  0  0  0  0  0  0  0  0
    6.6605   -0.4013    1.1750 C   0  0  0  0  0  0  0  0  0  0  0  0
    7.1343    1.0226    1.4671 C   0  0  0  0  0  0  0  0  0  0  0  0
    8.0519    1.4764    0.3262 C   0  0  0  0  0  0  0  0  0  0  0  0
    7.1919    1.7825   -0.8999 C   0  0  0  0  0  0  0  0  0  0  0  0
    6.3312    0.5814   -1.2603 C   0  0  0  0  0  0  0  0  0  0  0  0
    6.9022   -0.7181   -1.3044 O   0  0  0  0  0  0  0  0  0  0  0  0
    5.2345    0.8619   -2.2896 C   0  0  0  0  0  0  0  0  0  0  0  0
    8.7611    2.6528    0.7203 O   0  0  0  0  0  0  0  0  0  0  0  0
    5.6413   -0.8241    2.2349 C   0  0  0  0  0  0  0  0  0  0  0  0
    7.8577   -1.3531    1.2185 C   0  0  0  0  0  0  0  0  0  0  0  0
   -9.6923   -0.0988   -0.0802 C   0  0  0  0  0  0  0  0  0  0  0  0
  -10.7908    0.6584   -0.0075 C   0  0  0  0  0  0  0  0  0  0  0  0
  -12.1532    0.0162   -0.0555 C   0  0  0  0  0  0  0  0  0  0  0  0
  -12.9853    0.5880    0.9558 O   0  0  0  0  0  0  0  0  0  0  0  0
   -8.2630    2.4521   -0.8973 H   0  0  0  0  0  0  0  0  0  0  0  0
   -9.1408    2.3901    0.6499 H   0  0  0  0  0  0  0  0  0  0  0  0
   -7.3669    2.2457    0.6267 H   0  0  0  0  0  0  0  0  0  0  0  0
   -7.3822   -1.3364   -0.2021 H   0  0  0  0  0  0  0  0  0  0  0  0
   -5.9331    1.4079    0.0291 H   0  0  0  0  0  0  0  0  0  0  0  0
   -4.9894   -1.5093   -0.2315 H   0  0  0  0  0  0  0  0  0  0  0  0
   -3.5431    1.2336   -0.0003 H   0  0  0  0  0  0  0  0  0  0  0  0
   -2.6692   -2.3795   -1.3529 H   0  0  0  0  0  0  0  0  0  0  0  0
   -1.7731   -2.5860    0.1711 H   0  0  0  0  0  0  0  0  0  0  0  0
   -3.5471   -2.4415    0.1943 H   0  0  0  0  0  0  0  0  0  0  0  0
   -1.1521    1.0587   -0.0299 H   0  0  0  0  0  0  0  0  0  0  0  0
   -0.2084   -1.8586   -0.2905 H   0  0  0  0  0  0  0  0  0  0  0  0
    1.2407    0.8857   -0.0592 H   0  0  0  0  0  0  0  0  0  0  0  0
    2.1093   -2.7238   -1.4115 H   0  0  0  0  0  0  0  0  0  0  0  0
    3.0054   -2.9302    0.1125 H   0  0  0  0  0  0  0  0  0  0  0  0
    1.2315   -2.7858    0.1357 H   0  0  0  0  0  0  0  0  0  0  0  0
    3.6393    0.7205   -0.0879 H   0  0  0  0  0  0  0  0  0  0  0  0
    4.5607   -2.1814   -0.3471 H   0  0  0  0  0  0  0  0  0  0  0  0
    6.2738    1.6885    1.5315 H   0  0  0  0  0  0  0  0  0  0  0  0
    7.6844    1.0394    2.4079 H   0  0  0  0  0  0  0  0  0  0  0  0
    8.7594    0.6823    0.0878 H   0  0  0  0  0  0  0  0  0  0  0  0
    6.5483    2.6353   -0.6840 H   0  0  0  0  0  0  0  0  0  0  0  0
    7.8398    2.0257   -1.7420 H   0  0  0  0  0  0  0  0  0  0  0  0
    5.5891    1.6033   -3.0055 H   0  0  0  0  0  0  0  0  0  0  0  0
    4.9848   -0.0600   -2.8148 H   0  0  0  0  0  0  0  0  0  0  0  0
    4.3482    1.2422   -1.7817 H   0  0  0  0  0  0  0  0  0  0  0  0
    9.3615    2.9951    0.0440 H   0  0  0  0  0  0  0  0  0  0  0  0
    5.3114   -1.8437    2.0354 H   0  0  0  0  0  0  0  0  0  0  0  0
    6.1026   -0.7781    3.2214 H   0  0  0  0  0  0  0  0  0  0  0  0
    4.7839   -0.1520    2.2030 H   0  0  0  0  0  0  0  0  0  0  0  0
    8.5836   -1.0587    0.4605 H   0  0  0  0  0  0  0  0  0  0  0  0
    8.3223   -1.3078    2.2035 H   0  0  0  0  0  0  0  0  0  0  0  0
    7.5201   -2.3708    1.0225 H   0  0  0  0  0  0  0  0  0  0  0  0
   -9.7808   -1.1711   -0.1734 H   0  0  0  0  0  0  0  0  0  0  0  0
  -10.7022    1.7307    0.0857 H   0  0  0  0  0  0  0  0  0  0  0  0
  -12.6012    0.1872   -1.0343 H   0  0  0  0  0  0  0  0  0  0  0  0
  -12.0559   -1.0557    0.1172 H   0  0  0  0  0  0  0  0  0  0  0  0
  -13.8796    0.2211    0.9832 H   0  0  0  0  0  0  0  0  0  0  0  0
  1  2  1  0  0  0  0
  2  3  2  0  0  0  0
  3  4  1  0  0  0  0
  4  5  2  0  0  0  0
  5  6  1  0  0  0  0
  6  7  2  0  0  0  0
  7  8  1  0  0  0  0
  7  9  1  0  0  0  0
  9 10  2  0  0  0  0
 10 11  1  0  0  0  0
 11 12  2  0  0  0  0
 12 13  1  0  0  0  0
 12 14  1  0  0  0  0
 14 15  2  0  0  0  0
 15 16  1  0  0  0  0
 16 17  1  0  0  0  0
 17 18  1  0  0  0  0
 18 19  1  0  0  0  0
 19 20  1  0  0  0  0
 20 21  1  0  0  0  0
 16 21  1  0  0  0  0
 21 22  1  0  0  0  0
 16 22  1  0  0  0  0
 21 23  1  0  0  0  0
 19 24  1  0  0  0  0
 17 25  1  0  0  0  0
 17 26  1  0  0  0  0
  2 27  1  0  0  0  0
 27 28  2  0  0  0  0
 28 29  1  0  0  0  0
 29 30  1  0  0  0  0
  1 31  1  0  0  0  0
  1 32  1  0  0  0  0
  1 33  1  0  0  0  0
  3 34  1  0  0  0  0
  4 35  1  0  0  0  0
  5 36  1  0  0  0  0
  6 37  1  0  0  0  0
  8 38  1  0  0  0  0
  8 39  1  0  0  0  0
  8 40  1  0  0  0  0
  9 41  1  0  0  0  0
 10 42  1  0  0  0  0
 11 43  1  0  0  0  0
 13 44  1  0  0  0  0
 13 45  1  0  0  0  0
 13 46  1  0  0  0  0
 14 47  1  0  0  0  0
 15 48  1  0  0  0  0
 18 49  1  0  0  0  0
 18 50  1  0  0  0  0
 19 51  1  0  0  0  0
 20 52  1  0  0  0  0
 20 53  1  0  0  0  0
 23 54  1  0  0  0  0
 23 55  1  0  0  0  0
 23 56  1  0  0  0  0
 24 57  1  0  0  0  0
 25 58  1  0  0  0  0
 25 59  1  0  0  0  0
 25 60  1  0  0  0  0
 26 61  1  0  0  0  0
 26 62  1  0  0  0  0
 26 63  1  0  0  0  0
 27 64  1  0  0  0  0
 28 65  1  0  0  0  0
 29 66  1  0  0  0  0
 29 67  1  0  0  0  0
 30 68  1  0  0  0  0
M  END
$$$$
