C40H56O2
APtclcactv06281817403D 0   0.00000     0.00000
 
 98101  0  0  0  0  0  0  0  0999 V2000
   -2.8550    2.0587   -0.1193 C   0  0  0  0  0  0  0  0  0  0  0  0
   -2.9679    0.5559   -0.1193 C   0  0  0  0  0  0  0  0  0  0  0  0
   -1.8309   -0.2196   -0.1193 C   0  0  0  0  0  0  0  0  0  0  0  0
   -0.5688    0.3879   -0.1193 C   0  0  0  0  0  0  0  0  0  0  0  0
    0.5688   -0.3879   -0.1193 C   0  0  0  0  0  0  0  0  0  0  0  0
    1.8309    0.2196   -0.1193 C   0  0  0  0  0  0  0  0  0  0  0  0
    2.9679   -0.5559   -0.1193 C   0  0  0  0  0  0  0  0  0  0  0  0
    2.8550   -2.0587   -0.1193 C   0  0  0  0  0  0  0  0  0  0  0  0
    4.2314    0.0522   -0.1193 C   0  0  0  0  0  0  0  0  0  0  0  0
    5.3587   -0.7167   -0.1193 C   0  0  0  0  0  0  0  0  0  0  0  0
    6.6256   -0.1068   -0.1193 C   0  0  0  0  0  0  0  0  0  0  0  0
    7.7482   -0.8725   -0.1193 C   0  0  0  0  0  0  0  0  0  0  0  0
    7.6353   -2.3752   -0.1193 C   0  0  0  0  0  0  0  0  0  0  0  0
    9.0257   -0.2576   -0.1193 C   0  0  0  0  0  0  0  0  0  0  0  0
   10.1298   -1.0107   -0.1193 C   0  0  0  0  0  0  0  0  0  0  0  0
   11.4876   -0.3570   -0.1193 C   0  0  0  0  0  0  0  0  0  0  0  0
   12.1046   -0.1777    1.2521 C   0  0  0  0  0  0  0  0  0  0  0  0
   13.2757    0.7818    1.2446 C   0  0  0  0  0  0  0  0  0  0  0  0
   12.9844    2.0603    0.4907 C   0  0  0  0  0  0  0  0  0  0  0  0
   12.7036    1.8264   -0.9787 C   0  0  0  0  0  0  0  0  0  0  0  0
   11.7290    0.6802   -1.2040 C   0  0  0  0  0  0  0  0  0  0  0  0
   12.3042   -0.6126   -1.2534 O   0  0  0  0  0  0  0  0  0  0  0  0
   10.5770    0.9745   -2.1669 C   0  0  0  0  0  0  0  0  0  0  0  0
   11.0358    0.3547    2.2088 C   0  0  0  0  0  0  0  0  0  0  0  0
   12.5843   -1.5388    1.7599 C   0  0  0  0  0  0  0  0  0  0  0  0
   -4.2314   -0.0522   -0.1193 C   0  0  0  0  0  0  0  0  0  0  0  0
   -5.3587    0.7167   -0.1193 C   0  0  0  0  0  0  0  0  0  0  0  0
   -6.6256    0.1068   -0.1193 C   0  0  0  0  0  0  0  0  0  0  0  0
   -7.7482    0.8725   -0.1193 C   0  0  0  0  0  0  0  0  0  0  0  0
   -7.6353    2.3752   -0.1193 C   0  0  0  0  0  0  0  0  0  0  0  0
   -9.0257    0.2576   -0.1193 C   0  0  0  0  0  0  0  0  0  0  0  0
  -10.1298    1.0106   -0.1193 C   0  0  0  0  0  0  0  0  0  0  0  0
  -11.4876    0.3570   -0.1193 C   0  0  0  0  0  0  0  0  0  0  0  0
  -12.1046    0.1777    1.2521 C   0  0  0  0  0  0  0  0  0  0  0  0
  -13.2757   -0.7818    1.2446 C   0  0  0  0  0  0  0  0  0  0  0  0
  -12.9844   -2.0603    0.4907 C   0  0  0  0  0  0  0  0  0  0  0  0
  -12.7036   -1.8264   -0.9787 C   0  0  0  0  0  0  0  0  0  0  0  0
  -11.7290   -0.6802   -1.2040 C   0  0  0  0  0  0  0  0  0  0  0  0
  -12.3042    0.6126   -1.2534 O   0  0  0  0  0  0  0  0  0  0  0  0
  -10.5770   -0.9745   -2.1669 C   0  0  0  0  0  0  0  0  0  0  0  0
  -11.0358   -0.3547    2.2088 C   0  0  0  0  0  0  0  0  0  0  0  0
  -12.5843    1.5388    1.7599 C   0  0  0  0  0  0  0  0  0  0  0  0
   -2.8278    2.4210   -1.1470 H   0  0  0  0  0  0  0  0  0  0  0  0
   -3.7153    2.4877    0.3945 H   0  0  0  0  0  0  0  0  0  0  0  0
   -1.9403    2.3543    0.3945 H   0  0  0  0  0  0  0  0  0  0  0  0
   -1.9118   -1.2966   -0.1193 H   0  0  0  0  0  0  0  0  0  0  0  0
   -0.4879    1.4649   -0.1193 H   0  0  0  0  0  0  0  0  0  0  0  0
    0.4879   -1.4649   -0.1193 H   0  0  0  0  0  0  0  0  0  0  0  0
    1.9118    1.2966   -0.1193 H   0  0  0  0  0  0  0  0  0  0  0  0
    2.8278   -2.4210   -1.1470 H   0  0  0  0  0  0  0  0  0  0  0  0
    3.7153   -2.4877    0.3945 H   0  0  0  0  0  0  0  0  0  0  0  0
    1.9403   -2.3543    0.3945 H   0  0  0  0  0  0  0  0  0  0  0  0
    4.3123    1.1292   -0.1193 H   0  0  0  0  0  0  0  0  0  0  0  0
    5.2778   -1.7936   -0.1193 H   0  0  0  0  0  0  0  0  0  0  0  0
    6.7066    0.9701   -0.1193 H   0  0  0  0  0  0  0  0  0  0  0  0
    7.6081   -2.7376   -1.1470 H   0  0  0  0  0  0  0  0  0  0  0  0
    8.4956   -2.8042    0.3945 H   0  0  0  0  0  0  0  0  0  0  0  0
    6.7206   -2.6709    0.3945 H   0  0  0  0  0  0  0  0  0  0  0  0
    9.1066    0.8194   -0.1193 H   0  0  0  0  0  0  0  0  0  0  0  0
   10.0489   -2.0876   -0.1193 H   0  0  0  0  0  0  0  0  0  0  0  0
   13.5315    1.0318    2.2743 H   0  0  0  0  0  0  0  0  0  0  0  0
   14.1308    0.2887    0.7825 H   0  0  0  0  0  0  0  0  0  0  0  0
   12.1177    2.5441    0.9413 H   0  0  0  0  0  0  0  0  0  0  0  0
   13.8427    2.7258    0.5828 H   0  0  0  0  0  0  0  0  0  0  0  0
   12.2843    2.7365   -1.4077 H   0  0  0  0  0  0  0  0  0  0  0  0
   13.6411    1.5981   -1.4857 H   0  0  0  0  0  0  0  0  0  0  0  0
   10.9242    1.6422   -2.9554 H   0  0  0  0  0  0  0  0  0  0  0  0
   10.2257    0.0421   -2.6088 H   0  0  0  0  0  0  0  0  0  0  0  0
    9.7606    1.4489   -1.6224 H   0  0  0  0  0  0  0  0  0  0  0  0
   10.2118   -0.3566    2.2651 H   0  0  0  0  0  0  0  0  0  0  0  0
   11.4693    0.4877    3.2001 H   0  0  0  0  0  0  0  0  0  0  0  0
   10.6650    1.3121    1.8429 H   0  0  0  0  0  0  0  0  0  0  0  0
   13.3266   -1.9425    1.0714 H   0  0  0  0  0  0  0  0  0  0  0  0
   13.0306   -1.4215    2.7474 H   0  0  0  0  0  0  0  0  0  0  0  0
   11.7375   -2.2222    1.8228 H   0  0  0  0  0  0  0  0  0  0  0  0
   -4.3123   -1.1292   -0.1193 H   0  0  0  0  0  0  0  0  0  0  0  0
   -5.2778    1.7936   -0.1193 H   0  0  0  0  0  0  0  0  0  0  0  0
   -6.7066   -0.9701   -0.1193 H   0  0  0  0  0  0  0  0  0  0  0  0
   -7.6081    2.7376   -1.1470 H   0  0  0  0  0  0  0  0  0  0  0  0
   -8.4956    2.8042    0.3945 H   0  0  0  0  0  0  0  0  0  0  0  0
   -6.7206    2.6709    0.3945 H   0  0  0  0  0  0  0  0  0  0  0  0
   -9.1066   -0.8194   -0.1193 H   0  0  0  0  0  0  0  0  0  0  0  0
  -10.0489    2.0876   -0.1193 H   0  0  0  0  0  0  0  0  0  0  0  0
  -13.5315   -1.0318    2.2743 H   0  0  0  0  0  0  0  0  0  0  0  0
  -14.1308   -0.2887    0.7825 H   0  0  0  0  0  0  0  0  0  0  0  0
  -12.1177   -2.5441    0.9413 H   0  0  0  0  0  0  0  0  0  0  0  0
  -13.8427   -2.7258    0.5828 H   0  0  0  0  0  0  0  0  0  0  0  0
  -12.2843   -2.7365   -1.4077 H   0  0  0  0  0  0  0  0  0  0  0  0
  -13.6411   -1.5981   -1.4857 H   0  0  0  0  0  0  0  0  0  0  0  0
  -10.9242   -1.6422   -2.9554 H   0  0  0  0  0  0  0  0  0  0  0  0
  -10.2257   -0.0421   -2.6088 H   0  0  0  0  0  0  0  0  0  0  0  0
   -9.7606   -1.4489   -1.6224 H   0  0  0  0  0  0  0  0  0  0  0  0
  -10.2118    0.3566    2.2651 H   0  0  0  0  0  0  0  0  0  0  0  0
  -11.4693   -0.4877    3.2001 H   0  0  0  0  0  0  0  0  0  0  0  0
  -10.6650   -1.3121    1.8429 H   0  0  0  0  0  0  0  0  0  0  0  0
  -13.3266    1.9425    1.0714 H   0  0  0  0  0  0  0  0  0  0  0  0
  -13.0306    1.4215    2.7474 H   0  0  0  0  0  0  0  0  0  0  0  0
  -11.7375    2.2222    1.8228 H   0  0  0  0  0  0  0  0  0  0  0  0
  1  2  1  0  0  0  0
  2  3  2  0  0  0  0
  3  4  1  0  0  0  0
  4  5  2  0  0  0  0
  5  6  1  0  0  0  0
  6  7  2  0  0  0  0
  7  8  1  0  0  0  0
  7  9  1  0  0  0  0
  9 10  2  0  0  0  0
 10 11  1  0  0  0  0
 11 12  2  0  0  0  0
 12 13  1  0  0  0  0
 12 14  1  0  0  0  0
 14 15  2  0  0  0  0
 15 16  1  0  0  0  0
 16 17  1  0  0  0  0
 17 18  1  0  0  0  0
 18 19  1  0  0  0  0
 19 20  1  0  0  0  0
 20 21  1  0  0  0  0
 16 21  1  0  0  0  0
 21 22  1  0  0  0  0
 16 22  1  0  0  0  0
 21 23  1  0  0  0  0
 17 24  1  0  0  0  0
 17 25  1  0  0  0  0
  2 26  1  0  0  0  0
 26 27  2  0  0  0  0
 27 28  1  0  0  0  0
 28 29  2  0  0  0  0
 29 30  1  0  0  0  0
 29 31  1  0  0  0  0
 31 32  2  0  0  0  0
 32 33  1  0  0  0  0
 33 34  1  0  0  0  0
 34 35  1  0  0  0  0
 35 36  1  0  0  0  0
 36 37  1  0  0  0  0
 37 38  1  0  0  0  0
 33 38  1  0  0  0  0
 38 39  1  0  0  0  0
 33 39  1  0  0  0  0
 38 40  1  0  0  0  0
 34 41  1  0  0  0  0
 34 42  1  0  0  0  0
  1 43  1  0  0  0  0
  1 44  1  0  0  0  0
  1 45  1  0  0  0  0
  3 46  1  0  0  0  0
  4 47  1  0  0  0  0
  5 48  1  0  0  0  0
  6 49  1  0  0  0  0
  8 50  1  0  0  0  0
  8 51  1  0  0  0  0
  8 52  1  0  0  0  0
  9 53  1  0  0  0  0
 10 54  1  0  0  0  0
 11 55  1  0  0  0  0
 13 56  1  0  0  0  0
 13 57  1  0  0  0  0
 13 58  1  0  0  0  0
 14 59  1  0  0  0  0
 15 60  1  0  0  0  0
 18 61  1  0  0  0  0
 18 62  1  0  0  0  0
 19 63  1  0  0  0  0
 19 64  1  0  0  0  0
 20 65  1  0  0  0  0
 20 66  1  0  0  0  0
 23 67  1  0  0  0  0
 23 68  1  0  0  0  0
 23 69  1  0  0  0  0
 24 70  1  0  0  0  0
 24 71  1  0  0  0  0
 24 72  1  0  0  0  0
 25 73  1  0  0  0  0
 25 74  1  0  0  0  0
 25 75  1  0  0  0  0
 26 76  1  0  0  0  0
 27 77  1  0  0  0  0
 28 78  1  0  0  0  0
 30 79  1  0  0  0  0
 30 80  1  0  0  0  0
 30 81  1  0  0  0  0
 31 82  1  0  0  0  0
 32 83  1  0  0  0  0
 35 84  1  0  0  0  0
 35 85  1  0  0  0  0
 36 86  1  0  0  0  0
 36 87  1  0  0  0  0
 37 88  1  0  0  0  0
 37 89  1  0  0  0  0
 40 90  1  0  0  0  0
 40 91  1  0  0  0  0
 40 92  1  0  0  0  0
 41 93  1  0  0  0  0
 41 94  1  0  0  0  0
 41 95  1  0  0  0  0
 42 96  1  0  0  0  0
 42 97  1  0  0  0  0
 42 98  1  0  0  0  0
M  END
$$$$
