C19H18O8
APtclcactv06281817403D 0   0.00000     0.00000
 
 45 47  0  0  0  0  0  0  0  0999 V2000
    6.0031    1.9797    0.0745 C   0  0  0  0  0  0  0  0  0  0  0  0
    4.5964    2.1701   -0.0894 O   0  0  0  0  0  0  0  0  0  0  0  0
    3.8138    1.0607   -0.0388 C   0  0  0  0  0  0  0  0  0  0  0  0
    2.4385    1.1811   -0.1914 C   0  0  0  0  0  0  0  0  0  0  0  0
    1.6333    0.0501   -0.1411 C   0  0  0  0  0  0  0  0  0  0  0  0
    2.2231   -1.2085    0.0648 C   0  0  0  0  0  0  0  0  0  0  0  0
    3.6103   -1.3206    0.2180 C   0  0  0  0  0  0  0  0  0  0  0  0
    4.3973   -0.1855    0.1595 C   0  0  0  0  0  0  0  0  0  0  0  0
    4.1796   -2.5373    0.4169 O   0  0  0  0  0  0  0  0  0  0  0  0
    1.3502   -2.3942    0.1148 C   0  0  0  0  0  0  0  0  0  0  0  0
    1.8085   -3.5117    0.2913 O   0  0  0  0  0  0  0  0  0  0  0  0
   -0.0384   -2.1878   -0.0491 C   0  0  0  0  0  0  0  0  0  0  0  0
   -0.5116   -0.9256   -0.2436 C   0  0  0  0  0  0  0  0  0  0  0  0
    0.2938    0.1477   -0.2869 O   0  0  0  0  0  0  0  0  0  0  0  0
   -1.9616   -0.7307   -0.4128 C   0  0  0  0  0  0  0  0  0  0  0  0
   -2.6580    0.1424    0.4352 C   0  0  0  0  0  0  0  0  0  0  0  0
   -4.0240    0.3203    0.2681 C   0  0  0  0  0  0  0  0  0  0  0  0
   -4.6960   -0.3663   -0.7370 C   0  0  0  0  0  0  0  0  0  0  0  0
   -4.0044   -1.2320   -1.5767 C   0  0  0  0  0  0  0  0  0  0  0  0
   -2.6482   -1.4116   -1.4237 C   0  0  0  0  0  0  0  0  0  0  0  0
   -6.0334   -0.1908   -0.8989 O   0  0  0  0  0  0  0  0  0  0  0  0
   -4.7058    1.1660    1.0881 O   0  0  0  0  0  0  0  0  0  0  0  0
   -4.8936    2.5055    0.6272 C   0  0  0  0  0  0  0  0  0  0  0  0
   -1.9982    0.8110    1.4162 O   0  0  0  0  0  0  0  0  0  0  0  0
   -1.8264    0.1318    2.6616 C   0  0  0  0  0  0  0  0  0  0  0  0
    1.8798    2.4069   -0.3899 O   0  0  0  0  0  0  0  0  0  0  0  0
    1.7405    2.8451   -1.7429 C   0  0  0  0  0  0  0  0  0  0  0  0
    6.1977    1.5281    1.0473 H   0  0  0  0  0  0  0  0  0  0  0  0
    6.3750    1.3228   -0.7119 H   0  0  0  0  0  0  0  0  0  0  0  0
    6.5097    2.9429    0.0132 H   0  0  0  0  0  0  0  0  0  0  0  0
    5.4679   -0.2660    0.2767 H   0  0  0  0  0  0  0  0  0  0  0  0
    4.4328   -2.9912   -0.3986 H   0  0  0  0  0  0  0  0  0  0  0  0
   -0.7196   -3.0254   -0.0205 H   0  0  0  0  0  0  0  0  0  0  0  0
   -4.5326   -1.7624   -2.3552 H   0  0  0  0  0  0  0  0  0  0  0  0
   -2.1155   -2.0850   -2.0788 H   0  0  0  0  0  0  0  0  0  0  0  0
   -6.2656    0.5264   -1.5046 H   0  0  0  0  0  0  0  0  0  0  0  0
   -5.5247    3.0471    1.3319 H   0  0  0  0  0  0  0  0  0  0  0  0
   -3.9264    3.0021    0.5497 H   0  0  0  0  0  0  0  0  0  0  0  0
   -5.3731    2.4891   -0.3516 H   0  0  0  0  0  0  0  0  0  0  0  0
   -2.7976   -0.1911    3.0365 H   0  0  0  0  0  0  0  0  0  0  0  0
   -1.1858   -0.7380    2.5158 H   0  0  0  0  0  0  0  0  0  0  0  0
   -1.3646    0.8063    3.3826 H   0  0  0  0  0  0  0  0  0  0  0  0
    1.2829    3.8342   -1.7592 H   0  0  0  0  0  0  0  0  0  0  0  0
    2.7229    2.8914   -2.2127 H   0  0  0  0  0  0  0  0  0  0  0  0
    1.1094    2.1437   -2.2887 H   0  0  0  0  0  0  0  0  0  0  0  0
  1  2  1  0  0  0  0
  2  3  1  0  0  0  0
  3  4  2  0  0  0  0
  4  5  1  0  0  0  0
  5  6  2  0  0  0  0
  6  7  1  0  0  0  0
  7  8  2  0  0  0  0
  3  8  1  0  0  0  0
  7  9  1  0  0  0  0
  6 10  1  0  0  0  0
 10 11  2  0  0  0  0
 10 12  1  0  0  0  0
 12 13  2  0  0  0  0
 13 14  1  0  0  0  0
  5 14  1  0  0  0  0
 13 15  1  0  0  0  0
 15 16  2  0  0  0  0
 16 17  1  0  0  0  0
 17 18  2  0  0  0  0
 18 19  1  0  0  0  0
 19 20  2  0  0  0  0
 15 20  1  0  0  0  0
 18 21  1  0  0  0  0
 17 22  1  0  0  0  0
 22 23  1  0  0  0  0
 16 24  1  0  0  0  0
 24 25  1  0  0  0  0
  4 26  1  0  0  0  0
 26 27  1  0  0  0  0
  1 28  1  0  0  0  0
  1 29  1  0  0  0  0
  1 30  1  0  0  0  0
  8 31  1  0  0  0  0
  9 32  1  0  0  0  0
 12 33  1  0  0  0  0
 19 34  1  0  0  0  0
 20 35  1  0  0  0  0
 21 36  1  0  0  0  0
 23 37  1  0  0  0  0
 23 38  1  0  0  0  0
 23 39  1  0  0  0  0
 25 40  1  0  0  0  0
 25 41  1  0  0  0  0
 25 42  1  0  0  0  0
 27 43  1  0  0  0  0
 27 44  1  0  0  0  0
 27 45  1  0  0  0  0
M  END
$$$$
