C21H18O6
APtclcactv06281817403D 0   0.00000     0.00000
 
 45 48  0  0  0  0  0  0  0  0999 V2000
    4.4718   -2.8359    0.2732 C   0  0  0  0  0  0  0  0  0  0  0  0
    3.3513   -2.7819   -0.7332 C   0  0  0  0  0  0  0  0  0  0  0  0
    2.2991   -2.0365   -0.5026 C   0  0  0  0  0  0  0  0  0  0  0  0
    2.2599   -1.1429    0.7103 C   0  0  0  0  0  0  0  0  0  0  0  0
    1.9534    0.2697    0.2839 C   0  0  0  0  0  0  0  0  0  0  0  0
    0.6338    0.6706    0.0905 C   0  0  0  0  0  0  0  0  0  0  0  0
    0.3439    1.9853   -0.3061 C   0  0  0  0  0  0  0  0  0  0  0  0
    1.3862    2.8825   -0.5031 C   0  0  0  0  0  0  0  0  0  0  0  0
    2.6942    2.4792   -0.3095 C   0  0  0  0  0  0  0  0  0  0  0  0
    2.9800    1.1733    0.0888 C   0  0  0  0  0  0  0  0  0  0  0  0
    4.2708    0.7869    0.2769 O   0  0  0  0  0  0  0  0  0  0  0  0
    4.8153    0.9593    1.5868 C   0  0  0  0  0  0  0  0  0  0  0  0
    3.7093    3.3631   -0.5048 O   0  0  0  0  0  0  0  0  0  0  0  0
   -0.9976    2.1067   -0.4203 O   0  0  0  0  0  0  0  0  0  0  0  0
   -1.6217    0.9566   -0.1253 C   0  0  0  0  0  0  0  0  0  0  0  0
   -0.6696   -0.0034    0.2080 C   0  0  0  0  0  0  0  0  0  0  0  0
   -1.0818   -1.3067    0.5593 C   0  0  0  0  0  0  0  0  0  0  0  0
   -0.2429   -2.1400    0.8499 O   0  0  0  0  0  0  0  0  0  0  0  0
   -2.3815   -1.6459    0.5800 O   0  0  0  0  0  0  0  0  0  0  0  0
   -3.3569   -0.7646    0.2680 C   0  0  0  0  0  0  0  0  0  0  0  0
   -3.0339    0.5550   -0.0929 C   0  0  0  0  0  0  0  0  0  0  0  0
   -4.0466    1.4625   -0.4155 C   0  0  0  0  0  0  0  0  0  0  0  0
   -5.3526    1.0646   -0.3798 C   0  0  0  0  0  0  0  0  0  0  0  0
   -5.6805   -0.2411   -0.0234 C   0  0  0  0  0  0  0  0  0  0  0  0
   -4.6889   -1.1521    0.3005 C   0  0  0  0  0  0  0  0  0  0  0  0
   -6.9830   -0.6237    0.0081 O   0  0  0  0  0  0  0  0  0  0  0  0
    3.4414   -3.5855   -2.0049 C   0  0  0  0  0  0  0  0  0  0  0  0
    4.0726   -3.1215    1.2464 H   0  0  0  0  0  0  0  0  0  0  0  0
    5.2116   -3.5701   -0.0458 H   0  0  0  0  0  0  0  0  0  0  0  0
    4.9416   -1.8551    0.3468 H   0  0  0  0  0  0  0  0  0  0  0  0
    1.4597   -2.0623   -1.1816 H   0  0  0  0  0  0  0  0  0  0  0  0
    1.4861   -1.4920    1.3940 H   0  0  0  0  0  0  0  0  0  0  0  0
    3.2271   -1.1691    1.2123 H   0  0  0  0  0  0  0  0  0  0  0  0
    1.1742    3.8966   -0.8084 H   0  0  0  0  0  0  0  0  0  0  0  0
    5.8486    0.6124    1.5993 H   0  0  0  0  0  0  0  0  0  0  0  0
    4.7831    2.0146    1.8577 H   0  0  0  0  0  0  0  0  0  0  0  0
    4.2297    0.3824    2.3025 H   0  0  0  0  0  0  0  0  0  0  0  0
    3.9528    3.8633    0.2861 H   0  0  0  0  0  0  0  0  0  0  0  0
   -3.7970    2.4762   -0.6922 H   0  0  0  0  0  0  0  0  0  0  0  0
   -6.1350    1.7661   -0.6289 H   0  0  0  0  0  0  0  0  0  0  0  0
   -4.9517   -2.1629    0.5756 H   0  0  0  0  0  0  0  0  0  0  0  0
   -7.3090   -0.9787   -0.8302 H   0  0  0  0  0  0  0  0  0  0  0  0
    3.0047   -4.5711   -1.8436 H   0  0  0  0  0  0  0  0  0  0  0  0
    2.8975   -3.0725   -2.7981 H   0  0  0  0  0  0  0  0  0  0  0  0
    4.4871   -3.6941   -2.2928 H   0  0  0  0  0  0  0  0  0  0  0  0
  1  2  1  0  0  0  0
  2  3  2  0  0  0  0
  3  4  1  0  0  0  0
  4  5  1  0  0  0  0
  5  6  2  0  0  0  0
  6  7  1  0  0  0  0
  7  8  2  0  0  0  0
  8  9  1  0  0  0  0
  9 10  2  0  0  0  0
  5 10  1  0  0  0  0
 10 11  1  0  0  0  0
 11 12  1  0  0  0  0
  9 13  1  0  0  0  0
  7 14  1  0  0  0  0
 14 15  1  0  0  0  0
 15 16  2  0  0  0  0
  6 16  1  0  0  0  0
 16 17  1  0  0  0  0
 17 18  2  0  0  0  0
 17 19  1  0  0  0  0
 19 20  1  0  0  0  0
 20 21  2  0  0  0  0
 15 21  1  0  0  0  0
 21 22  1  0  0  0  0
 22 23  2  0  0  0  0
 23 24  1  0  0  0  0
 24 25  2  0  0  0  0
 20 25  1  0  0  0  0
 24 26  1  0  0  0  0
  2 27  1  0  0  0  0
  1 28  1  0  0  0  0
  1 29  1  0  0  0  0
  1 30  1  0  0  0  0
  3 31  1  0  0  0  0
  4 32  1  0  0  0  0
  4 33  1  0  0  0  0
  8 34  1  0  0  0  0
 12 35  1  0  0  0  0
 12 36  1  0  0  0  0
 12 37  1  0  0  0  0
 13 38  1  0  0  0  0
 22 39  1  0  0  0  0
 23 40  1  0  0  0  0
 25 41  1  0  0  0  0
 26 42  1  0  0  0  0
 27 43  1  0  0  0  0
 27 44  1  0  0  0  0
 27 45  1  0  0  0  0
M  END
$$$$
