C32H52O2
APtclcactv06281817403D 0   0.00000     0.00000
 
 86 90  0  0  0  0  0  0  0  0999 V2000
   -4.1040   -2.2385   -1.6006 C   0  0  0  0  0  0  0  0  0  0  0  0
   -4.3627   -1.4722   -0.2896 C   0  0  0  0  0  0  0  0  0  0  0  0
   -3.6632   -0.1181   -0.3608 C   0  0  0  0  0  0  0  0  0  0  0  0
   -2.1690   -0.1994   -0.1840 C   0  0  0  0  0  0  0  0  0  0  0  0
   -1.6152   -1.5120    0.3430 C   0  0  0  0  0  0  0  0  0  0  0  0
   -0.0786   -1.5077    0.2019 C   0  0  0  0  0  0  0  0  0  0  0  0
    0.3409   -0.2139   -0.4822 C   0  0  0  0  0  0  0  0  0  0  0  0
    1.7793   -0.2134   -0.9887 C   0  0  0  0  0  0  0  0  0  0  0  0
    2.4679   -1.5299   -0.6281 C   0  0  0  0  0  0  0  0  0  0  0  0
    3.8932   -1.5244   -1.1828 C   0  0  0  0  0  0  0  0  0  0  0  0
    4.6928   -0.3819   -0.5703 C   0  0  0  0  0  0  0  0  0  0  0  0
    4.0422    0.9799   -0.8167 C   0  0  0  0  0  0  0  0  0  0  0  0
    2.5669    0.9604   -0.4405 C   0  0  0  0  0  0  0  0  0  0  0  0
    1.8738    2.2820   -0.7260 C   0  0  0  0  0  0  0  0  0  0  0  0
    0.3952    2.2824   -0.3326 C   0  0  0  0  0  0  0  0  0  0  0  0
   -0.0346    0.9971    0.3459 C   0  0  0  0  0  0  0  0  0  0  0  0
   -1.5692    0.9767    0.5772 C   0  0  0  0  0  0  0  0  0  0  0  0
   -2.2229    2.2605    0.1047 C   0  0  0  0  0  0  0  0  0  0  0  0
   -3.7044    2.2874    0.4524 C   0  0  0  0  0  0  0  0  0  0  0  0
   -4.3937    0.9341    0.4505 C   0  0  0  0  0  0  0  0  0  0  0  0
   -5.7688    1.1244   -0.2499 C   0  0  0  0  0  0  0  0  0  0  0  0
   -6.4859   -0.1951   -0.1916 C   0  0  0  0  0  0  0  0  0  0  0  0
   -5.8598   -1.3253   -0.1928 C   0  0  0  0  0  0  0  0  0  0  0  0
   -6.6806   -2.5881   -0.0925 C   0  0  0  0  0  0  0  0  0  0  0  0
   -4.7082    0.4680    1.8765 C   0  0  0  0  0  0  0  0  0  0  0  0
   -1.7213    0.8200    2.0964 C   0  0  0  0  0  0  0  0  0  0  0  0
    0.5507    0.9203    1.7709 C   0  0  0  0  0  0  0  0  0  0  0  0
    4.7566    1.9792    0.1275 C   0  0  0  0  0  0  0  0  0  0  0  0
    4.3055    1.4448   -2.2447 C   0  0  0  0  0  0  0  0  0  0  0  0
    4.8265   -0.5924    0.8639 O   0  0  0  0  0  0  0  0  0  0  0  0
    5.8947   -1.2904    1.2804 C   0  0  0  0  0  0  0  0  0  0  0  0
    6.6919   -1.7120    0.4763 O   0  0  0  0  0  0  0  0  0  0  0  0
    6.0997   -1.5482    2.7510 C   0  0  0  0  0  0  0  0  0  0  0  0
    1.6703   -0.1388   -2.5261 C   0  0  0  0  0  0  0  0  0  0  0  0
   -3.0316   -2.3846   -1.7305 H   0  0  0  0  0  0  0  0  0  0  0  0
   -4.6003   -3.2080   -1.5589 H   0  0  0  0  0  0  0  0  0  0  0  0
   -4.4968   -1.6651   -2.4402 H   0  0  0  0  0  0  0  0  0  0  0  0
   -4.0020   -2.0566    0.5476 H   0  0  0  0  0  0  0  0  0  0  0  0
   -3.8111    0.2028   -1.4428 H   0  0  0  0  0  0  0  0  0  0  0  0
   -1.7884   -0.0967   -1.2384 H   0  0  0  0  0  0  0  0  0  0  0  0
   -1.8752   -1.6646    1.3873 H   0  0  0  0  0  0  0  0  0  0  0  0
   -1.9804   -2.3603   -0.2369 H   0  0  0  0  0  0  0  0  0  0  0  0
    0.3841   -1.6345    1.1714 H   0  0  0  0  0  0  0  0  0  0  0  0
    0.1919   -2.3600   -0.4325 H   0  0  0  0  0  0  0  0  0  0  0  0
   -0.2449   -0.1579   -1.4339 H   0  0  0  0  0  0  0  0  0  0  0  0
    2.4900   -1.6541    0.4520 H   0  0  0  0  0  0  0  0  0  0  0  0
    1.9189   -2.3617   -1.0761 H   0  0  0  0  0  0  0  0  0  0  0  0
    4.3760   -2.4728   -0.9130 H   0  0  0  0  0  0  0  0  0  0  0  0
    3.8866   -1.4509   -2.2655 H   0  0  0  0  0  0  0  0  0  0  0  0
    5.6970   -0.3728   -1.0104 H   0  0  0  0  0  0  0  0  0  0  0  0
    2.6111    0.8382    0.6684 H   0  0  0  0  0  0  0  0  0  0  0  0
    2.3673    3.0906   -0.1728 H   0  0  0  0  0  0  0  0  0  0  0  0
    1.9405    2.5338   -1.7891 H   0  0  0  0  0  0  0  0  0  0  0  0
    0.2095    3.1308    0.3362 H   0  0  0  0  0  0  0  0  0  0  0  0
   -0.2017    2.4368   -1.2388 H   0  0  0  0  0  0  0  0  0  0  0  0
   -1.7306    3.1217    0.5683 H   0  0  0  0  0  0  0  0  0  0  0  0
   -2.1073    2.3547   -0.9808 H   0  0  0  0  0  0  0  0  0  0  0  0
   -3.8298    2.7562    1.4368 H   0  0  0  0  0  0  0  0  0  0  0  0
   -4.2134    2.9459   -0.2669 H   0  0  0  0  0  0  0  0  0  0  0  0
   -6.3300    1.8828    0.2800 H   0  0  0  0  0  0  0  0  0  0  0  0
   -5.6014    1.4037   -1.2827 H   0  0  0  0  0  0  0  0  0  0  0  0
   -7.5598   -0.1951   -0.1598 H   0  0  0  0  0  0  0  0  0  0  0  0
   -7.7379   -2.3303   -0.0310 H   0  0  0  0  0  0  0  0  0  0  0  0
   -6.5077   -3.2049   -0.9744 H   0  0  0  0  0  0  0  0  0  0  0  0
   -6.3890   -3.1410    0.8005 H   0  0  0  0  0  0  0  0  0  0  0  0
   -4.9353    1.3330    2.4997 H   0  0  0  0  0  0  0  0  0  0  0  0
   -5.5674   -0.2024    1.8584 H   0  0  0  0  0  0  0  0  0  0  0  0
   -3.8455   -0.0579    2.2854 H   0  0  0  0  0  0  0  0  0  0  0  0
   -1.0079    1.4708    2.6020 H   0  0  0  0  0  0  0  0  0  0  0  0
   -2.7346    1.0939    2.3902 H   0  0  0  0  0  0  0  0  0  0  0  0
   -1.5295   -0.2160    2.3758 H   0  0  0  0  0  0  0  0  0  0  0  0
    0.4033    1.8748    2.2761 H   0  0  0  0  0  0  0  0  0  0  0  0
    0.0458    0.1319    2.3290 H   0  0  0  0  0  0  0  0  0  0  0  0
    1.6167    0.6999    1.7144 H   0  0  0  0  0  0  0  0  0  0  0  0
    5.8204    2.0051   -0.1086 H   0  0  0  0  0  0  0  0  0  0  0  0
    4.3305    2.9735   -0.0062 H   0  0  0  0  0  0  0  0  0  0  0  0
    4.6216    1.6621    1.1616 H   0  0  0  0  0  0  0  0  0  0  0  0
    4.0175    0.6580   -2.9419 H   0  0  0  0  0  0  0  0  0  0  0  0
    3.7214    2.3423   -2.4482 H   0  0  0  0  0  0  0  0  0  0  0  0
    5.3660    1.6664   -2.3649 H   0  0  0  0  0  0  0  0  0  0  0  0
    5.6099   -2.4817    3.0279 H   0  0  0  0  0  0  0  0  0  0  0  0
    7.1666   -1.6211    2.9619 H   0  0  0  0  0  0  0  0  0  0  0  0
    5.6707   -0.7281    3.3269 H   0  0  0  0  0  0  0  0  0  0  0  0
    1.2679    0.8322   -2.8151 H   0  0  0  0  0  0  0  0  0  0  0  0
    2.6586   -0.2683   -2.9671 H   0  0  0  0  0  0  0  0  0  0  0  0
    1.0074   -0.9274   -2.8821 H   0  0  0  0  0  0  0  0  0  0  0  0
  1  2  1  0  0  0  0
  2  3  1  0  0  0  0
  3  4  1  0  0  0  0
  4  5  1  0  0  0  0
  5  6  1  0  0  0  0
  6  7  1  0  0  0  0
  7  8  1  0  0  0  0
  8  9  1  0  0  0  0
  9 10  1  0  0  0  0
 10 11  1  0  0  0  0
 11 12  1  0  0  0  0
 12 13  1  0  0  0  0
  8 13  1  0  0  0  0
 13 14  1  0  0  0  0
 14 15  1  0  0  0  0
 15 16  1  0  0  0  0
  7 16  1  0  0  0  0
 16 17  1  0  0  0  0
  4 17  1  0  0  0  0
 17 18  1  0  0  0  0
 18 19  1  0  0  0  0
 19 20  1  0  0  0  0
  3 20  1  0  0  0  0
 20 21  1  0  0  0  0
 21 22  1  0  0  0  0
 22 23  2  0  0  0  0
  2 23  1  0  0  0  0
 23 24  1  0  0  0  0
 20 25  1  0  0  0  0
 17 26  1  0  0  0  0
 16 27  1  0  0  0  0
 12 28  1  0  0  0  0
 12 29  1  0  0  0  0
 11 30  1  0  0  0  0
 30 31  1  0  0  0  0
 31 32  2  0  0  0  0
 31 33  1  0  0  0  0
  8 34  1  0  0  0  0
  1 35  1  0  0  0  0
  1 36  1  0  0  0  0
  1 37  1  0  0  0  0
  2 38  1  0  0  0  0
  3 39  1  0  0  0  0
  4 40  1  0  0  0  0
  5 41  1  0  0  0  0
  5 42  1  0  0  0  0
  6 43  1  0  0  0  0
  6 44  1  0  0  0  0
  7 45  1  0  0  0  0
  9 46  1  0  0  0  0
  9 47  1  0  0  0  0
 10 48  1  0  0  0  0
 10 49  1  0  0  0  0
 11 50  1  0  0  0  0
 13 51  1  0  0  0  0
 14 52  1  0  0  0  0
 14 53  1  0  0  0  0
 15 54  1  0  0  0  0
 15 55  1  0  0  0  0
 18 56  1  0  0  0  0
 18 57  1  0  0  0  0
 19 58  1  0  0  0  0
 19 59  1  0  0  0  0
 21 60  1  0  0  0  0
 21 61  1  0  0  0  0
 22 62  1  0  0  0  0
 24 63  1  0  0  0  0
 24 64  1  0  0  0  0
 24 65  1  0  0  0  0
 25 66  1  0  0  0  0
 25 67  1  0  0  0  0
 25 68  1  0  0  0  0
 26 69  1  0  0  0  0
 26 70  1  0  0  0  0
 26 71  1  0  0  0  0
 27 72  1  0  0  0  0
 27 73  1  0  0  0  0
 27 74  1  0  0  0  0
 28 75  1  0  0  0  0
 28 76  1  0  0  0  0
 28 77  1  0  0  0  0
 29 78  1  0  0  0  0
 29 79  1  0  0  0  0
 29 80  1  0  0  0  0
 33 81  1  0  0  0  0
 33 82  1  0  0  0  0
 33 83  1  0  0  0  0
 34 84  1  0  0  0  0
 34 85  1  0  0  0  0
 34 86  1  0  0  0  0
M  END
$$$$
