C17H14O7
APtclcactv06281817413D 0   0.00000     0.00000
 
 38 40  0  0  0  0  0  0  0  0999 V2000
   -1.8120    3.4681    0.9989 C   0  0  0  0  0  0  0  0  0  0  0  0
   -1.9964    2.7909   -0.2459 O   0  0  0  0  0  0  0  0  0  0  0  0
   -2.3970    1.4908   -0.1890 C   0  0  0  0  0  0  0  0  0  0  0  0
   -3.7505    1.1807   -0.1819 C   0  0  0  0  0  0  0  0  0  0  0  0
   -4.1735   -0.1427   -0.1240 C   0  0  0  0  0  0  0  0  0  0  0  0
   -3.2474   -1.1673   -0.0727 C   0  0  0  0  0  0  0  0  0  0  0  0
   -1.8797   -0.8642   -0.0795 C   0  0  0  0  0  0  0  0  0  0  0  0
   -1.4515    0.4733   -0.1438 C   0  0  0  0  0  0  0  0  0  0  0  0
   -0.1313    0.7566   -0.1502 O   0  0  0  0  0  0  0  0  0  0  0  0
    0.8093   -0.2018   -0.0970 C   0  0  0  0  0  0  0  0  0  0  0  0
    0.4993   -1.5272   -0.0330 C   0  0  0  0  0  0  0  0  0  0  0  0
   -0.8622   -1.9262   -0.0266 C   0  0  0  0  0  0  0  0  0  0  0  0
   -1.1775   -3.1042    0.0299 O   0  0  0  0  0  0  0  0  0  0  0  0
    1.4880   -2.4610    0.0188 O   0  0  0  0  0  0  0  0  0  0  0  0
    1.5908   -3.2310    1.2183 C   0  0  0  0  0  0  0  0  0  0  0  0
    2.2293    0.1956   -0.1087 C   0  0  0  0  0  0  0  0  0  0  0  0
    3.1299   -0.4465   -0.9635 C   0  0  0  0  0  0  0  0  0  0  0  0
    4.4554   -0.0720   -0.9710 C   0  0  0  0  0  0  0  0  0  0  0  0
    4.8979    0.9419   -0.1302 C   0  0  0  0  0  0  0  0  0  0  0  0
    4.0064    1.5826    0.7215 C   0  0  0  0  0  0  0  0  0  0  0  0
    2.6777    1.2193    0.7310 C   0  0  0  0  0  0  0  0  0  0  0  0
    6.2057    1.3075   -0.1406 O   0  0  0  0  0  0  0  0  0  0  0  0
   -3.6605   -2.4596   -0.0157 O   0  0  0  0  0  0  0  0  0  0  0  0
   -4.6701    2.1796   -0.2315 O   0  0  0  0  0  0  0  0  0  0  0  0
   -1.4933    4.4934    0.8110 H   0  0  0  0  0  0  0  0  0  0  0  0
   -2.7516    3.4751    1.5513 H   0  0  0  0  0  0  0  0  0  0  0  0
   -1.0504    2.9522    1.5837 H   0  0  0  0  0  0  0  0  0  0  0  0
   -5.2292   -0.3706   -0.1187 H   0  0  0  0  0  0  0  0  0  0  0  0
    1.6713   -2.5610    2.0743 H   0  0  0  0  0  0  0  0  0  0  0  0
    0.7034   -3.8544    1.3271 H   0  0  0  0  0  0  0  0  0  0  0  0
    2.4762   -3.8647    1.1684 H   0  0  0  0  0  0  0  0  0  0  0  0
    2.7870   -1.2351   -1.6168 H   0  0  0  0  0  0  0  0  0  0  0  0
    5.1519   -0.5675   -1.6312 H   0  0  0  0  0  0  0  0  0  0  0  0
    4.3548    2.3696    1.3738 H   0  0  0  0  0  0  0  0  0  0  0  0
    1.9854    1.7180    1.3930 H   0  0  0  0  0  0  0  0  0  0  0  0
    6.4128    2.0097   -0.7724 H   0  0  0  0  0  0  0  0  0  0  0  0
   -3.7759   -2.8742   -0.8816 H   0  0  0  0  0  0  0  0  0  0  0  0
   -4.9319    2.4291   -1.1284 H   0  0  0  0  0  0  0  0  0  0  0  0
  1  2  1  0  0  0  0
  2  3  1  0  0  0  0
  3  4  2  0  0  0  0
  4  5  1  0  0  0  0
  5  6  2  0  0  0  0
  6  7  1  0  0  0  0
  7  8  2  0  0  0  0
  3  8  1  0  0  0  0
  8  9  1  0  0  0  0
  9 10  1  0  0  0  0
 10 11  2  0  0  0  0
 11 12  1  0  0  0  0
  7 12  1  0  0  0  0
 12 13  2  0  0  0  0
 11 14  1  0  0  0  0
 14 15  1  0  0  0  0
 10 16  1  0  0  0  0
 16 17  2  0  0  0  0
 17 18  1  0  0  0  0
 18 19  2  0  0  0  0
 19 20  1  0  0  0  0
 20 21  2  0  0  0  0
 16 21  1  0  0  0  0
 19 22  1  0  0  0  0
  6 23  1  0  0  0  0
  4 24  1  0  0  0  0
  1 25  1  0  0  0  0
  1 26  1  0  0  0  0
  1 27  1  0  0  0  0
  5 28  1  0  0  0  0
 15 29  1  0  0  0  0
 15 30  1  0  0  0  0
 15 31  1  0  0  0  0
 17 32  1  0  0  0  0
 18 33  1  0  0  0  0
 20 34  1  0  0  0  0
 21 35  1  0  0  0  0
 22 36  1  0  0  0  0
 23 37  1  0  0  0  0
 24 38  1  0  0  0  0
M  END
$$$$
