C23H24O12
APtclcactv06281817413D 0   0.00000     0.00000
 
 59 62  0  0  0  0  0  0  0  0999 V2000
    6.2033    3.0757    0.2305 C   0  0  0  0  0  0  0  0  0  0  0  0
    6.8024    1.7818    0.3257 O   0  0  0  0  0  0  0  0  0  0  0  0
    5.9723    0.7087    0.2315 C   0  0  0  0  0  0  0  0  0  0  0  0
    4.6149    0.8992    0.0519 C   0  0  0  0  0  0  0  0  0  0  0  0
    3.7626   -0.2040   -0.0453 C   0  0  0  0  0  0  0  0  0  0  0  0
    4.2855   -1.4971    0.0395 C   0  0  0  0  0  0  0  0  0  0  0  0
    5.6438   -1.6817    0.2191 C   0  0  0  0  0  0  0  0  0  0  0  0
    6.4911   -0.5808    0.3103 C   0  0  0  0  0  0  0  0  0  0  0  0
    7.8264   -0.7653    0.4865 O   0  0  0  0  0  0  0  0  0  0  0  0
    6.1533   -2.9399    0.3021 O   0  0  0  0  0  0  0  0  0  0  0  0
    5.2274   -4.0231    0.1956 C   0  0  0  0  0  0  0  0  0  0  0  0
    2.3137   -0.0038   -0.2365 C   0  0  0  0  0  0  0  0  0  0  0  0
    1.5088   -1.0966   -0.3276 C   0  0  0  0  0  0  0  0  0  0  0  0
    0.1164   -0.9242   -0.5110 C   0  0  0  0  0  0  0  0  0  0  0  0
   -0.6352   -1.8819   -0.5965 O   0  0  0  0  0  0  0  0  0  0  0  0
   -0.3905    0.4560   -0.5942 C   0  0  0  0  0  0  0  0  0  0  0  0
   -1.7537    0.7204   -0.7745 C   0  0  0  0  0  0  0  0  0  0  0  0
   -2.1895    2.0309   -0.8472 C   0  0  0  0  0  0  0  0  0  0  0  0
   -1.2792    3.0765   -0.7418 C   0  0  0  0  0  0  0  0  0  0  0  0
    0.0721    2.8218   -0.5637 C   0  0  0  0  0  0  0  0  0  0  0  0
    0.5277    1.5152   -0.4880 C   0  0  0  0  0  0  0  0  0  0  0  0
    1.8391    1.2500   -0.3085 O   0  0  0  0  0  0  0  0  0  0  0  0
   -1.7176    4.3592   -0.8145 O   0  0  0  0  0  0  0  0  0  0  0  0
   -2.6405   -0.3017   -0.8776 O   0  0  0  0  0  0  0  0  0  0  0  0
   -4.0142    0.0472   -1.0602 C   0  0  0  0  0  0  0  0  0  0  0  0
   -4.8390   -1.2238   -1.2791 C   0  0  0  0  0  0  0  0  0  0  0  0
   -4.7454   -2.1053   -0.0299 C   0  0  0  0  0  0  0  0  0  0  0  0
   -5.2241   -1.3036    1.1844 C   0  0  0  0  0  0  0  0  0  0  0  0
   -4.3844   -0.0295    1.3081 C   0  0  0  0  0  0  0  0  0  0  0  0
   -4.4913    0.7289    0.1017 O   0  0  0  0  0  0  0  0  0  0  0  0
   -4.8957    0.8064    2.4832 C   0  0  0  0  0  0  0  0  0  0  0  0
   -4.0412    1.9362    2.6715 O   0  0  0  0  0  0  0  0  0  0  0  0
   -6.5993   -0.9545    1.0142 O   0  0  0  0  0  0  0  0  0  0  0  0
   -5.5712   -3.2596   -0.1964 O   0  0  0  0  0  0  0  0  0  0  0  0
   -6.2040   -0.8726   -1.5145 O   0  0  0  0  0  0  0  0  0  0  0  0
    6.9745    3.8407    0.3210 H   0  0  0  0  0  0  0  0  0  0  0  0
    5.7044    3.1751   -0.7335 H   0  0  0  0  0  0  0  0  0  0  0  0
    5.4741    3.1983    1.0313 H   0  0  0  0  0  0  0  0  0  0  0  0
    4.2134    1.8998   -0.0130 H   0  0  0  0  0  0  0  0  0  0  0  0
    3.6291   -2.3515   -0.0349 H   0  0  0  0  0  0  0  0  0  0  0  0
    8.3263   -0.8335   -0.3385 H   0  0  0  0  0  0  0  0  0  0  0  0
    5.7633   -4.9687    0.2779 H   0  0  0  0  0  0  0  0  0  0  0  0
    4.4911   -3.9519    0.9962 H   0  0  0  0  0  0  0  0  0  0  0  0
    4.7214   -3.9751   -0.7687 H   0  0  0  0  0  0  0  0  0  0  0  0
    1.9297   -2.0890   -0.2607 H   0  0  0  0  0  0  0  0  0  0  0  0
   -3.2393    2.2425   -0.9864 H   0  0  0  0  0  0  0  0  0  0  0  0
    0.7700    3.6422   -0.4838 H   0  0  0  0  0  0  0  0  0  0  0  0
   -1.9583    4.7416    0.0405 H   0  0  0  0  0  0  0  0  0  0  0  0
   -4.1115    0.6979   -1.9292 H   0  0  0  0  0  0  0  0  0  0  0  0
   -4.4484   -1.7679   -2.1390 H   0  0  0  0  0  0  0  0  0  0  0  0
   -3.7111   -2.4142    0.1218 H   0  0  0  0  0  0  0  0  0  0  0  0
   -5.1089   -1.9048    2.0863 H   0  0  0  0  0  0  0  0  0  0  0  0
   -3.3415   -0.2966    1.4784 H   0  0  0  0  0  0  0  0  0  0  0  0
   -5.9089    1.1483    2.2722 H   0  0  0  0  0  0  0  0  0  0  0  0
   -4.8984    0.1982    3.3878 H   0  0  0  0  0  0  0  0  0  0  0  0
   -4.3059    2.5122    3.4018 H   0  0  0  0  0  0  0  0  0  0  0  0
   -7.1899   -1.7149    0.9240 H   0  0  0  0  0  0  0  0  0  0  0  0
   -5.3286   -3.8110   -0.9528 H   0  0  0  0  0  0  0  0  0  0  0  0
   -6.3372   -0.3096   -2.2893 H   0  0  0  0  0  0  0  0  0  0  0  0
  1  2  1  0  0  0  0
  2  3  1  0  0  0  0
  3  4  2  0  0  0  0
  4  5  1  0  0  0  0
  5  6  2  0  0  0  0
  6  7  1  0  0  0  0
  7  8  2  0  0  0  0
  3  8  1  0  0  0  0
  8  9  1  0  0  0  0
  7 10  1  0  0  0  0
 10 11  1  0  0  0  0
  5 12  1  0  0  0  0
 12 13  2  0  0  0  0
 13 14  1  0  0  0  0
 14 15  2  0  0  0  0
 14 16  1  0  0  0  0
 16 17  2  0  0  0  0
 17 18  1  0  0  0  0
 18 19  2  0  0  0  0
 19 20  1  0  0  0  0
 20 21  2  0  0  0  0
 16 21  1  0  0  0  0
 21 22  1  0  0  0  0
 12 22  1  0  0  0  0
 19 23  1  0  0  0  0
 17 24  1  0  0  0  0
 24 25  1  0  0  0  0
 25 26  1  0  0  0  0
 26 27  1  0  0  0  0
 27 28  1  0  0  0  0
 28 29  1  0  0  0  0
 29 30  1  0  0  0  0
 25 30  1  0  0  0  0
 29 31  1  0  0  0  0
 31 32  1  0  0  0  0
 28 33  1  0  0  0  0
 27 34  1  0  0  0  0
 26 35  1  0  0  0  0
  1 36  1  0  0  0  0
  1 37  1  0  0  0  0
  1 38  1  0  0  0  0
  4 39  1  0  0  0  0
  6 40  1  0  0  0  0
  9 41  1  0  0  0  0
 11 42  1  0  0  0  0
 11 43  1  0  0  0  0
 11 44  1  0  0  0  0
 13 45  1  0  0  0  0
 18 46  1  0  0  0  0
 20 47  1  0  0  0  0
 23 48  1  0  0  0  0
 25 49  1  0  0  0  0
 26 50  1  0  0  0  0
 27 51  1  0  0  0  0
 28 52  1  0  0  0  0
 29 53  1  0  0  0  0
 31 54  1  0  0  0  0
 31 55  1  0  0  0  0
 32 56  1  0  0  0  0
 33 57  1  0  0  0  0
 34 58  1  0  0  0  0
 35 59  1  0  0  0  0
M  END
$$$$
