C17H14O8
APtclcactv06281817413D 0   0.00000     0.00000
 
 39 41  0  0  0  0  0  0  0  0999 V2000
    5.9984    2.0074    0.0088 C   0  0  0  0  0  0  0  0  0  0  0  0
    4.6083    2.3321   -0.0558 O   0  0  0  0  0  0  0  0  0  0  0  0
    3.7314    1.2945   -0.0441 C   0  0  0  0  0  0  0  0  0  0  0  0
    2.3671    1.5462   -0.1047 C   0  0  0  0  0  0  0  0  0  0  0  0
    1.4650    0.4891   -0.0930 C   0  0  0  0  0  0  0  0  0  0  0  0
    1.9478   -0.8291   -0.0196 C   0  0  0  0  0  0  0  0  0  0  0  0
    3.3258   -1.0733    0.0415 C   0  0  0  0  0  0  0  0  0  0  0  0
    4.2086   -0.0100    0.0227 C   0  0  0  0  0  0  0  0  0  0  0  0
    3.7916   -2.3469    0.1124 O   0  0  0  0  0  0  0  0  0  0  0  0
    0.9757   -1.9342   -0.0084 C   0  0  0  0  0  0  0  0  0  0  0  0
    1.3392   -3.0978    0.0544 O   0  0  0  0  0  0  0  0  0  0  0  0
   -0.4002   -1.5943   -0.0730 C   0  0  0  0  0  0  0  0  0  0  0  0
   -0.7645   -0.2830   -0.1418 C   0  0  0  0  0  0  0  0  0  0  0  0
    0.1351    0.7154   -0.1509 O   0  0  0  0  0  0  0  0  0  0  0  0
   -2.1987    0.0529   -0.2089 C   0  0  0  0  0  0  0  0  0  0  0  0
   -2.7263    1.0425    0.6254 C   0  0  0  0  0  0  0  0  0  0  0  0
   -4.0709    1.3536    0.5581 C   0  0  0  0  0  0  0  0  0  0  0  0
   -4.8977    0.6813   -0.3400 C   0  0  0  0  0  0  0  0  0  0  0  0
   -4.3743   -0.3017   -1.1683 C   0  0  0  0  0  0  0  0  0  0  0  0
   -3.0329   -0.6135   -1.1109 C   0  0  0  0  0  0  0  0  0  0  0  0
   -6.2197    0.9887   -0.4047 O   0  0  0  0  0  0  0  0  0  0  0  0
   -4.5876    2.3157    1.3687 O   0  0  0  0  0  0  0  0  0  0  0  0
   -1.3488   -2.5702   -0.0668 O   0  0  0  0  0  0  0  0  0  0  0  0
   -1.4717   -3.3478    1.1258 C   0  0  0  0  0  0  0  0  0  0  0  0
    1.9134    2.8281   -0.1750 O   0  0  0  0  0  0  0  0  0  0  0  0
    6.5870    2.9247   -0.0084 H   0  0  0  0  0  0  0  0  0  0  0  0
    6.2018    1.4625    0.9306 H   0  0  0  0  0  0  0  0  0  0  0  0
    6.2669    1.3874   -0.8466 H   0  0  0  0  0  0  0  0  0  0  0  0
    5.2720   -0.1923    0.0693 H   0  0  0  0  0  0  0  0  0  0  0  0
    3.9591   -2.7530   -0.7491 H   0  0  0  0  0  0  0  0  0  0  0  0
   -2.0846    1.5625    1.3212 H   0  0  0  0  0  0  0  0  0  0  0  0
   -5.0187   -0.8205   -1.8625 H   0  0  0  0  0  0  0  0  0  0  0  0
   -2.6282   -1.3786   -1.7568 H   0  0  0  0  0  0  0  0  0  0  0  0
   -6.4304    1.6880   -1.0386 H   0  0  0  0  0  0  0  0  0  0  0  0
   -4.5650    3.2044    0.9882 H   0  0  0  0  0  0  0  0  0  0  0  0
   -0.5631   -3.9313    1.2745 H   0  0  0  0  0  0  0  0  0  0  0  0
   -1.6212   -2.6848    1.9780 H   0  0  0  0  0  0  0  0  0  0  0  0
   -2.3246   -4.0204    1.0348 H   0  0  0  0  0  0  0  0  0  0  0  0
    1.8147    3.1615   -1.0774 H   0  0  0  0  0  0  0  0  0  0  0  0
  1  2  1  0  0  0  0
  2  3  1  0  0  0  0
  3  4  2  0  0  0  0
  4  5  1  0  0  0  0
  5  6  2  0  0  0  0
  6  7  1  0  0  0  0
  7  8  2  0  0  0  0
  3  8  1  0  0  0  0
  7  9  1  0  0  0  0
  6 10  1  0  0  0  0
 10 11  2  0  0  0  0
 10 12  1  0  0  0  0
 12 13  2  0  0  0  0
 13 14  1  0  0  0  0
  5 14  1  0  0  0  0
 13 15  1  0  0  0  0
 15 16  2  0  0  0  0
 16 17  1  0  0  0  0
 17 18  2  0  0  0  0
 18 19  1  0  0  0  0
 19 20  2  0  0  0  0
 15 20  1  0  0  0  0
 18 21  1  0  0  0  0
 17 22  1  0  0  0  0
 12 23  1  0  0  0  0
 23 24  1  0  0  0  0
  4 25  1  0  0  0  0
  1 26  1  0  0  0  0
  1 27  1  0  0  0  0
  1 28  1  0  0  0  0
  8 29  1  0  0  0  0
  9 30  1  0  0  0  0
 16 31  1  0  0  0  0
 19 32  1  0  0  0  0
 20 33  1  0  0  0  0
 21 34  1  0  0  0  0
 22 35  1  0  0  0  0
 24 36  1  0  0  0  0
 24 37  1  0  0  0  0
 24 38  1  0  0  0  0
 25 39  1  0  0  0  0
M  END
$$$$
