C23H24O12
APtclcactv06281817413D 0   0.00000     0.00000
 
 59 62  0  0  0  0  0  0  0  0999 V2000
   -4.2004    4.1647   -0.0258 C   0  0  0  0  0  0  0  0  0  0  0  0
   -5.4215    3.4374    0.1231 O   0  0  0  0  0  0  0  0  0  0  0  0
   -5.3368    2.0801    0.1137 C   0  0  0  0  0  0  0  0  0  0  0  0
   -4.1073    1.4659   -0.0354 C   0  0  0  0  0  0  0  0  0  0  0  0
   -4.0210    0.0711   -0.0445 C   0  0  0  0  0  0  0  0  0  0  0  0
   -5.1785   -0.6988    0.0972 C   0  0  0  0  0  0  0  0  0  0  0  0
   -6.4054   -0.0791    0.2460 C   0  0  0  0  0  0  0  0  0  0  0  0
   -6.4877    1.3105    0.2600 C   0  0  0  0  0  0  0  0  0  0  0  0
   -7.6953    1.9172    0.4069 O   0  0  0  0  0  0  0  0  0  0  0  0
   -7.5324   -0.8278    0.3836 O   0  0  0  0  0  0  0  0  0  0  0  0
   -7.3741   -2.2479    0.3652 C   0  0  0  0  0  0  0  0  0  0  0  0
   -2.7106   -0.5871   -0.2039 C   0  0  0  0  0  0  0  0  0  0  0  0
   -2.6577   -1.9463   -0.2090 C   0  0  0  0  0  0  0  0  0  0  0  0
   -1.4095   -2.5954   -0.3608 C   0  0  0  0  0  0  0  0  0  0  0  0
   -1.3250   -3.8129   -0.3703 O   0  0  0  0  0  0  0  0  0  0  0  0
   -0.2165   -1.7445   -0.5075 C   0  0  0  0  0  0  0  0  0  0  0  0
    1.0589   -2.3010   -0.6633 C   0  0  0  0  0  0  0  0  0  0  0  0
    2.1539   -1.4672   -0.7985 C   0  0  0  0  0  0  0  0  0  0  0  0
    1.9874   -0.0870   -0.7795 C   0  0  0  0  0  0  0  0  0  0  0  0
    0.7274    0.4707   -0.6251 C   0  0  0  0  0  0  0  0  0  0  0  0
   -0.3820   -0.3486   -0.4887 C   0  0  0  0  0  0  0  0  0  0  0  0
   -1.6165    0.1782   -0.3439 O   0  0  0  0  0  0  0  0  0  0  0  0
    3.0690    0.7224   -0.9129 O   0  0  0  0  0  0  0  0  0  0  0  0
    4.3396    0.0871   -1.0681 C   0  0  0  0  0  0  0  0  0  0  0  0
    5.4125    1.1479   -1.3275 C   0  0  0  0  0  0  0  0  0  0  0  0
    5.5032    2.0785   -0.1142 C   0  0  0  0  0  0  0  0  0  0  0  0
    5.8013    1.2434    1.1349 C   0  0  0  0  0  0  0  0  0  0  0  0
    4.7134    0.1790    1.2991 C   0  0  0  0  0  0  0  0  0  0  0  0
    4.6613   -0.6324    0.1239 O   0  0  0  0  0  0  0  0  0  0  0  0
    5.0362   -0.6979    2.5107 C   0  0  0  0  0  0  0  0  0  0  0  0
    3.9639   -1.6157    2.7337 O   0  0  0  0  0  0  0  0  0  0  0  0
    7.0733    0.6081    0.9921 O   0  0  0  0  0  0  0  0  0  0  0  0
    6.5527    3.0270   -0.3167 O   0  0  0  0  0  0  0  0  0  0  0  0
    6.6742    0.5100   -1.5354 O   0  0  0  0  0  0  0  0  0  0  0  0
    1.2193   -3.6485   -0.6812 O   0  0  0  0  0  0  0  0  0  0  0  0
   -3.5229    3.9078    0.7885 H   0  0  0  0  0  0  0  0  0  0  0  0
   -3.7378    3.9067   -0.9785 H   0  0  0  0  0  0  0  0  0  0  0  0
   -4.4092    5.2342   -0.0012 H   0  0  0  0  0  0  0  0  0  0  0  0
   -3.2143    2.0634   -0.1451 H   0  0  0  0  0  0  0  0  0  0  0  0
   -5.1148   -1.7769    0.0902 H   0  0  0  0  0  0  0  0  0  0  0  0
   -7.9394    2.0901    1.3265 H   0  0  0  0  0  0  0  0  0  0  0  0
   -8.3477   -2.7236    0.4839 H   0  0  0  0  0  0  0  0  0  0  0  0
   -6.9344   -2.5523   -0.5846 H   0  0  0  0  0  0  0  0  0  0  0  0
   -6.7196   -2.5511    1.1824 H   0  0  0  0  0  0  0  0  0  0  0  0
   -3.5620   -2.5261   -0.0975 H   0  0  0  0  0  0  0  0  0  0  0  0
    3.1408   -1.8892   -0.9187 H   0  0  0  0  0  0  0  0  0  0  0  0
    0.6104    1.5443   -0.6111 H   0  0  0  0  0  0  0  0  0  0  0  0
    4.3002   -0.6036   -1.9104 H   0  0  0  0  0  0  0  0  0  0  0  0
    5.1460    1.7270   -2.2116 H   0  0  0  0  0  0  0  0  0  0  0  0
    4.5562    2.6025    0.0150 H   0  0  0  0  0  0  0  0  0  0  0  0
    5.8128    1.8908    2.0117 H   0  0  0  0  0  0  0  0  0  0  0  0
    3.7491    0.6648    1.4484 H   0  0  0  0  0  0  0  0  0  0  0  0
    5.9558   -1.2522    2.3233 H   0  0  0  0  0  0  0  0  0  0  0  0
    5.1645   -0.0682    3.3911 H   0  0  0  0  0  0  0  0  0  0  0  0
    4.1008   -2.2047    3.4883 H   0  0  0  0  0  0  0  0  0  0  0  0
    7.8101    1.2240    0.8788 H   0  0  0  0  0  0  0  0  0  0  0  0
    6.4322    3.5865   -1.0962 H   0  0  0  0  0  0  0  0  0  0  0  0
    6.6881   -0.0988   -2.2865 H   0  0  0  0  0  0  0  0  0  0  0  0
    1.1582   -4.0402   -1.5632 H   0  0  0  0  0  0  0  0  0  0  0  0
  1  2  1  0  0  0  0
  2  3  1  0  0  0  0
  3  4  2  0  0  0  0
  4  5  1  0  0  0  0
  5  6  2  0  0  0  0
  6  7  1  0  0  0  0
  7  8  2  0  0  0  0
  3  8  1  0  0  0  0
  8  9  1  0  0  0  0
  7 10  1  0  0  0  0
 10 11  1  0  0  0  0
  5 12  1  0  0  0  0
 12 13  2  0  0  0  0
 13 14  1  0  0  0  0
 14 15  2  0  0  0  0
 14 16  1  0  0  0  0
 16 17  2  0  0  0  0
 17 18  1  0  0  0  0
 18 19  2  0  0  0  0
 19 20  1  0  0  0  0
 20 21  2  0  0  0  0
 16 21  1  0  0  0  0
 21 22  1  0  0  0  0
 12 22  1  0  0  0  0
 19 23  1  0  0  0  0
 23 24  1  0  0  0  0
 24 25  1  0  0  0  0
 25 26  1  0  0  0  0
 26 27  1  0  0  0  0
 27 28  1  0  0  0  0
 28 29  1  0  0  0  0
 24 29  1  0  0  0  0
 28 30  1  0  0  0  0
 30 31  1  0  0  0  0
 27 32  1  0  0  0  0
 26 33  1  0  0  0  0
 25 34  1  0  0  0  0
 17 35  1  0  0  0  0
  1 36  1  0  0  0  0
  1 37  1  0  0  0  0
  1 38  1  0  0  0  0
  4 39  1  0  0  0  0
  6 40  1  0  0  0  0
  9 41  1  0  0  0  0
 11 42  1  0  0  0  0
 11 43  1  0  0  0  0
 11 44  1  0  0  0  0
 13 45  1  0  0  0  0
 18 46  1  0  0  0  0
 20 47  1  0  0  0  0
 24 48  1  0  0  0  0
 25 49  1  0  0  0  0
 26 50  1  0  0  0  0
 27 51  1  0  0  0  0
 28 52  1  0  0  0  0
 30 53  1  0  0  0  0
 30 54  1  0  0  0  0
 31 55  1  0  0  0  0
 32 56  1  0  0  0  0
 33 57  1  0  0  0  0
 34 58  1  0  0  0  0
 35 59  1  0  0  0  0
M  END
$$$$
