C18H16O8
APtclcactv06281817413D 0   0.00000     0.00000
 
 42 44  0  0  0  0  0  0  0  0999 V2000
   -4.8016   -1.2250    2.1094 C   0  0  0  0  0  0  0  0  0  0  0  0
   -5.1976   -0.1649    1.2368 O   0  0  0  0  0  0  0  0  0  0  0  0
   -4.2285    0.3910    0.4614 C   0  0  0  0  0  0  0  0  0  0  0  0
   -4.5457    1.4294   -0.4125 C   0  0  0  0  0  0  0  0  0  0  0  0
   -3.5596    1.9990   -1.2058 C   0  0  0  0  0  0  0  0  0  0  0  0
   -2.2618    1.5405   -1.1333 C   0  0  0  0  0  0  0  0  0  0  0  0
   -1.9363    0.4999   -0.2589 C   0  0  0  0  0  0  0  0  0  0  0  0
   -2.9285   -0.0698    0.5440 C   0  0  0  0  0  0  0  0  0  0  0  0
   -0.5485    0.0078   -0.1797 C   0  0  0  0  0  0  0  0  0  0  0  0
   -0.3255   -1.3360   -0.2185 C   0  0  0  0  0  0  0  0  0  0  0  0
    1.0040   -1.8255   -0.1433 C   0  0  0  0  0  0  0  0  0  0  0  0
    1.2418   -3.0224   -0.1756 O   0  0  0  0  0  0  0  0  0  0  0  0
    2.0854   -0.8341   -0.0255 C   0  0  0  0  0  0  0  0  0  0  0  0
    1.7455    0.5296    0.0058 C   0  0  0  0  0  0  0  0  0  0  0  0
    0.4501    0.9014   -0.0774 O   0  0  0  0  0  0  0  0  0  0  0  0
    2.7523    1.4811    0.1167 C   0  0  0  0  0  0  0  0  0  0  0  0
    4.0796    1.0806    0.1955 C   0  0  0  0  0  0  0  0  0  0  0  0
    4.4152   -0.2685    0.1641 C   0  0  0  0  0  0  0  0  0  0  0  0
    3.4271   -1.2286    0.0550 C   0  0  0  0  0  0  0  0  0  0  0  0
    3.7550   -2.5461    0.0247 O   0  0  0  0  0  0  0  0  0  0  0  0
    5.0594    2.0156    0.3039 O   0  0  0  0  0  0  0  0  0  0  0  0
    6.4046    1.5396    0.3809 C   0  0  0  0  0  0  0  0  0  0  0  0
    2.4375    2.8055    0.1477 O   0  0  0  0  0  0  0  0  0  0  0  0
   -1.3699   -2.2016   -0.3281 O   0  0  0  0  0  0  0  0  0  0  0  0
   -1.4501   -2.9729   -1.5284 C   0  0  0  0  0  0  0  0  0  0  0  0
   -5.8236    1.8849   -0.4882 O   0  0  0  0  0  0  0  0  0  0  0  0
   -5.6678   -1.5776    2.6692 H   0  0  0  0  0  0  0  0  0  0  0  0
   -4.3906   -2.0455    1.5212 H   0  0  0  0  0  0  0  0  0  0  0  0
   -4.0442   -0.8605    2.8035 H   0  0  0  0  0  0  0  0  0  0  0  0
   -3.8098    2.8032   -1.8818 H   0  0  0  0  0  0  0  0  0  0  0  0
   -1.4965    1.9851   -1.7523 H   0  0  0  0  0  0  0  0  0  0  0  0
   -2.6814   -0.8741    1.2211 H   0  0  0  0  0  0  0  0  0  0  0  0
    5.4513   -0.5670    0.2258 H   0  0  0  0  0  0  0  0  0  0  0  0
    3.7875   -2.9635    0.8964 H   0  0  0  0  0  0  0  0  0  0  0  0
    7.0855    2.3867    0.4642 H   0  0  0  0  0  0  0  0  0  0  0  0
    6.5136    0.8984    1.2555 H   0  0  0  0  0  0  0  0  0  0  0  0
    6.6408    0.9708   -0.5184 H   0  0  0  0  0  0  0  0  0  0  0  0
    2.2832    3.1524    1.0371 H   0  0  0  0  0  0  0  0  0  0  0  0
   -2.3778   -3.5451   -1.5312 H   0  0  0  0  0  0  0  0  0  0  0  0
   -1.4318   -2.3062   -2.3905 H   0  0  0  0  0  0  0  0  0  0  0  0
   -0.6020   -3.6556   -1.5789 H   0  0  0  0  0  0  0  0  0  0  0  0
   -6.0216    2.6048    0.1263 H   0  0  0  0  0  0  0  0  0  0  0  0
  1  2  1  0  0  0  0
  2  3  1  0  0  0  0
  3  4  2  0  0  0  0
  4  5  1  0  0  0  0
  5  6  2  0  0  0  0
  6  7  1  0  0  0  0
  7  8  2  0  0  0  0
  3  8  1  0  0  0  0
  7  9  1  0  0  0  0
  9 10  2  0  0  0  0
 10 11  1  0  0  0  0
 11 12  2  0  0  0  0
 11 13  1  0  0  0  0
 13 14  2  0  0  0  0
 14 15  1  0  0  0  0
  9 15  1  0  0  0  0
 14 16  1  0  0  0  0
 16 17  2  0  0  0  0
 17 18  1  0  0  0  0
 18 19  2  0  0  0  0
 13 19  1  0  0  0  0
 19 20  1  0  0  0  0
 17 21  1  0  0  0  0
 21 22  1  0  0  0  0
 16 23  1  0  0  0  0
 10 24  1  0  0  0  0
 24 25  1  0  0  0  0
  4 26  1  0  0  0  0
  1 27  1  0  0  0  0
  1 28  1  0  0  0  0
  1 29  1  0  0  0  0
  5 30  1  0  0  0  0
  6 31  1  0  0  0  0
  8 32  1  0  0  0  0
 18 33  1  0  0  0  0
 20 34  1  0  0  0  0
 22 35  1  0  0  0  0
 22 36  1  0  0  0  0
 22 37  1  0  0  0  0
 23 38  1  0  0  0  0
 25 39  1  0  0  0  0
 25 40  1  0  0  0  0
 25 41  1  0  0  0  0
 26 42  1  0  0  0  0
M  END
$$$$
