C17H14O7
APtclcactv06281817413D 0   0.00000     0.00000
 
 38 40  0  0  0  0  0  0  0  0999 V2000
    3.9040    3.6676    0.0239 C   0  0  0  0  0  0  0  0  0  0  0  0
    4.4019    2.3284   -0.0014 O   0  0  0  0  0  0  0  0  0  0  0  0
    3.4823    1.3288   -0.0237 C   0  0  0  0  0  0  0  0  0  0  0  0
    3.9060    0.0013   -0.0489 C   0  0  0  0  0  0  0  0  0  0  0  0
    2.9751   -1.0246   -0.0713 C   0  0  0  0  0  0  0  0  0  0  0  0
    1.6092   -0.7160   -0.0684 C   0  0  0  0  0  0  0  0  0  0  0  0
    1.1860    0.6249   -0.0428 C   0  0  0  0  0  0  0  0  0  0  0  0
    2.1317    1.6384   -0.0153 C   0  0  0  0  0  0  0  0  0  0  0  0
   -0.1331    0.9128   -0.0410 O   0  0  0  0  0  0  0  0  0  0  0  0
   -1.0772   -0.0434   -0.0630 C   0  0  0  0  0  0  0  0  0  0  0  0
   -0.7723   -1.3713   -0.0882 C   0  0  0  0  0  0  0  0  0  0  0  0
    0.5877   -1.7752   -0.0922 C   0  0  0  0  0  0  0  0  0  0  0  0
    0.8985   -2.9556   -0.1148 O   0  0  0  0  0  0  0  0  0  0  0  0
   -1.7644   -2.3026   -0.1089 O   0  0  0  0  0  0  0  0  0  0  0  0
   -1.8863   -3.1463    1.0380 C   0  0  0  0  0  0  0  0  0  0  0  0
   -2.4957    0.3593   -0.0593 C   0  0  0  0  0  0  0  0  0  0  0  0
   -2.9496    1.3188    0.8503 C   0  0  0  0  0  0  0  0  0  0  0  0
   -4.2756    1.6919    0.8502 C   0  0  0  0  0  0  0  0  0  0  0  0
   -5.1616    1.1157   -0.0520 C   0  0  0  0  0  0  0  0  0  0  0  0
   -4.7149    0.1613   -0.9576 C   0  0  0  0  0  0  0  0  0  0  0  0
   -3.3893   -0.2131   -0.9692 C   0  0  0  0  0  0  0  0  0  0  0  0
   -6.4680    1.4862   -0.0482 O   0  0  0  0  0  0  0  0  0  0  0  0
    3.3842   -2.3197   -0.0964 O   0  0  0  0  0  0  0  0  0  0  0  0
    5.2365   -0.2878   -0.0520 O   0  0  0  0  0  0  0  0  0  0  0  0
    3.2982    3.8468   -0.8643 H   0  0  0  0  0  0  0  0  0  0  0  0
    3.2935    3.8114    0.9153 H   0  0  0  0  0  0  0  0  0  0  0  0
    4.7407    4.3660    0.0400 H   0  0  0  0  0  0  0  0  0  0  0  0
    1.8152    2.6708    0.0047 H   0  0  0  0  0  0  0  0  0  0  0  0
   -2.6559   -3.8966    0.8569 H   0  0  0  0  0  0  0  0  0  0  0  0
   -0.9338   -3.6412    1.2277 H   0  0  0  0  0  0  0  0  0  0  0  0
   -2.1620   -2.5447    1.9040 H   0  0  0  0  0  0  0  0  0  0  0  0
   -2.2619    1.7666    1.5523 H   0  0  0  0  0  0  0  0  0  0  0  0
   -4.6272    2.4331    1.5526 H   0  0  0  0  0  0  0  0  0  0  0  0
   -5.4071   -0.2845   -1.6566 H   0  0  0  0  0  0  0  0  0  0  0  0
   -3.0429   -0.9548   -1.6737 H   0  0  0  0  0  0  0  0  0  0  0  0
   -6.6670    2.2318   -0.6309 H   0  0  0  0  0  0  0  0  0  0  0  0
    3.5009   -2.7123    0.7796 H   0  0  0  0  0  0  0  0  0  0  0  0
    5.6191   -0.3886    0.8303 H   0  0  0  0  0  0  0  0  0  0  0  0
  1  2  1  0  0  0  0
  2  3  1  0  0  0  0
  3  4  2  0  0  0  0
  4  5  1  0  0  0  0
  5  6  2  0  0  0  0
  6  7  1  0  0  0  0
  7  8  2  0  0  0  0
  3  8  1  0  0  0  0
  7  9  1  0  0  0  0
  9 10  1  0  0  0  0
 10 11  2  0  0  0  0
 11 12  1  0  0  0  0
  6 12  1  0  0  0  0
 12 13  2  0  0  0  0
 11 14  1  0  0  0  0
 14 15  1  0  0  0  0
 10 16  1  0  0  0  0
 16 17  2  0  0  0  0
 17 18  1  0  0  0  0
 18 19  2  0  0  0  0
 19 20  1  0  0  0  0
 20 21  2  0  0  0  0
 16 21  1  0  0  0  0
 19 22  1  0  0  0  0
  5 23  1  0  0  0  0
  4 24  1  0  0  0  0
  1 25  1  0  0  0  0
  1 26  1  0  0  0  0
  1 27  1  0  0  0  0
  8 28  1  0  0  0  0
 15 29  1  0  0  0  0
 15 30  1  0  0  0  0
 15 31  1  0  0  0  0
 17 32  1  0  0  0  0
 18 33  1  0  0  0  0
 20 34  1  0  0  0  0
 21 35  1  0  0  0  0
 22 36  1  0  0  0  0
 23 37  1  0  0  0  0
 24 38  1  0  0  0  0
M  END
$$$$
