C21H26O6
APtclcactv06281817413D 0   0.00000     0.00000
 
 53 55  0  0  0  0  0  0  0  0999 V2000
    0.5117    2.2374   -2.8258 C   0  0  0  0  0  0  0  0  0  0  0  0
    0.7510    1.1591   -1.7671 C   0  0  0  0  0  0  0  0  0  0  0  0
    1.7098    1.6692   -0.6653 C   0  0  0  0  0  0  0  0  0  0  0  0
    0.8072    2.1886    0.3260 O   0  0  0  0  0  0  0  0  0  0  0  0
   -0.3791    1.5240    0.2450 C   0  0  0  0  0  0  0  0  0  0  0  0
   -1.4107    1.4157    1.1805 C   0  0  0  0  0  0  0  0  0  0  0  0
   -2.5480    0.6871    0.8798 C   0  0  0  0  0  0  0  0  0  0  0  0
   -2.6713    0.0618   -0.3468 C   0  0  0  0  0  0  0  0  0  0  0  0
   -1.6505    0.1616   -1.2754 C   0  0  0  0  0  0  0  0  0  0  0  0
   -0.5147    0.8837   -0.9783 C   0  0  0  0  0  0  0  0  0  0  0  0
   -3.9138   -0.7268   -0.6715 C   0  0  0  0  0  0  0  0  0  0  0  0
   -3.8258   -2.1083   -0.0201 C   0  0  0  0  0  0  0  0  0  0  0  0
   -5.0211   -2.9564   -0.4594 C   0  0  0  0  0  0  0  0  0  0  0  0
   -2.6136   -2.7487   -0.4231 O   0  0  0  0  0  0  0  0  0  0  0  0
   -5.0605   -0.0363   -0.1712 O   0  0  0  0  0  0  0  0  0  0  0  0
   -6.1791   -0.0467   -1.0604 C   0  0  0  0  0  0  0  0  0  0  0  0
   -1.2968    2.0275    2.3898 O   0  0  0  0  0  0  0  0  0  0  0  0
   -2.3888    1.8758    3.2989 C   0  0  0  0  0  0  0  0  0  0  0  0
    2.5269    0.5353   -0.1016 C   0  0  0  0  0  0  0  0  0  0  0  0
    3.8277    0.3437   -0.5286 C   0  0  0  0  0  0  0  0  0  0  0  0
    4.5803   -0.6984   -0.0113 C   0  0  0  0  0  0  0  0  0  0  0  0
    4.0237   -1.5502    0.9378 C   0  0  0  0  0  0  0  0  0  0  0  0
    2.7193   -1.3526    1.3615 C   0  0  0  0  0  0  0  0  0  0  0  0
    1.9758   -0.3076    0.8456 C   0  0  0  0  0  0  0  0  0  0  0  0
    4.7582   -2.5747    1.4482 O   0  0  0  0  0  0  0  0  0  0  0  0
    5.8599   -0.8885   -0.4307 O   0  0  0  0  0  0  0  0  0  0  0  0
    6.3649    0.0243   -1.4073 C   0  0  0  0  0  0  0  0  0  0  0  0
    1.4608    2.5109   -3.2868 H   0  0  0  0  0  0  0  0  0  0  0  0
   -0.1656    1.8536   -3.5887 H   0  0  0  0  0  0  0  0  0  0  0  0
    0.0694    3.1160   -2.3561 H   0  0  0  0  0  0  0  0  0  0  0  0
    1.1327    0.2458   -2.2234 H   0  0  0  0  0  0  0  0  0  0  0  0
    2.3559    2.4580   -1.0505 H   0  0  0  0  0  0  0  0  0  0  0  0
   -3.3429    0.6070    1.6065 H   0  0  0  0  0  0  0  0  0  0  0  0
   -1.7435   -0.3274   -2.2338 H   0  0  0  0  0  0  0  0  0  0  0  0
   -4.0005   -0.8395   -1.7522 H   0  0  0  0  0  0  0  0  0  0  0  0
   -3.8363   -1.9999    1.0645 H   0  0  0  0  0  0  0  0  0  0  0  0
   -5.0678   -2.9820   -1.5481 H   0  0  0  0  0  0  0  0  0  0  0  0
   -4.9072   -3.9707   -0.0767 H   0  0  0  0  0  0  0  0  0  0  0  0
   -5.9397   -2.5208   -0.0664 H   0  0  0  0  0  0  0  0  0  0  0  0
   -1.8129   -2.2656   -0.1769 H   0  0  0  0  0  0  0  0  0  0  0  0
   -6.9725    0.5803   -0.6535 H   0  0  0  0  0  0  0  0  0  0  0  0
   -5.8737    0.3391   -2.0330 H   0  0  0  0  0  0  0  0  0  0  0  0
   -6.5444   -1.0675   -1.1728 H   0  0  0  0  0  0  0  0  0  0  0  0
   -2.1698    2.4116    4.2225 H   0  0  0  0  0  0  0  0  0  0  0  0
   -3.2950    2.2820    2.8494 H   0  0  0  0  0  0  0  0  0  0  0  0
   -2.5347    0.8181    3.5183 H   0  0  0  0  0  0  0  0  0  0  0  0
    4.2572    1.0061   -1.2657 H   0  0  0  0  0  0  0  0  0  0  0  0
    2.2849   -2.0124    2.0981 H   0  0  0  0  0  0  0  0  0  0  0  0
    0.9592   -0.1547    1.1766 H   0  0  0  0  0  0  0  0  0  0  0  0
    5.2606   -2.3417    2.2408 H   0  0  0  0  0  0  0  0  0  0  0  0
    5.7511   -0.0293   -2.3064 H   0  0  0  0  0  0  0  0  0  0  0  0
    6.3354    1.0377   -1.0071 H   0  0  0  0  0  0  0  0  0  0  0  0
    7.3936   -0.2393   -1.6534 H   0  0  0  0  0  0  0  0  0  0  0  0
  1  2  1  0  0  0  0
  2  3  1  0  0  0  0
  3  4  1  0  0  0  0
  4  5  1  0  0  0  0
  5  6  2  0  0  0  0
  6  7  1  0  0  0  0
  7  8  2  0  0  0  0
  8  9  1  0  0  0  0
  9 10  2  0  0  0  0
  2 10  1  0  0  0  0
  5 10  1  0  0  0  0
  8 11  1  0  0  0  0
 11 12  1  0  0  0  0
 12 13  1  0  0  0  0
 12 14  1  0  0  0  0
 11 15  1  0  0  0  0
 15 16  1  0  0  0  0
  6 17  1  0  0  0  0
 17 18  1  0  0  0  0
  3 19  1  0  0  0  0
 19 20  2  0  0  0  0
 20 21  1  0  0  0  0
 21 22  2  0  0  0  0
 22 23  1  0  0  0  0
 23 24  2  0  0  0  0
 19 24  1  0  0  0  0
 22 25  1  0  0  0  0
 21 26  1  0  0  0  0
 26 27  1  0  0  0  0
  1 28  1  0  0  0  0
  1 29  1  0  0  0  0
  1 30  1  0  0  0  0
  2 31  1  0  0  0  0
  3 32  1  0  0  0  0
  7 33  1  0  0  0  0
  9 34  1  0  0  0  0
 11 35  1  0  0  0  0
 12 36  1  0  0  0  0
 13 37  1  0  0  0  0
 13 38  1  0  0  0  0
 13 39  1  0  0  0  0
 14 40  1  0  0  0  0
 16 41  1  0  0  0  0
 16 42  1  0  0  0  0
 16 43  1  0  0  0  0
 18 44  1  0  0  0  0
 18 45  1  0  0  0  0
 18 46  1  0  0  0  0
 20 47  1  0  0  0  0
 23 48  1  0  0  0  0
 24 49  1  0  0  0  0
 25 50  1  0  0  0  0
 27 51  1  0  0  0  0
 27 52  1  0  0  0  0
 27 53  1  0  0  0  0
M  END
$$$$
