C25H34O7
APtclcactv06281817413D 0   0.00000     0.00000
 
 66 69  0  0  0  0  0  0  0  0999 V2000
    5.0906    1.2457    0.0127 C   0  0  0  0  0  0  0  0  0  0  0  0
    3.8579    0.3460    0.1219 C   0  0  0  0  0  0  0  0  0  0  0  0
    4.2880   -1.0587    0.5494 C   0  0  0  0  0  0  0  0  0  0  0  0
    5.0723   -1.7044   -0.5638 C   0  0  0  0  0  0  0  0  0  0  0  0
    5.2671   -1.1029   -1.5933 O   0  0  0  0  0  0  0  0  0  0  0  0
    5.5543   -2.9479   -0.4114 O   0  0  0  0  0  0  0  0  0  0  0  0
    2.8956    0.9233    1.1619 C   0  0  0  0  0  0  0  0  0  0  0  0
    2.6529    2.4343    0.9187 C   0  0  0  0  0  0  0  0  0  0  0  0
    1.4420    2.4856    0.0115 C   0  0  0  0  0  0  0  0  0  0  0  0
    0.8035    1.3370    0.0228 C   0  0  0  0  0  0  0  0  0  0  0  0
    1.4770    0.3603    0.9756 C   0  0  0  0  0  0  0  0  0  0  0  0
    1.4953   -0.9943    0.2633 C   0  0  0  0  0  0  0  0  0  0  0  0
    0.0494   -1.4135   -0.0131 C   0  0  0  0  0  0  0  0  0  0  0  0
   -0.6992   -0.3782   -0.7988 C   0  0  0  0  0  0  0  0  0  0  0  0
   -0.3687    0.9268   -0.7901 C   0  0  0  0  0  0  0  0  0  0  0  0
   -1.1460    1.9164   -1.5625 C   0  0  0  0  0  0  0  0  0  0  0  0
   -2.1666    1.5791   -2.1287 O   0  0  0  0  0  0  0  0  0  0  0  0
   -0.7235    3.1935   -1.6393 O   0  0  0  0  0  0  0  0  0  0  0  0
   -1.8732   -0.8183   -1.6349 C   0  0  0  0  0  0  0  0  0  0  0  0
   -3.1184   -0.9207   -0.7518 C   0  0  0  0  0  0  0  0  0  0  0  0
   -4.4507   -1.2009   -1.5097 C   0  0  0  0  0  0  0  0  0  0  0  0
   -5.3531   -1.8032   -0.4023 C   0  0  0  0  0  0  0  0  0  0  0  0
   -4.4203   -1.7812    0.8464 C   0  0  0  0  0  0  0  0  0  0  0  0
   -3.1110   -2.0098    0.2278 O   0  0  0  0  0  0  0  0  0  0  0  0
   -4.2995   -0.2779    1.2385 C   0  0  0  0  0  0  0  0  0  0  0  0
   -3.3999    0.3039    0.1282 C   0  0  0  0  0  0  0  0  0  0  0  0
   -3.0135    1.4405   -0.0029 O   0  0  0  0  0  0  0  0  0  0  0  0
   -5.6724    0.3973    1.2230 C   0  0  0  0  0  0  0  0  0  0  0  0
   -3.6368   -0.1280    2.6094 C   0  0  0  0  0  0  0  0  0  0  0  0
    2.2076   -0.8799   -0.9702 O   0  0  0  0  0  0  0  0  0  0  0  0
    0.7332    0.2868    2.3106 C   0  0  0  0  0  0  0  0  0  0  0  0
    3.4074    0.6696    2.5813 C   0  0  0  0  0  0  0  0  0  0  0  0
    5.8216    0.7816   -0.6492 H   0  0  0  0  0  0  0  0  0  0  0  0
    4.7983    2.2150   -0.3913 H   0  0  0  0  0  0  0  0  0  0  0  0
    5.5299    1.3816    1.0010 H   0  0  0  0  0  0  0  0  0  0  0  0
    3.3588    0.2945   -0.8457 H   0  0  0  0  0  0  0  0  0  0  0  0
    4.9108   -0.9922    1.4415 H   0  0  0  0  0  0  0  0  0  0  0  0
    3.4045   -1.6588    0.7670 H   0  0  0  0  0  0  0  0  0  0  0  0
    6.0510   -3.3201   -1.1530 H   0  0  0  0  0  0  0  0  0  0  0  0
    2.4441    2.9421    1.8603 H   0  0  0  0  0  0  0  0  0  0  0  0
    3.5156    2.8835    0.4268 H   0  0  0  0  0  0  0  0  0  0  0  0
    1.1436    3.3482   -0.5657 H   0  0  0  0  0  0  0  0  0  0  0  0
    1.9778   -1.7368    0.8990 H   0  0  0  0  0  0  0  0  0  0  0  0
    0.0530   -2.3486   -0.5732 H   0  0  0  0  0  0  0  0  0  0  0  0
   -0.4604   -1.5739    0.9369 H   0  0  0  0  0  0  0  0  0  0  0  0
   -1.2656    3.8049   -2.1564 H   0  0  0  0  0  0  0  0  0  0  0  0
   -2.0483   -0.0903   -2.4270 H   0  0  0  0  0  0  0  0  0  0  0  0
   -1.6601   -1.7917   -2.0767 H   0  0  0  0  0  0  0  0  0  0  0  0
   -4.8780   -0.2752   -1.8952 H   0  0  0  0  0  0  0  0  0  0  0  0
   -4.2940   -1.9197   -2.3139 H   0  0  0  0  0  0  0  0  0  0  0  0
   -6.2327   -1.1806   -0.2389 H   0  0  0  0  0  0  0  0  0  0  0  0
   -5.6416   -2.8244   -0.6514 H   0  0  0  0  0  0  0  0  0  0  0  0
   -4.6932   -2.4663    1.6490 H   0  0  0  0  0  0  0  0  0  0  0  0
   -6.3357   -0.1120    1.9222 H   0  0  0  0  0  0  0  0  0  0  0  0
   -5.5671    1.4415    1.5171 H   0  0  0  0  0  0  0  0  0  0  0  0
   -6.0925    0.3432    0.2187 H   0  0  0  0  0  0  0  0  0  0  0  0
   -2.6390   -0.5657    2.5804 H   0  0  0  0  0  0  0  0  0  0  0  0
   -3.5625    0.9294    2.8634 H   0  0  0  0  0  0  0  0  0  0  0  0
   -4.2368   -0.6410    3.3610 H   0  0  0  0  0  0  0  0  0  0  0  0
    2.2574   -1.7041   -1.4735 H   0  0  0  0  0  0  0  0  0  0  0  0
   -0.2826   -0.0706    2.1414 H   0  0  0  0  0  0  0  0  0  0  0  0
    1.2532   -0.3996    2.9789 H   0  0  0  0  0  0  0  0  0  0  0  0
    0.6990    1.2780    2.7626 H   0  0  0  0  0  0  0  0  0  0  0  0
    4.3874    1.1312    2.7021 H   0  0  0  0  0  0  0  0  0  0  0  0
    2.7115    1.1007    3.3010 H   0  0  0  0  0  0  0  0  0  0  0  0
    3.4880   -0.4040    2.7520 H   0  0  0  0  0  0  0  0  0  0  0  0
  1  2  1  0  0  0  0
  2  3  1  0  0  0  0
  3  4  1  0  0  0  0
  4  5  2  0  0  0  0
  4  6  1  0  0  0  0
  2  7  1  0  0  0  0
  7  8  1  0  0  0  0
  8  9  1  0  0  0  0
  9 10  2  0  0  0  0
 10 11  1  0  0  0  0
  7 11  1  0  0  0  0
 11 12  1  0  0  0  0
 12 13  1  0  0  0  0
 13 14  1  0  0  0  0
 14 15  2  0  0  0  0
 10 15  1  0  0  0  0
 15 16  1  0  0  0  0
 16 17  2  0  0  0  0
 16 18  1  0  0  0  0
 14 19  1  0  0  0  0
 19 20  1  0  0  0  0
 20 21  1  0  0  0  0
 21 22  1  0  0  0  0
 22 23  1  0  0  0  0
 23 24  1  0  0  0  0
 20 24  1  0  0  0  0
 23 25  1  0  0  0  0
 25 26  1  0  0  0  0
 20 26  1  0  0  0  0
 26 27  2  0  0  0  0
 25 28  1  0  0  0  0
 25 29  1  0  0  0  0
 12 30  1  0  0  0  0
 11 31  1  0  0  0  0
  7 32  1  0  0  0  0
  1 33  1  0  0  0  0
  1 34  1  0  0  0  0
  1 35  1  0  0  0  0
  2 36  1  0  0  0  0
  3 37  1  0  0  0  0
  3 38  1  0  0  0  0
  6 39  1  0  0  0  0
  8 40  1  0  0  0  0
  8 41  1  0  0  0  0
  9 42  1  0  0  0  0
 12 43  1  0  0  0  0
 13 44  1  0  0  0  0
 13 45  1  0  0  0  0
 18 46  1  0  0  0  0
 19 47  1  0  0  0  0
 19 48  1  0  0  0  0
 21 49  1  0  0  0  0
 21 50  1  0  0  0  0
 22 51  1  0  0  0  0
 22 52  1  0  0  0  0
 23 53  1  0  0  0  0
 28 54  1  0  0  0  0
 28 55  1  0  0  0  0
 28 56  1  0  0  0  0
 29 57  1  0  0  0  0
 29 58  1  0  0  0  0
 29 59  1  0  0  0  0
 30 60  1  0  0  0  0
 31 61  1  0  0  0  0
 31 62  1  0  0  0  0
 31 63  1  0  0  0  0
 32 64  1  0  0  0  0
 32 65  1  0  0  0  0
 32 66  1  0  0  0  0
M  END
$$$$
