C19H22O5
APtclcactv06281817413D 0   0.00000     0.00000
 
 46 48  0  0  0  0  0  0  0  0999 V2000
   -0.3380    2.8741    1.7231 C   0  0  0  0  0  0  0  0  0  0  0  0
    0.0792    1.7727    0.7464 C   0  0  0  0  0  0  0  0  0  0  0  0
    0.9939    0.7358    1.4403 C   0  0  0  0  0  0  0  0  0  0  0  0
    0.0607   -0.2624    1.8875 O   0  0  0  0  0  0  0  0  0  0  0  0
   -1.0260   -0.2607    1.0661 C   0  0  0  0  0  0  0  0  0  0  0  0
   -2.0033   -1.2397    0.8719 C   0  0  0  0  0  0  0  0  0  0  0  0
   -3.0397   -1.0202   -0.0183 C   0  0  0  0  0  0  0  0  0  0  0  0
   -3.1154    0.1679   -0.7209 C   0  0  0  0  0  0  0  0  0  0  0  0
   -2.1475    1.1391   -0.5360 C   0  0  0  0  0  0  0  0  0  0  0  0
   -1.1117    0.9228    0.3473 C   0  0  0  0  0  0  0  0  0  0  0  0
   -4.2486    0.4044   -1.6858 C   0  0  0  0  0  0  0  0  0  0  0  0
   -5.4166    1.0632   -0.9491 C   0  0  0  0  0  0  0  0  0  0  0  0
   -6.4911    1.2875   -1.8641 O   0  0  0  0  0  0  0  0  0  0  0  0
   -1.9356   -2.4115    1.5588 O   0  0  0  0  0  0  0  0  0  0  0  0
   -2.9676   -3.3686    1.3120 C   0  0  0  0  0  0  0  0  0  0  0  0
    1.9751    0.1480    0.4591 C   0  0  0  0  0  0  0  0  0  0  0  0
    3.2757    0.6149    0.4208 C   0  0  0  0  0  0  0  0  0  0  0  0
    4.1791    0.0755   -0.4808 C   0  0  0  0  0  0  0  0  0  0  0  0
    3.7739   -0.9360   -1.3463 C   0  0  0  0  0  0  0  0  0  0  0  0
    2.4688   -1.3994   -1.3027 C   0  0  0  0  0  0  0  0  0  0  0  0
    1.5740   -0.8608   -0.3969 C   0  0  0  0  0  0  0  0  0  0  0  0
    4.6568   -1.4682   -2.2333 O   0  0  0  0  0  0  0  0  0  0  0  0
    5.4589    0.5340   -0.5201 O   0  0  0  0  0  0  0  0  0  0  0  0
    5.8039    1.5739    0.3972 C   0  0  0  0  0  0  0  0  0  0  0  0
    0.5500    3.3846    2.0958 H   0  0  0  0  0  0  0  0  0  0  0  0
   -0.9804    3.5901    1.2104 H   0  0  0  0  0  0  0  0  0  0  0  0
   -0.8807    2.4323    2.5587 H   0  0  0  0  0  0  0  0  0  0  0  0
    0.5671    2.1971   -0.1310 H   0  0  0  0  0  0  0  0  0  0  0  0
    1.5141    1.1847    2.2864 H   0  0  0  0  0  0  0  0  0  0  0  0
   -3.7930   -1.7802   -0.1644 H   0  0  0  0  0  0  0  0  0  0  0  0
   -2.2032    2.0675   -1.0850 H   0  0  0  0  0  0  0  0  0  0  0  0
   -3.9108    1.0584   -2.4897 H   0  0  0  0  0  0  0  0  0  0  0  0
   -4.5739   -0.5479   -2.1046 H   0  0  0  0  0  0  0  0  0  0  0  0
   -5.7544    0.4092   -0.1452 H   0  0  0  0  0  0  0  0  0  0  0  0
   -5.0912    2.0155   -0.5304 H   0  0  0  0  0  0  0  0  0  0  0  0
   -7.2673    1.7036   -1.4648 H   0  0  0  0  0  0  0  0  0  0  0  0
   -2.7945   -4.2550    1.9223 H   0  0  0  0  0  0  0  0  0  0  0  0
   -3.9343   -2.9347    1.5675 H   0  0  0  0  0  0  0  0  0  0  0  0
   -2.9612   -3.6463    0.2580 H   0  0  0  0  0  0  0  0  0  0  0  0
    3.5876    1.4003    1.0933 H   0  0  0  0  0  0  0  0  0  0  0  0
    2.1517   -2.1843   -1.9734 H   0  0  0  0  0  0  0  0  0  0  0  0
    0.5570   -1.2229   -0.3639 H   0  0  0  0  0  0  0  0  0  0  0  0
    5.1476   -2.2282   -1.8918 H   0  0  0  0  0  0  0  0  0  0  0  0
    6.8505    1.8461    0.2610 H   0  0  0  0  0  0  0  0  0  0  0  0
    5.1750    2.4448    0.2124 H   0  0  0  0  0  0  0  0  0  0  0  0
    5.6493    1.2241    1.4179 H   0  0  0  0  0  0  0  0  0  0  0  0
  1  2  1  0  0  0  0
  2  3  1  0  0  0  0
  3  4  1  0  0  0  0
  4  5  1  0  0  0  0
  5  6  2  0  0  0  0
  6  7  1  0  0  0  0
  7  8  2  0  0  0  0
  8  9  1  0  0  0  0
  9 10  2  0  0  0  0
  2 10  1  0  0  0  0
  5 10  1  0  0  0  0
  8 11  1  0  0  0  0
 11 12  1  0  0  0  0
 12 13  1  0  0  0  0
  6 14  1  0  0  0  0
 14 15  1  0  0  0  0
  3 16  1  0  0  0  0
 16 17  2  0  0  0  0
 17 18  1  0  0  0  0
 18 19  2  0  0  0  0
 19 20  1  0  0  0  0
 20 21  2  0  0  0  0
 16 21  1  0  0  0  0
 19 22  1  0  0  0  0
 18 23  1  0  0  0  0
 23 24  1  0  0  0  0
  1 25  1  0  0  0  0
  1 26  1  0  0  0  0
  1 27  1  0  0  0  0
  2 28  1  0  0  0  0
  3 29  1  0  0  0  0
  7 30  1  0  0  0  0
  9 31  1  0  0  0  0
 11 32  1  0  0  0  0
 11 33  1  0  0  0  0
 12 34  1  0  0  0  0
 12 35  1  0  0  0  0
 13 36  1  0  0  0  0
 15 37  1  0  0  0  0
 15 38  1  0  0  0  0
 15 39  1  0  0  0  0
 17 40  1  0  0  0  0
 20 41  1  0  0  0  0
 21 42  1  0  0  0  0
 22 43  1  0  0  0  0
 24 44  1  0  0  0  0
 24 45  1  0  0  0  0
 24 46  1  0  0  0  0
M  END
$$$$
