C17H14O8
APtclcactv06281817413D 0   0.00000     0.00000
 
 39 41  0  0  0  0  0  0  0  0999 V2000
   -6.2763   -1.7359    0.9821 C   0  0  0  0  0  0  0  0  0  0  0  0
   -5.8193   -0.7271    0.0791 O   0  0  0  0  0  0  0  0  0  0  0  0
   -4.4893   -0.4488    0.0868 C   0  0  0  0  0  0  0  0  0  0  0  0
   -3.9779    0.5246   -0.7695 C   0  0  0  0  0  0  0  0  0  0  0  0
   -2.6258    0.8095   -0.7628 C   0  0  0  0  0  0  0  0  0  0  0  0
   -1.7739    0.1193    0.1041 C   0  0  0  0  0  0  0  0  0  0  0  0
   -2.2938   -0.8557    0.9601 C   0  0  0  0  0  0  0  0  0  0  0  0
   -3.6445   -1.1306    0.9515 C   0  0  0  0  0  0  0  0  0  0  0  0
   -0.3301    0.4186    0.1153 C   0  0  0  0  0  0  0  0  0  0  0  0
    0.0698    1.7204    0.1631 C   0  0  0  0  0  0  0  0  0  0  0  0
    1.4554    2.0252    0.1744 C   0  0  0  0  0  0  0  0  0  0  0  0
    1.8505    3.1794    0.2172 O   0  0  0  0  0  0  0  0  0  0  0  0
    2.3980    0.8956    0.1330 C   0  0  0  0  0  0  0  0  0  0  0  0
    1.8794   -0.4101    0.0850 C   0  0  0  0  0  0  0  0  0  0  0  0
    0.5429   -0.6028    0.0834 O   0  0  0  0  0  0  0  0  0  0  0  0
    2.7531   -1.4901    0.0453 C   0  0  0  0  0  0  0  0  0  0  0  0
    4.1247   -1.2733    0.0533 C   0  0  0  0  0  0  0  0  0  0  0  0
    4.6371    0.0185    0.1008 C   0  0  0  0  0  0  0  0  0  0  0  0
    3.7831    1.1045    0.1402 C   0  0  0  0  0  0  0  0  0  0  0  0
    4.2837    2.3661    0.1862 O   0  0  0  0  0  0  0  0  0  0  0  0
    4.9738   -2.3332    0.0148 O   0  0  0  0  0  0  0  0  0  0  0  0
    2.2645   -2.7603   -0.0008 O   0  0  0  0  0  0  0  0  0  0  0  0
    2.0313   -3.3190   -1.2953 C   0  0  0  0  0  0  0  0  0  0  0  0
   -0.8527    2.7204    0.1992 O   0  0  0  0  0  0  0  0  0  0  0  0
   -4.8096    1.1940   -1.6120 O   0  0  0  0  0  0  0  0  0  0  0  0
   -6.0450   -1.4395    2.0052 H   0  0  0  0  0  0  0  0  0  0  0  0
   -7.3539   -1.8590    0.8743 H   0  0  0  0  0  0  0  0  0  0  0  0
   -5.7784   -2.6788    0.7557 H   0  0  0  0  0  0  0  0  0  0  0  0
   -2.2282    1.5633   -1.4261 H   0  0  0  0  0  0  0  0  0  0  0  0
   -1.6380   -1.3909    1.6308 H   0  0  0  0  0  0  0  0  0  0  0  0
   -4.0451   -1.8839    1.6136 H   0  0  0  0  0  0  0  0  0  0  0  0
    5.7059    0.1738    0.1065 H   0  0  0  0  0  0  0  0  0  0  0  0
    4.4287    2.7636   -0.6834 H   0  0  0  0  0  0  0  0  0  0  0  0
    5.2197   -2.6079   -0.8792 H   0  0  0  0  0  0  0  0  0  0  0  0
    1.6436   -4.3322   -1.1892 H   0  0  0  0  0  0  0  0  0  0  0  0
    1.3055   -2.7064   -1.8301 H   0  0  0  0  0  0  0  0  0  0  0  0
    2.9670   -3.3446   -1.8539 H   0  0  0  0  0  0  0  0  0  0  0  0
   -0.4698    3.6077    0.2318 H   0  0  0  0  0  0  0  0  0  0  0  0
   -5.1830    2.0027   -1.2357 H   0  0  0  0  0  0  0  0  0  0  0  0
  1  2  1  0  0  0  0
  2  3  1  0  0  0  0
  3  4  2  0  0  0  0
  4  5  1  0  0  0  0
  5  6  2  0  0  0  0
  6  7  1  0  0  0  0
  7  8  2  0  0  0  0
  3  8  1  0  0  0  0
  6  9  1  0  0  0  0
  9 10  2  0  0  0  0
 10 11  1  0  0  0  0
 11 12  2  0  0  0  0
 11 13  1  0  0  0  0
 13 14  2  0  0  0  0
 14 15  1  0  0  0  0
  9 15  1  0  0  0  0
 14 16  1  0  0  0  0
 16 17  2  0  0  0  0
 17 18  1  0  0  0  0
 18 19  2  0  0  0  0
 13 19  1  0  0  0  0
 19 20  1  0  0  0  0
 17 21  1  0  0  0  0
 16 22  1  0  0  0  0
 22 23  1  0  0  0  0
 10 24  1  0  0  0  0
  4 25  1  0  0  0  0
  1 26  1  0  0  0  0
  1 27  1  0  0  0  0
  1 28  1  0  0  0  0
  5 29  1  0  0  0  0
  7 30  1  0  0  0  0
  8 31  1  0  0  0  0
 18 32  1  0  0  0  0
 20 33  1  0  0  0  0
 21 34  1  0  0  0  0
 23 35  1  0  0  0  0
 23 36  1  0  0  0  0
 23 37  1  0  0  0  0
 24 38  1  0  0  0  0
 25 39  1  0  0  0  0
M  END
$$$$
