C27H30O16
APtclcactv06281817143D 0   0.00000     0.00000
 
 73 77  0  0  0  0  0  0  0  0999 V2000
    4.8323    1.3196   -2.2119 C   0  0  0  0  0  0  0  0  0  0  0  0
    5.4376    0.2966   -1.2486 C   0  0  0  0  0  0  0  0  0  0  0  0
    6.1810    1.0282   -0.1279 C   0  0  0  0  0  0  0  0  0  0  0  0
    5.1841    1.8796    0.6644 C   0  0  0  0  0  0  0  0  0  0  0  0
    4.0696    0.9754    1.1998 C   0  0  0  0  0  0  0  0  0  0  0  0
    3.4078    0.2458    0.0278 C   0  0  0  0  0  0  0  0  0  0  0  0
    4.3953   -0.5020   -0.6848 O   0  0  0  0  0  0  0  0  0  0  0  0
    2.4043   -0.6420    0.5246 O   0  0  0  0  0  0  0  0  0  0  0  0
    1.6455   -1.2916   -0.4972 C   0  0  0  0  0  0  0  0  0  0  0  0
    1.1841   -2.6642    0.0022 C   0  0  0  0  0  0  0  0  0  0  0  0
    0.3076   -3.3176   -1.0708 C   0  0  0  0  0  0  0  0  0  0  0  0
   -0.8679   -2.3909   -1.3921 C   0  0  0  0  0  0  0  0  0  0  0  0
   -0.3693   -1.1222   -1.8209 O   0  0  0  0  0  0  0  0  0  0  0  0
    0.4183   -0.4433   -0.8407 C   0  0  0  0  0  0  0  0  0  0  0  0
   -0.3627   -0.2359    0.3379 O   0  0  0  0  0  0  0  0  0  0  0  0
   -1.3267    0.7230    0.2795 C   0  0  0  0  0  0  0  0  0  0  0  0
   -2.6375    0.3899    0.4447 C   0  0  0  0  0  0  0  0  0  0  0  0
   -3.6246    1.3009    0.3959 O   0  0  0  0  0  0  0  0  0  0  0  0
   -3.3868    2.6116    0.1797 C   0  0  0  0  0  0  0  0  0  0  0  0
   -4.4300    3.5236    0.1364 C   0  0  0  0  0  0  0  0  0  0  0  0
   -4.1690    4.8667   -0.0863 C   0  0  0  0  0  0  0  0  0  0  0  0
   -2.8653    5.3149   -0.2687 C   0  0  0  0  0  0  0  0  0  0  0  0
   -1.8115    4.4208   -0.2295 C   0  0  0  0  0  0  0  0  0  0  0  0
   -2.0676    3.0621   -0.0039 C   0  0  0  0  0  0  0  0  0  0  0  0
   -0.9744    2.0785    0.0518 C   0  0  0  0  0  0  0  0  0  0  0  0
    0.1896    2.4149   -0.0967 O   0  0  0  0  0  0  0  0  0  0  0  0
   -0.5386    4.8561   -0.4082 O   0  0  0  0  0  0  0  0  0  0  0  0
   -5.1964    5.7532   -0.1272 O   0  0  0  0  0  0  0  0  0  0  0  0
   -2.9862   -1.0224    0.6855 C   0  0  0  0  0  0  0  0  0  0  0  0
   -2.2902   -1.7620    1.6459 C   0  0  0  0  0  0  0  0  0  0  0  0
   -2.6210   -3.0851    1.8675 C   0  0  0  0  0  0  0  0  0  0  0  0
   -3.6462   -3.6795    1.1340 C   0  0  0  0  0  0  0  0  0  0  0  0
   -4.3376   -2.9454    0.1803 C   0  0  0  0  0  0  0  0  0  0  0  0
   -4.0174   -1.6233   -0.0419 C   0  0  0  0  0  0  0  0  0  0  0  0
   -3.9695   -4.9810    1.3527 O   0  0  0  0  0  0  0  0  0  0  0  0
   -1.9459   -3.8076    2.8011 O   0  0  0  0  0  0  0  0  0  0  0  0
   -1.7153   -3.0092   -2.5060 C   0  0  0  0  0  0  0  0  0  0  0  0
   -2.8747   -2.2033   -2.7255 O   0  0  0  0  0  0  0  0  0  0  0  0
    1.0813   -3.5347   -2.2524 O   0  0  0  0  0  0  0  0  0  0  0  0
    2.3236   -3.4885    0.2557 O   0  0  0  0  0  0  0  0  0  0  0  0
    4.6241    0.0193    2.1056 O   0  0  0  0  0  0  0  0  0  0  0  0
    5.8558    2.5088    1.7575 O   0  0  0  0  0  0  0  0  0  0  0  0
    6.7914    0.0735    0.7428 O   0  0  0  0  0  0  0  0  0  0  0  0
    5.6274    1.9293   -2.6411 H   0  0  0  0  0  0  0  0  0  0  0  0
    4.3031    0.7985   -3.0097 H   0  0  0  0  0  0  0  0  0  0  0  0
    4.1352    1.9597   -1.6712 H   0  0  0  0  0  0  0  0  0  0  0  0
    6.1345   -0.3439   -1.7893 H   0  0  0  0  0  0  0  0  0  0  0  0
    6.9477    1.6718   -0.5591 H   0  0  0  0  0  0  0  0  0  0  0  0
    4.7549    2.6401    0.0121 H   0  0  0  0  0  0  0  0  0  0  0  0
    3.3264    1.5812    1.7181 H   0  0  0  0  0  0  0  0  0  0  0  0
    2.9500    0.9739   -0.6418 H   0  0  0  0  0  0  0  0  0  0  0  0
    2.2636   -1.4164   -1.3863 H   0  0  0  0  0  0  0  0  0  0  0  0
    0.6083   -2.5437    0.9198 H   0  0  0  0  0  0  0  0  0  0  0  0
   -0.0704   -4.2709   -0.7015 H   0  0  0  0  0  0  0  0  0  0  0  0
   -1.4805   -2.2582   -0.5003 H   0  0  0  0  0  0  0  0  0  0  0  0
    0.7413    0.5194   -1.2371 H   0  0  0  0  0  0  0  0  0  0  0  0
   -5.4468    3.1874    0.2759 H   0  0  0  0  0  0  0  0  0  0  0  0
   -2.6756    6.3639   -0.4418 H   0  0  0  0  0  0  0  0  0  0  0  0
   -0.0919    5.1122    0.4104 H   0  0  0  0  0  0  0  0  0  0  0  0
   -5.4170    6.1395    0.7314 H   0  0  0  0  0  0  0  0  0  0  0  0
   -1.4955   -1.3005    2.2132 H   0  0  0  0  0  0  0  0  0  0  0  0
   -5.1313   -3.4100   -0.3859 H   0  0  0  0  0  0  0  0  0  0  0  0
   -4.5570   -1.0544   -0.7847 H   0  0  0  0  0  0  0  0  0  0  0  0
   -4.6468   -5.1095    2.0308 H   0  0  0  0  0  0  0  0  0  0  0  0
   -2.3343   -3.7677    3.6858 H   0  0  0  0  0  0  0  0  0  0  0  0
   -1.1287   -3.0594   -3.4233 H   0  0  0  0  0  0  0  0  0  0  0  0
   -2.0211   -4.0140   -2.2147 H   0  0  0  0  0  0  0  0  0  0  0  0
   -3.4593   -2.5362   -3.4201 H   0  0  0  0  0  0  0  0  0  0  0  0
    0.5883   -3.9466   -2.9751 H   0  0  0  0  0  0  0  0  0  0  0  0
    2.1048   -4.3745    0.5754 H   0  0  0  0  0  0  0  0  0  0  0  0
    3.9733   -0.5876    2.4840 H   0  0  0  0  0  0  0  0  0  0  0  0
    5.2832    3.0649    2.3034 H   0  0  0  0  0  0  0  0  0  0  0  0
    7.4320   -0.5041    0.3058 H   0  0  0  0  0  0  0  0  0  0  0  0
  1  2  1  0  0  0  0
  2  3  1  0  0  0  0
  3  4  1  0  0  0  0
  4  5  1  0  0  0  0
  5  6  1  0  0  0  0
  6  7  1  0  0  0  0
  2  7  1  0  0  0  0
  6  8  1  0  0  0  0
  8  9  1  0  0  0  0
  9 10  1  0  0  0  0
 10 11  1  0  0  0  0
 11 12  1  0  0  0  0
 12 13  1  0  0  0  0
 13 14  1  0  0  0  0
  9 14  1  0  0  0  0
 14 15  1  0  0  0  0
 15 16  1  0  0  0  0
 16 17  2  0  0  0  0
 17 18  1  0  0  0  0
 18 19  1  0  0  0  0
 19 20  2  0  0  0  0
 20 21  1  0  0  0  0
 21 22  2  0  0  0  0
 22 23  1  0  0  0  0
 23 24  2  0  0  0  0
 19 24  1  0  0  0  0
 24 25  1  0  0  0  0
 16 25  1  0  0  0  0
 25 26  2  0  0  0  0
 23 27  1  0  0  0  0
 21 28  1  0  0  0  0
 17 29  1  0  0  0  0
 29 30  2  0  0  0  0
 30 31  1  0  0  0  0
 31 32  2  0  0  0  0
 32 33  1  0  0  0  0
 33 34  2  0  0  0  0
 29 34  1  0  0  0  0
 32 35  1  0  0  0  0
 31 36  1  0  0  0  0
 12 37  1  0  0  0  0
 37 38  1  0  0  0  0
 11 39  1  0  0  0  0
 10 40  1  0  0  0  0
  5 41  1  0  0  0  0
  4 42  1  0  0  0  0
  3 43  1  0  0  0  0
  1 44  1  0  0  0  0
  1 45  1  0  0  0  0
  1 46  1  0  0  0  0
  2 47  1  0  0  0  0
  3 48  1  0  0  0  0
  4 49  1  0  0  0  0
  5 50  1  0  0  0  0
  6 51  1  0  0  0  0
  9 52  1  0  0  0  0
 10 53  1  0  0  0  0
 11 54  1  0  0  0  0
 12 55  1  0  0  0  0
 14 56  1  0  0  0  0
 20 57  1  0  0  0  0
 22 58  1  0  0  0  0
 27 59  1  0  0  0  0
 28 60  1  0  0  0  0
 30 61  1  0  0  0  0
 33 62  1  0  0  0  0
 34 63  1  0  0  0  0
 35 64  1  0  0  0  0
 36 65  1  0  0  0  0
 37 66  1  0  0  0  0
 37 67  1  0  0  0  0
 38 68  1  0  0  0  0
 39 69  1  0  0  0  0
 40 70  1  0  0  0  0
 41 71  1  0  0  0  0
 42 72  1  0  0  0  0
 43 73  1  0  0  0  0
M  END
$$$$
