C15H26O
APtclcactv06281817413D 0   0.00000     0.00000
 
 42 44  0  0  0  0  0  0  0  0999 V2000
    3.2954    0.0029   -1.3281 C   0  0  0  0  0  0  0  0  0  0  0  0
    2.5630   -0.0080    0.0152 C   0  0  0  0  0  0  0  0  0  0  0  0
    1.6069    1.2048    0.1289 C   0  0  0  0  0  0  0  0  0  0  0  0
    0.3588    0.7820   -0.6717 C   0  0  0  0  0  0  0  0  0  0  0  0
    0.3524   -0.7640   -0.6889 C   0  0  0  0  0  0  0  0  0  0  0  0
    1.5961   -1.2145    0.1034 C   0  0  0  0  0  0  0  0  0  0  0  0
   -0.9133   -1.1958    0.0857 C   0  0  0  0  0  0  0  0  0  0  0  0
   -2.0791   -1.2324   -0.9179 C   0  0  0  0  0  0  0  0  0  0  0  0
   -2.0391    0.0337   -1.7757 C   0  0  0  0  0  0  0  0  0  0  0  0
   -2.0681    1.2790   -0.8875 C   0  0  0  0  0  0  0  0  0  0  0  0
   -0.9022    1.2072    0.1141 C   0  0  0  0  0  0  0  0  0  0  0  0
   -1.1843   -0.0041    1.0411 C   0  0  0  0  0  0  0  0  0  0  0  0
   -2.5421   -0.0032    1.4866 O   0  0  0  0  0  0  0  0  0  0  0  0
   -0.7049    2.5183    0.8777 C   0  0  0  0  0  0  0  0  0  0  0  0
   -0.7291   -2.5265    0.8179 C   0  0  0  0  0  0  0  0  0  0  0  0
    3.5612   -0.0222    1.1746 C   0  0  0  0  0  0  0  0  0  0  0  0
    3.8782    0.9197   -1.4167 H   0  0  0  0  0  0  0  0  0  0  0  0
    3.9614   -0.8581   -1.3858 H   0  0  0  0  0  0  0  0  0  0  0  0
    2.5683   -0.0452   -2.1387 H   0  0  0  0  0  0  0  0  0  0  0  0
    1.3468    1.3887    1.1713 H   0  0  0  0  0  0  0  0  0  0  0  0
    2.0613    2.0912   -0.3136 H   0  0  0  0  0  0  0  0  0  0  0  0
    0.3723    1.1942   -1.6807 H   0  0  0  0  0  0  0  0  0  0  0  0
    0.3638   -1.1538   -1.7068 H   0  0  0  0  0  0  0  0  0  0  0  0
    2.0429   -2.0956   -0.3572 H   0  0  0  0  0  0  0  0  0  0  0  0
    1.3337   -1.4176    1.1416 H   0  0  0  0  0  0  0  0  0  0  0  0
   -1.9820   -2.1096   -1.5577 H   0  0  0  0  0  0  0  0  0  0  0  0
   -3.0244   -1.2768   -0.3771 H   0  0  0  0  0  0  0  0  0  0  0  0
   -1.1265    0.0369   -2.3717 H   0  0  0  0  0  0  0  0  0  0  0  0
   -2.9018    0.0455   -2.4418 H   0  0  0  0  0  0  0  0  0  0  0  0
   -1.9634    2.1705   -1.5058 H   0  0  0  0  0  0  0  0  0  0  0  0
   -3.0128    1.3183   -0.3453 H   0  0  0  0  0  0  0  0  0  0  0  0
   -0.4971   -0.0173    1.8871 H   0  0  0  0  0  0  0  0  0  0  0  0
   -2.7655   -0.7421    2.0690 H   0  0  0  0  0  0  0  0  0  0  0  0
   -1.6494    2.8214    1.3295 H   0  0  0  0  0  0  0  0  0  0  0  0
    0.0419    2.3750    1.6587 H   0  0  0  0  0  0  0  0  0  0  0  0
   -0.3665    3.2925    0.1891 H   0  0  0  0  0  0  0  0  0  0  0  0
   -0.0006   -2.4025    1.6192 H   0  0  0  0  0  0  0  0  0  0  0  0
   -1.6827   -2.8441    1.2398 H   0  0  0  0  0  0  0  0  0  0  0  0
   -0.3728   -3.2809    0.1165 H   0  0  0  0  0  0  0  0  0  0  0  0
    4.1819    0.8727    1.1305 H   0  0  0  0  0  0  0  0  0  0  0  0
    3.0195   -0.0424    2.1203 H   0  0  0  0  0  0  0  0  0  0  0  0
    4.1933   -0.9069    1.0991 H   0  0  0  0  0  0  0  0  0  0  0  0
  1  2  1  0  0  0  0
  2  3  1  0  0  0  0
  3  4  1  0  0  0  0
  4  5  1  0  0  0  0
  5  6  1  0  0  0  0
  2  6  1  0  0  0  0
  5  7  1  0  0  0  0
  7  8  1  0  0  0  0
  8  9  1  0  0  0  0
  9 10  1  0  0  0  0
 10 11  1  0  0  0  0
  4 11  1  0  0  0  0
 11 12  1  0  0  0  0
  7 12  1  0  0  0  0
 12 13  1  0  0  0  0
 11 14  1  0  0  0  0
  7 15  1  0  0  0  0
  2 16  1  0  0  0  0
  1 17  1  0  0  0  0
  1 18  1  0  0  0  0
  1 19  1  0  0  0  0
  3 20  1  0  0  0  0
  3 21  1  0  0  0  0
  4 22  1  0  0  0  0
  5 23  1  0  0  0  0
  6 24  1  0  0  0  0
  6 25  1  0  0  0  0
  8 26  1  0  0  0  0
  8 27  1  0  0  0  0
  9 28  1  0  0  0  0
  9 29  1  0  0  0  0
 10 30  1  0  0  0  0
 10 31  1  0  0  0  0
 12 32  1  0  0  0  0
 13 33  1  0  0  0  0
 14 34  1  0  0  0  0
 14 35  1  0  0  0  0
 14 36  1  0  0  0  0
 15 37  1  0  0  0  0
 15 38  1  0  0  0  0
 15 39  1  0  0  0  0
 16 40  1  0  0  0  0
 16 41  1  0  0  0  0
 16 42  1  0  0  0  0
M  END
$$$$
