C15H24
APtclcactv06281817413D 0   0.00000     0.00000
 
 39 39  0  0  0  0  0  0  0  0999 V2000
    3.6636   -0.0348   -0.7563 C   0  0  0  0  0  0  0  0  0  0  0  0
    2.4194    0.3303    0.0294 C   0  0  0  0  0  0  0  0  0  0  0  0
    1.9867    1.5596   -0.0284 C   0  0  0  0  0  0  0  0  0  0  0  0
    0.7572    2.0341    0.6962 C   0  0  0  0  0  0  0  0  0  0  0  0
   -0.3247    2.4065   -0.3205 C   0  0  0  0  0  0  0  0  0  0  0  0
   -1.6118    1.7138    0.0068 C   0  0  0  0  0  0  0  0  0  0  0  0
   -2.7086    2.0979   -0.6552 C   0  0  0  0  0  0  0  0  0  0  0  0
   -1.7421    0.6779    1.0032 C   0  0  0  0  0  0  0  0  0  0  0  0
   -1.5475   -0.6074    1.0093 C   0  0  0  0  0  0  0  0  0  0  0  0
   -1.1316   -1.5119   -0.1070 C   0  0  0  0  0  0  0  0  0  0  0  0
   -0.0085   -2.4396    0.3606 C   0  0  0  0  0  0  0  0  0  0  0  0
    1.3849   -1.9344    0.0054 C   0  0  0  0  0  0  0  0  0  0  0  0
    1.7527   -0.7248    0.8642 C   0  0  0  0  0  0  0  0  0  0  0  0
   -2.3402   -2.3968   -0.4713 C   0  0  0  0  0  0  0  0  0  0  0  0
   -0.7311   -0.7385   -1.3550 C   0  0  0  0  0  0  0  0  0  0  0  0
    4.0309    0.8449   -1.2848 H   0  0  0  0  0  0  0  0  0  0  0  0
    4.4323   -0.3952   -0.0727 H   0  0  0  0  0  0  0  0  0  0  0  0
    3.4222   -0.8167   -1.4764 H   0  0  0  0  0  0  0  0  0  0  0  0
    2.5393    2.2781   -0.6301 H   0  0  0  0  0  0  0  0  0  0  0  0
    0.3903    1.2827    1.3822 H   0  0  0  0  0  0  0  0  0  0  0  0
    1.0136    2.9276    1.2734 H   0  0  0  0  0  0  0  0  0  0  0  0
   -0.4741    3.4903   -0.2928 H   0  0  0  0  0  0  0  0  0  0  0  0
    0.0056    2.1233   -1.3203 H   0  0  0  0  0  0  0  0  0  0  0  0
   -2.6458    2.8817   -1.3955 H   0  0  0  0  0  0  0  0  0  0  0  0
   -3.6571    1.6242   -0.4494 H   0  0  0  0  0  0  0  0  0  0  0  0
   -2.0878    1.0591    1.9920 H   0  0  0  0  0  0  0  0  0  0  0  0
   -1.7123   -1.1033    1.9793 H   0  0  0  0  0  0  0  0  0  0  0  0
   -0.0763   -2.5484    1.4516 H   0  0  0  0  0  0  0  0  0  0  0  0
   -0.1579   -3.4293   -0.0849 H   0  0  0  0  0  0  0  0  0  0  0  0
    2.0978   -2.7439    0.2575 H   0  0  0  0  0  0  0  0  0  0  0  0
    1.5062   -1.7394   -1.0502 H   0  0  0  0  0  0  0  0  0  0  0  0
    2.4559   -1.0628    1.6441 H   0  0  0  0  0  0  0  0  0  0  0  0
    0.8629   -0.3408    1.3538 H   0  0  0  0  0  0  0  0  0  0  0  0
   -3.1712   -1.7653   -0.7856 H   0  0  0  0  0  0  0  0  0  0  0  0
   -2.0666   -3.0687   -1.2847 H   0  0  0  0  0  0  0  0  0  0  0  0
   -2.6375   -2.9819    0.3990 H   0  0  0  0  0  0  0  0  0  0  0  0
    0.1067   -0.0814   -1.1219 H   0  0  0  0  0  0  0  0  0  0  0  0
   -0.4373   -1.4383   -2.1374 H   0  0  0  0  0  0  0  0  0  0  0  0
   -1.5759   -0.1421   -1.6995 H   0  0  0  0  0  0  0  0  0  0  0  0
  1  2  1  0  0  0  0
  2  3  2  0  0  0  0
  3  4  1  0  0  0  0
  4  5  1  0  0  0  0
  5  6  1  0  0  0  0
  6  7  2  0  0  0  0
  6  8  1  0  0  0  0
  8  9  2  0  0  0  0
  9 10  1  0  0  0  0
 10 11  1  0  0  0  0
 11 12  1  0  0  0  0
 12 13  1  0  0  0  0
  2 13  1  0  0  0  0
 10 14  1  0  0  0  0
 10 15  1  0  0  0  0
  1 16  1  0  0  0  0
  1 17  1  0  0  0  0
  1 18  1  0  0  0  0
  3 19  1  0  0  0  0
  4 20  1  0  0  0  0
  4 21  1  0  0  0  0
  5 22  1  0  0  0  0
  5 23  1  0  0  0  0
  7 24  1  0  0  0  0
  7 25  1  0  0  0  0
  8 26  1  0  0  0  0
  9 27  1  0  0  0  0
 11 28  1  0  0  0  0
 11 29  1  0  0  0  0
 12 30  1  0  0  0  0
 12 31  1  0  0  0  0
 13 32  1  0  0  0  0
 13 33  1  0  0  0  0
 14 34  1  0  0  0  0
 14 35  1  0  0  0  0
 14 36  1  0  0  0  0
 15 37  1  0  0  0  0
 15 38  1  0  0  0  0
 15 39  1  0  0  0  0
M  END
$$$$
