C27H22O18
APtclcactv06281817413D 0   0.00000     0.00000
 
 67 71  0  0  0  0  0  0  0  0999 V2000
   -5.7434    0.5168    0.3895 C   0  0  0  0  0  0  0  0  0  0  0  0
   -4.6301   -0.0567   -0.2308 C   0  0  0  0  0  0  0  0  0  0  0  0
   -4.2385    0.3792   -1.4997 C   0  0  0  0  0  0  0  0  0  0  0  0
   -4.9527    1.3758   -2.1375 C   0  0  0  0  0  0  0  0  0  0  0  0
   -6.0613    1.9458   -1.5169 C   0  0  0  0  0  0  0  0  0  0  0  0
   -6.4540    1.5131   -0.2529 C   0  0  0  0  0  0  0  0  0  0  0  0
   -7.5372    2.0720    0.3503 O   0  0  0  0  0  0  0  0  0  0  0  0
   -6.7614    2.9258   -2.1460 O   0  0  0  0  0  0  0  0  0  0  0  0
   -4.5722    1.8005   -3.3722 O   0  0  0  0  0  0  0  0  0  0  0  0
   -3.8696   -1.1197    0.4524 C   0  0  0  0  0  0  0  0  0  0  0  0
   -4.1519   -1.4319    1.5922 O   0  0  0  0  0  0  0  0  0  0  0  0
   -2.8618   -1.7447   -0.1874 O   0  0  0  0  0  0  0  0  0  0  0  0
   -2.2152   -2.8401    0.5128 C   0  0  0  0  0  0  0  0  0  0  0  0
   -3.0145   -4.1265    0.2960 C   0  0  0  0  0  0  0  0  0  0  0  0
   -2.9739   -4.4852   -1.0867 O   0  0  0  0  0  0  0  0  0  0  0  0
   -0.7959   -3.0242   -0.0281 C   0  0  0  0  0  0  0  0  0  0  0  0
    0.0419   -1.7887    0.3071 C   0  0  0  0  0  0  0  0  0  0  0  0
    0.2063   -1.6763    1.8339 C   0  0  0  0  0  0  0  0  0  0  0  0
   -0.1790   -0.2550    2.2610 C   0  0  0  0  0  0  0  0  0  0  0  0
    0.7971    0.7649    1.7447 C   0  0  0  0  0  0  0  0  0  0  0  0
    0.5306    2.1222    1.7705 C   0  0  0  0  0  0  0  0  0  0  0  0
    1.4573    3.0420    1.2760 C   0  0  0  0  0  0  0  0  0  0  0  0
    2.6360    2.6222    0.6565 C   0  0  0  0  0  0  0  0  0  0  0  0
    2.8808    1.2645    0.5650 C   0  0  0  0  0  0  0  0  0  0  0  0
    2.0555    0.3610    1.2944 C   0  0  0  0  0  0  0  0  0  0  0  0
    2.5078   -0.9819    1.6837 C   0  0  0  0  0  0  0  0  0  0  0  0
    3.6906   -1.2569    1.6344 O   0  0  0  0  0  0  0  0  0  0  0  0
    1.6221   -1.9122    2.0956 O   0  0  0  0  0  0  0  0  0  0  0  0
    3.8321    0.6155   -0.3549 C   0  0  0  0  0  0  0  0  0  0  0  0
    5.1120    1.0660   -0.6081 C   0  0  0  0  0  0  0  0  0  0  0  0
    5.9496    0.3415   -1.4530 C   0  0  0  0  0  0  0  0  0  0  0  0
    5.4904   -0.8292   -2.0549 C   0  0  0  0  0  0  0  0  0  0  0  0
    4.1903   -1.2591   -1.8526 C   0  0  0  0  0  0  0  0  0  0  0  0
    3.3345   -0.5284   -1.0367 C   0  0  0  0  0  0  0  0  0  0  0  0
    1.9283   -0.8625   -0.8552 C   0  0  0  0  0  0  0  0  0  0  0  0
    1.1516   -0.0321   -1.2846 O   0  0  0  0  0  0  0  0  0  0  0  0
    1.3585   -1.9123   -0.3030 O   0  0  0  0  0  0  0  0  0  0  0  0
    6.3255   -1.5536   -2.8466 O   0  0  0  0  0  0  0  0  0  0  0  0
    7.2149    0.7763   -1.6912 O   0  0  0  0  0  0  0  0  0  0  0  0
    5.5549    2.2153   -0.0332 O   0  0  0  0  0  0  0  0  0  0  0  0
    3.5201    3.5252    0.1557 O   0  0  0  0  0  0  0  0  0  0  0  0
    1.2074    4.3720    1.4005 O   0  0  0  0  0  0  0  0  0  0  0  0
   -0.6481    2.5657    2.2832 O   0  0  0  0  0  0  0  0  0  0  0  0
   -1.4805    0.0472    1.7541 O   0  0  0  0  0  0  0  0  0  0  0  0
   -0.2037   -4.1784    0.5712 O   0  0  0  0  0  0  0  0  0  0  0  0
   -6.0509    0.1787    1.3681 H   0  0  0  0  0  0  0  0  0  0  0  0
   -3.3784   -0.0621   -1.9812 H   0  0  0  0  0  0  0  0  0  0  0  0
   -8.3714    1.6240    0.1542 H   0  0  0  0  0  0  0  0  0  0  0  0
   -7.4850    2.5996   -2.6984 H   0  0  0  0  0  0  0  0  0  0  0  0
   -4.9828    1.3132   -4.0996 H   0  0  0  0  0  0  0  0  0  0  0  0
   -2.1715   -2.6148    1.5784 H   0  0  0  0  0  0  0  0  0  0  0  0
   -2.5804   -4.9290    0.8924 H   0  0  0  0  0  0  0  0  0  0  0  0
   -4.0492   -3.9670    0.5996 H   0  0  0  0  0  0  0  0  0  0  0  0
   -3.4611   -5.2934   -1.2979 H   0  0  0  0  0  0  0  0  0  0  0  0
   -0.8335   -3.1552   -1.1096 H   0  0  0  0  0  0  0  0  0  0  0  0
   -0.4556   -0.8964   -0.0729 H   0  0  0  0  0  0  0  0  0  0  0  0
   -0.3984   -2.4074    2.3353 H   0  0  0  0  0  0  0  0  0  0  0  0
   -0.2027   -0.2051    3.3496 H   0  0  0  0  0  0  0  0  0  0  0  0
    3.8407   -2.1630   -2.3291 H   0  0  0  0  0  0  0  0  0  0  0  0
    6.8305   -2.2281   -2.3722 H   0  0  0  0  0  0  0  0  0  0  0  0
    7.8720    0.4337   -1.0700 H   0  0  0  0  0  0  0  0  0  0  0  0
    5.9822    2.0866    0.8247 H   0  0  0  0  0  0  0  0  0  0  0  0
    4.1932    3.8096    0.7891 H   0  0  0  0  0  0  0  0  0  0  0  0
    1.5475    4.7614    2.2177 H   0  0  0  0  0  0  0  0  0  0  0  0
   -0.6193    2.7513    3.2317 H   0  0  0  0  0  0  0  0  0  0  0  0
   -1.7960    0.9321    1.9829 H   0  0  0  0  0  0  0  0  0  0  0  0
   -0.1379   -4.1311    1.5348 H   0  0  0  0  0  0  0  0  0  0  0  0
  1  2  2  0  0  0  0
  2  3  1  0  0  0  0
  3  4  2  0  0  0  0
  4  5  1  0  0  0  0
  5  6  2  0  0  0  0
  1  6  1  0  0  0  0
  6  7  1  0  0  0  0
  5  8  1  0  0  0  0
  4  9  1  0  0  0  0
  2 10  1  0  0  0  0
 10 11  2  0  0  0  0
 10 12  1  0  0  0  0
 12 13  1  0  0  0  0
 13 14  1  0  0  0  0
 14 15  1  0  0  0  0
 13 16  1  0  0  0  0
 16 17  1  0  0  0  0
 17 18  1  0  0  0  0
 18 19  1  0  0  0  0
 19 20  1  0  0  0  0
 20 21  2  0  0  0  0
 21 22  1  0  0  0  0
 22 23  2  0  0  0  0
 23 24  1  0  0  0  0
 24 25  2  0  0  0  0
 20 25  1  0  0  0  0
 25 26  1  0  0  0  0
 26 27  2  0  0  0  0
 26 28  1  0  0  0  0
 18 28  1  0  0  0  0
 24 29  1  0  0  0  0
 29 30  2  0  0  0  0
 30 31  1  0  0  0  0
 31 32  2  0  0  0  0
 32 33  1  0  0  0  0
 33 34  2  0  0  0  0
 29 34  1  0  0  0  0
 34 35  1  0  0  0  0
 35 36  2  0  0  0  0
 35 37  1  0  0  0  0
 17 37  1  0  0  0  0
 32 38  1  0  0  0  0
 31 39  1  0  0  0  0
 30 40  1  0  0  0  0
 23 41  1  0  0  0  0
 22 42  1  0  0  0  0
 21 43  1  0  0  0  0
 19 44  1  0  0  0  0
 16 45  1  0  0  0  0
  1 46  1  0  0  0  0
  3 47  1  0  0  0  0
  7 48  1  0  0  0  0
  8 49  1  0  0  0  0
  9 50  1  0  0  0  0
 13 51  1  0  0  0  0
 14 52  1  0  0  0  0
 14 53  1  0  0  0  0
 15 54  1  0  0  0  0
 16 55  1  0  0  0  0
 17 56  1  0  0  0  0
 18 57  1  0  0  0  0
 19 58  1  0  0  0  0
 33 59  1  0  0  0  0
 38 60  1  0  0  0  0
 39 61  1  0  0  0  0
 40 62  1  0  0  0  0
 41 63  1  0  0  0  0
 42 64  1  0  0  0  0
 43 65  1  0  0  0  0
 44 66  1  0  0  0  0
 45 67  1  0  0  0  0
M  END
$$$$
