C14H10O6
APtclcactv06281817413D 0   0.00000     0.00000
 
 30 32  0  0  0  0  0  0  0  0999 V2000
    2.7913   -2.5059    1.0073 C   0  0  0  0  0  0  0  0  0  0  0  0
    2.6574   -1.7847   -0.2191 O   0  0  0  0  0  0  0  0  0  0  0  0
    2.1840   -0.5137   -0.1387 C   0  0  0  0  0  0  0  0  0  0  0  0
    3.0609    0.5506    0.0215 C   0  0  0  0  0  0  0  0  0  0  0  0
    2.5717    1.8474    0.1001 C   0  0  0  0  0  0  0  0  0  0  0  0
    1.2138    2.0978    0.0162 C   0  0  0  0  0  0  0  0  0  0  0  0
    0.3147    1.0451   -0.1469 C   0  0  0  0  0  0  0  0  0  0  0  0
    0.8098   -0.2670   -0.2225 C   0  0  0  0  0  0  0  0  0  0  0  0
   -0.1543   -1.3748   -0.3711 C   0  0  0  0  0  0  0  0  0  0  0  0
    0.1976   -2.5029   -0.6636 O   0  0  0  0  0  0  0  0  0  0  0  0
   -1.5742   -1.0295   -0.1421 C   0  0  0  0  0  0  0  0  0  0  0  0
   -1.9305    0.3253   -0.0808 C   0  0  0  0  0  0  0  0  0  0  0  0
   -1.0076    1.2968   -0.2419 O   0  0  0  0  0  0  0  0  0  0  0  0
   -3.2675    0.6616    0.1428 C   0  0  0  0  0  0  0  0  0  0  0  0
   -4.2145   -0.3334    0.2950 C   0  0  0  0  0  0  0  0  0  0  0  0
   -3.8539   -1.6709    0.2288 C   0  0  0  0  0  0  0  0  0  0  0  0
   -2.5400   -2.0238    0.0112 C   0  0  0  0  0  0  0  0  0  0  0  0
   -3.6374    1.9683    0.2113 O   0  0  0  0  0  0  0  0  0  0  0  0
    0.7541    3.3761    0.0937 O   0  0  0  0  0  0  0  0  0  0  0  0
    4.3999    0.3227    0.1019 O   0  0  0  0  0  0  0  0  0  0  0  0
    3.4805   -1.9777    1.6661 H   0  0  0  0  0  0  0  0  0  0  0  0
    1.8171   -2.5862    1.4898 H   0  0  0  0  0  0  0  0  0  0  0  0
    3.1782   -3.5039    0.8015 H   0  0  0  0  0  0  0  0  0  0  0  0
    3.2592    2.6703    0.2285 H   0  0  0  0  0  0  0  0  0  0  0  0
   -5.2467   -0.0665    0.4677 H   0  0  0  0  0  0  0  0  0  0  0  0
   -4.6049   -2.4378    0.3478 H   0  0  0  0  0  0  0  0  0  0  0  0
   -2.2592   -3.0654   -0.0398 H   0  0  0  0  0  0  0  0  0  0  0  0
   -3.8890    2.3510   -0.6404 H   0  0  0  0  0  0  0  0  0  0  0  0
    0.6897    3.8234   -0.7613 H   0  0  0  0  0  0  0  0  0  0  0  0
    4.8529    0.3345   -0.7524 H   0  0  0  0  0  0  0  0  0  0  0  0
  1  2  1  0  0  0  0
  2  3  1  0  0  0  0
  3  4  2  0  0  0  0
  4  5  1  0  0  0  0
  5  6  2  0  0  0  0
  6  7  1  0  0  0  0
  7  8  2  0  0  0  0
  3  8  1  0  0  0  0
  8  9  1  0  0  0  0
  9 10  2  0  0  0  0
  9 11  1  0  0  0  0
 11 12  2  0  0  0  0
 12 13  1  0  0  0  0
  7 13  1  0  0  0  0
 12 14  1  0  0  0  0
 14 15  2  0  0  0  0
 15 16  1  0  0  0  0
 16 17  2  0  0  0  0
 11 17  1  0  0  0  0
 14 18  1  0  0  0  0
  6 19  1  0  0  0  0
  4 20  1  0  0  0  0
  1 21  1  0  0  0  0
  1 22  1  0  0  0  0
  1 23  1  0  0  0  0
  5 24  1  0  0  0  0
 15 25  1  0  0  0  0
 16 26  1  0  0  0  0
 17 27  1  0  0  0  0
 18 28  1  0  0  0  0
 19 29  1  0  0  0  0
 20 30  1  0  0  0  0
M  END
$$$$
