C19H18O3
APtclcactv06281817413D 0   0.00000     0.00000
 
 40 41  0  0  0  0  0  0  0  0999 V2000
    6.7438    1.4467   -0.0012 C   0  0  0  0  0  0  0  0  0  0  0  0
    5.4092    2.1466   -0.0020 C   0  0  0  0  0  0  0  0  0  0  0  0
    5.3551    3.4778   -0.0012 C   0  0  0  0  0  0  0  0  0  0  0  0
    4.1707    1.3628   -0.0037 C   0  0  0  0  0  0  0  0  0  0  0  0
    4.2253    0.0178   -0.0045 C   0  0  0  0  0  0  0  0  0  0  0  0
    2.9812   -0.7695   -0.0061 C   0  0  0  0  0  0  0  0  0  0  0  0
    3.0353   -2.1721   -0.0069 C   0  0  0  0  0  0  0  0  0  0  0  0
    1.8625   -2.9119   -0.0090 C   0  0  0  0  0  0  0  0  0  0  0  0
    0.6393   -2.2759   -0.0098 C   0  0  0  0  0  0  0  0  0  0  0  0
    0.5718   -0.8782   -0.0090 C   0  0  0  0  0  0  0  0  0  0  0  0
    1.7448   -0.1244   -0.0011 C   0  0  0  0  0  0  0  0  0  0  0  0
   -0.7383   -0.2033   -0.0104 C   0  0  0  0  0  0  0  0  0  0  0  0
   -1.8675   -0.9295   -0.0125 C   0  0  0  0  0  0  0  0  0  0  0  0
   -3.1779   -0.2545   -0.0139 C   0  0  0  0  0  0  0  0  0  0  0  0
   -4.3541   -1.0078   -0.0160 C   0  0  0  0  0  0  0  0  0  0  0  0
   -5.5826   -0.3690   -0.0168 C   0  0  0  0  0  0  0  0  0  0  0  0
   -5.6464    1.0172   -0.0155 C   0  0  0  0  0  0  0  0  0  0  0  0
   -4.4807    1.7700   -0.0134 C   0  0  0  0  0  0  0  0  0  0  0  0
   -3.2474    1.1406   -0.0072 C   0  0  0  0  0  0  0  0  0  0  0  0
   -4.5497    3.1273   -0.0126 O   0  0  0  0  0  0  0  0  0  0  0  0
   -6.7278   -1.1008   -0.0194 O   0  0  0  0  0  0  0  0  0  0  0  0
    4.2365   -2.8047   -0.0062 O   0  0  0  0  0  0  0  0  0  0  0  0
    7.0646    1.2773    1.0267 H   0  0  0  0  0  0  0  0  0  0  0  0
    6.6527    0.4901   -0.5157 H   0  0  0  0  0  0  0  0  0  0  0  0
    7.4794    2.0665   -0.5140 H   0  0  0  0  0  0  0  0  0  0  0  0
    6.2677    4.0553   -0.0000 H   0  0  0  0  0  0  0  0  0  0  0  0
    4.3987    3.9794   -0.0018 H   0  0  0  0  0  0  0  0  0  0  0  0
    3.2142    1.8644   -0.0042 H   0  0  0  0  0  0  0  0  0  0  0  0
    5.1818   -0.4838   -0.0039 H   0  0  0  0  0  0  0  0  0  0  0  0
    1.9075   -3.9910   -0.0104 H   0  0  0  0  0  0  0  0  0  0  0  0
   -0.2701   -2.8585   -0.0114 H   0  0  0  0  0  0  0  0  0  0  0  0
    1.6961    0.9545   -0.0005 H   0  0  0  0  0  0  0  0  0  0  0  0
   -0.7901    0.8755   -0.0098 H   0  0  0  0  0  0  0  0  0  0  0  0
   -1.8158   -2.0082   -0.0131 H   0  0  0  0  0  0  0  0  0  0  0  0
   -4.3055   -2.0867   -0.0174 H   0  0  0  0  0  0  0  0  0  0  0  0
   -6.6065    1.5118   -0.0165 H   0  0  0  0  0  0  0  0  0  0  0  0
   -2.3407    1.7273   -0.0056 H   0  0  0  0  0  0  0  0  0  0  0  0
   -4.5709    3.5195    0.8710 H   0  0  0  0  0  0  0  0  0  0  0  0
   -7.0604   -1.3138    0.8633 H   0  0  0  0  0  0  0  0  0  0  0  0
    4.5837   -2.9886    0.8775 H   0  0  0  0  0  0  0  0  0  0  0  0
  1  2  1  0  0  0  0
  2  3  2  0  0  0  0
  2  4  1  0  0  0  0
  4  5  2  0  0  0  0
  5  6  1  0  0  0  0
  6  7  2  0  0  0  0
  7  8  1  0  0  0  0
  8  9  2  0  0  0  0
  9 10  1  0  0  0  0
 10 11  2  0  0  0  0
  6 11  1  0  0  0  0
 10 12  1  0  0  0  0
 12 13  2  0  0  0  0
 13 14  1  0  0  0  0
 14 15  2  0  0  0  0
 15 16  1  0  0  0  0
 16 17  2  0  0  0  0
 17 18  1  0  0  0  0
 18 19  2  0  0  0  0
 14 19  1  0  0  0  0
 18 20  1  0  0  0  0
 16 21  1  0  0  0  0
  7 22  1  0  0  0  0
  1 23  1  0  0  0  0
  1 24  1  0  0  0  0
  1 25  1  0  0  0  0
  3 26  1  0  0  0  0
  3 27  1  0  0  0  0
  4 28  1  0  0  0  0
  5 29  1  0  0  0  0
  8 30  1  0  0  0  0
  9 31  1  0  0  0  0
 11 32  1  0  0  0  0
 12 33  1  0  0  0  0
 13 34  1  0  0  0  0
 15 35  1  0  0  0  0
 17 36  1  0  0  0  0
 19 37  1  0  0  0  0
 20 38  1  0  0  0  0
 21 39  1  0  0  0  0
 22 40  1  0  0  0  0
M  END
$$$$
