C11H11ClN2O2
APtclcactv06281817413D 0   0.00000     0.00000
 
 27 28  0  0  0  0  0  0  0  0999 V2000
   -3.8262    0.7714   -0.5256 C   0  0  0  0  0  0  0  0  0  0  0  0
   -3.6644   -0.5853   -0.3538 C   0  0  0  0  0  0  0  0  0  0  0  0
   -2.4214   -1.0965    0.0064 C   0  0  0  0  0  0  0  0  0  0  0  0
   -1.3398   -0.2171    0.1916 C   0  0  0  0  0  0  0  0  0  0  0  0
   -1.5201    1.1572    0.0139 C   0  0  0  0  0  0  0  0  0  0  0  0
   -2.7592    1.6408   -0.3430 C   0  0  0  0  0  0  0  0  0  0  0  0
   -0.1894    2.2486    0.2412 Cl  0  0  0  0  0  0  0  0  0  0  0  0
   -0.1951   -1.0542    0.5588 C   0  0  0  0  0  0  0  0  0  0  0  0
   -0.6272   -2.3250    0.5739 C   0  0  0  0  0  0  0  0  0  0  0  0
   -1.9552   -2.3698    0.2463 N   0  0  0  0  0  0  0  0  0  0  0  0
    1.2025   -0.5790    0.8617 C   0  0  0  0  0  0  0  0  0  0  0  0
    1.9829   -0.4238   -0.4451 C   0  0  0  0  0  0  0  0  0  0  0  0
    3.3342    0.1768   -0.1550 C   0  0  0  0  0  0  0  0  0  0  0  0
    4.3100   -0.5331   -0.0929 O   0  0  0  0  0  0  0  0  0  0  0  0
    3.4539    1.5002    0.0345 O   0  0  0  0  0  0  0  0  0  0  0  0
    2.1567   -1.7413   -1.0711 N   0  0  0  0  0  0  0  0  0  0  0  0
   -4.7919    1.1628   -0.8096 H   0  0  0  0  0  0  0  0  0  0  0  0
   -4.5017   -1.2520   -0.4982 H   0  0  0  0  0  0  0  0  0  0  0  0
   -2.9017    2.7024   -0.4815 H   0  0  0  0  0  0  0  0  0  0  0  0
   -0.0174   -3.1846    0.8096 H   0  0  0  0  0  0  0  0  0  0  0  0
   -2.4886   -3.1781    0.1915 H   0  0  0  0  0  0  0  0  0  0  0  0
    1.1565    0.3822    1.3738 H   0  0  0  0  0  0  0  0  0  0  0  0
    1.7035   -1.3069    1.4998 H   0  0  0  0  0  0  0  0  0  0  0  0
    1.4324    0.2301   -1.1216 H   0  0  0  0  0  0  0  0  0  0  0  0
    4.3408    1.8391    0.2178 H   0  0  0  0  0  0  0  0  0  0  0  0
    2.5781   -2.3945   -0.4278 H   0  0  0  0  0  0  0  0  0  0  0  0
    1.2786   -2.0941   -1.4211 H   0  0  0  0  0  0  0  0  0  0  0  0
  1  2  2  0  0  0  0
  2  3  1  0  0  0  0
  3  4  2  0  0  0  0
  4  5  1  0  0  0  0
  5  6  2  0  0  0  0
  1  6  1  0  0  0  0
  5  7  1  0  0  0  0
  4  8  1  0  0  0  0
  8  9  2  0  0  0  0
  9 10  1  0  0  0  0
  3 10  1  0  0  0  0
  8 11  1  0  0  0  0
 11 12  1  0  0  0  0
 12 13  1  0  0  0  0
 13 14  2  0  0  0  0
 13 15  1  0  0  0  0
 12 16  1  0  0  0  0
  1 17  1  0  0  0  0
  2 18  1  0  0  0  0
  6 19  1  0  0  0  0
  9 20  1  0  0  0  0
 10 21  1  0  0  0  0
 11 22  1  0  0  0  0
 11 23  1  0  0  0  0
 12 24  1  0  0  0  0
 15 25  1  0  0  0  0
 16 26  1  0  0  0  0
 16 27  1  0  0  0  0
M  END
$$$$
