C26H28O16
APtclcactv06281817423D 0   0.00000     0.00000
 
 70 74  0  0  0  0  0  0  0  0999 V2000
   -4.7773    1.8586    2.1469 C   0  0  0  0  0  0  0  0  0  0  0  0
   -6.1042    2.3109    1.5317 C   0  0  0  0  0  0  0  0  0  0  0  0
   -5.8283    2.9990    0.1913 C   0  0  0  0  0  0  0  0  0  0  0  0
   -5.0652    2.0319   -0.7190 C   0  0  0  0  0  0  0  0  0  0  0  0
   -3.7785    1.5903   -0.0169 C   0  0  0  0  0  0  0  0  0  0  0  0
   -4.1045    0.9864    1.2365 O   0  0  0  0  0  0  0  0  0  0  0  0
   -3.0889    0.6445   -0.8366 O   0  0  0  0  0  0  0  0  0  0  0  0
   -1.8247    0.3078   -0.4617 C   0  0  0  0  0  0  0  0  0  0  0  0
   -1.5460   -0.9596   -0.0463 C   0  0  0  0  0  0  0  0  0  0  0  0
   -0.3138   -1.3394    0.3331 O   0  0  0  0  0  0  0  0  0  0  0  0
    0.7359   -0.4913    0.3293 C   0  0  0  0  0  0  0  0  0  0  0  0
    1.9936   -0.9181    0.7267 C   0  0  0  0  0  0  0  0  0  0  0  0
    3.0618   -0.0346    0.7167 C   0  0  0  0  0  0  0  0  0  0  0  0
    2.8875    1.2840    0.3108 C   0  0  0  0  0  0  0  0  0  0  0  0
    1.6409    1.7288   -0.0887 C   0  0  0  0  0  0  0  0  0  0  0  0
    0.5570    0.8413   -0.0821 C   0  0  0  0  0  0  0  0  0  0  0  0
   -0.7848    1.2723   -0.5058 C   0  0  0  0  0  0  0  0  0  0  0  0
   -0.9960    2.4161   -0.8762 O   0  0  0  0  0  0  0  0  0  0  0  0
    1.4685    3.0155   -0.4842 O   0  0  0  0  0  0  0  0  0  0  0  0
    4.2901   -0.4607    1.1074 O   0  0  0  0  0  0  0  0  0  0  0  0
    5.3499    0.4974    1.0747 C   0  0  0  0  0  0  0  0  0  0  0  0
    6.6190   -0.1249    1.6627 C   0  0  0  0  0  0  0  0  0  0  0  0
    7.0424   -1.3160    0.7975 C   0  0  0  0  0  0  0  0  0  0  0  0
    7.2427   -0.8399   -0.6445 C   0  0  0  0  0  0  0  0  0  0  0  0
    5.9494   -0.1900   -1.1434 C   0  0  0  0  0  0  0  0  0  0  0  0
    5.5958    0.8901   -0.2771 O   0  0  0  0  0  0  0  0  0  0  0  0
    6.1601    0.3420   -2.5624 C   0  0  0  0  0  0  0  0  0  0  0  0
    4.9228    0.8438   -3.0716 O   0  0  0  0  0  0  0  0  0  0  0  0
    8.3050    0.1149   -0.6890 O   0  0  0  0  0  0  0  0  0  0  0  0
    8.2668   -1.8580    1.2964 O   0  0  0  0  0  0  0  0  0  0  0  0
    7.6648    0.8488    1.6793 O   0  0  0  0  0  0  0  0  0  0  0  0
   -2.6368   -1.9511   -0.0112 C   0  0  0  0  0  0  0  0  0  0  0  0
   -3.4906   -2.0925   -1.1088 C   0  0  0  0  0  0  0  0  0  0  0  0
   -4.5112   -3.0232   -1.0706 C   0  0  0  0  0  0  0  0  0  0  0  0
   -4.6878   -3.8179    0.0606 C   0  0  0  0  0  0  0  0  0  0  0  0
   -3.8402   -3.6778    1.1507 C   0  0  0  0  0  0  0  0  0  0  0  0
   -2.8160   -2.7559    1.1174 C   0  0  0  0  0  0  0  0  0  0  0  0
   -5.6926   -4.7320    0.0966 O   0  0  0  0  0  0  0  0  0  0  0  0
   -5.3438   -3.1635   -2.1367 O   0  0  0  0  0  0  0  0  0  0  0  0
   -5.8784    0.8883   -0.9893 O   0  0  0  0  0  0  0  0  0  0  0  0
   -7.0663    3.3594   -0.4248 O   0  0  0  0  0  0  0  0  0  0  0  0
   -6.9449    1.1748    1.3211 O   0  0  0  0  0  0  0  0  0  0  0  0
   -4.1526    2.7296    2.3447 H   0  0  0  0  0  0  0  0  0  0  0  0
   -4.9708    1.3303    3.0805 H   0  0  0  0  0  0  0  0  0  0  0  0
   -6.5983    3.0109    2.2056 H   0  0  0  0  0  0  0  0  0  0  0  0
   -5.2282    3.8937    0.3574 H   0  0  0  0  0  0  0  0  0  0  0  0
   -4.8163    2.5323   -1.6549 H   0  0  0  0  0  0  0  0  0  0  0  0
   -3.1407    2.4579    0.1525 H   0  0  0  0  0  0  0  0  0  0  0  0
    2.1413   -1.9396    1.0447 H   0  0  0  0  0  0  0  0  0  0  0  0
    3.7278    1.9624    0.3080 H   0  0  0  0  0  0  0  0  0  0  0  0
    1.6029    3.1572   -1.4313 H   0  0  0  0  0  0  0  0  0  0  0  0
    5.0680    1.3714    1.6618 H   0  0  0  0  0  0  0  0  0  0  0  0
    6.4207   -0.4652    2.6790 H   0  0  0  0  0  0  0  0  0  0  0  0
    6.2659   -2.0805    0.8245 H   0  0  0  0  0  0  0  0  0  0  0  0
    7.4903   -1.6915   -1.2782 H   0  0  0  0  0  0  0  0  0  0  0  0
    5.1489   -0.9297   -1.1475 H   0  0  0  0  0  0  0  0  0  0  0  0
    6.8975    1.1445   -2.5438 H   0  0  0  0  0  0  0  0  0  0  0  0
    6.5167   -0.4642   -3.2035 H   0  0  0  0  0  0  0  0  0  0  0  0
    4.9817    1.1980   -3.9695 H   0  0  0  0  0  0  0  0  0  0  0  0
    9.1552   -0.2281   -0.3815 H   0  0  0  0  0  0  0  0  0  0  0  0
    8.2144   -2.1734    2.2090 H   0  0  0  0  0  0  0  0  0  0  0  0
    7.4625    1.6343    2.2057 H   0  0  0  0  0  0  0  0  0  0  0  0
   -3.3532   -1.4756   -1.9845 H   0  0  0  0  0  0  0  0  0  0  0  0
   -3.9806   -4.2957    2.0252 H   0  0  0  0  0  0  0  0  0  0  0  0
   -2.1579   -2.6489    1.9670 H   0  0  0  0  0  0  0  0  0  0  0  0
   -5.4423   -5.6048   -0.2359 H   0  0  0  0  0  0  0  0  0  0  0  0
   -5.0430   -3.8119   -2.7880 H   0  0  0  0  0  0  0  0  0  0  0  0
   -5.4571    0.2325   -1.5614 H   0  0  0  0  0  0  0  0  0  0  0  0
   -7.6054    3.9660    0.1010 H   0  0  0  0  0  0  0  0  0  0  0  0
   -7.1569    0.6872    2.1289 H   0  0  0  0  0  0  0  0  0  0  0  0
  1  2  1  0  0  0  0
  2  3  1  0  0  0  0
  3  4  1  0  0  0  0
  4  5  1  0  0  0  0
  5  6  1  0  0  0  0
  1  6  1  0  0  0  0
  5  7  1  0  0  0  0
  7  8  1  0  0  0  0
  8  9  2  0  0  0  0
  9 10  1  0  0  0  0
 10 11  1  0  0  0  0
 11 12  2  0  0  0  0
 12 13  1  0  0  0  0
 13 14  2  0  0  0  0
 14 15  1  0  0  0  0
 15 16  2  0  0  0  0
 11 16  1  0  0  0  0
 16 17  1  0  0  0  0
  8 17  1  0  0  0  0
 17 18  2  0  0  0  0
 15 19  1  0  0  0  0
 13 20  1  0  0  0  0
 20 21  1  0  0  0  0
 21 22  1  0  0  0  0
 22 23  1  0  0  0  0
 23 24  1  0  0  0  0
 24 25  1  0  0  0  0
 25 26  1  0  0  0  0
 21 26  1  0  0  0  0
 25 27  1  0  0  0  0
 27 28  1  0  0  0  0
 24 29  1  0  0  0  0
 23 30  1  0  0  0  0
 22 31  1  0  0  0  0
  9 32  1  0  0  0  0
 32 33  2  0  0  0  0
 33 34  1  0  0  0  0
 34 35  2  0  0  0  0
 35 36  1  0  0  0  0
 36 37  2  0  0  0  0
 32 37  1  0  0  0  0
 35 38  1  0  0  0  0
 34 39  1  0  0  0  0
  4 40  1  0  0  0  0
  3 41  1  0  0  0  0
  2 42  1  0  0  0  0
  1 43  1  0  0  0  0
  1 44  1  0  0  0  0
  2 45  1  0  0  0  0
  3 46  1  0  0  0  0
  4 47  1  0  0  0  0
  5 48  1  0  0  0  0
 12 49  1  0  0  0  0
 14 50  1  0  0  0  0
 19 51  1  0  0  0  0
 21 52  1  0  0  0  0
 22 53  1  0  0  0  0
 23 54  1  0  0  0  0
 24 55  1  0  0  0  0
 25 56  1  0  0  0  0
 27 57  1  0  0  0  0
 27 58  1  0  0  0  0
 28 59  1  0  0  0  0
 29 60  1  0  0  0  0
 30 61  1  0  0  0  0
 31 62  1  0  0  0  0
 33 63  1  0  0  0  0
 36 64  1  0  0  0  0
 37 65  1  0  0  0  0
 38 66  1  0  0  0  0
 39 67  1  0  0  0  0
 40 68  1  0  0  0  0
 41 69  1  0  0  0  0
 42 70  1  0  0  0  0
M  END
$$$$
