C46H80O2
APtclcactv06281817423D 0   0.00000     0.00000
 
128132  0  0  0  0  0  0  0  0999 V2000
  -20.2877   -1.3224    0.2726 C   0  0  0  0  0  0  0  0  0  0  0  0
  -18.9099   -1.8363    0.6952 C   0  0  0  0  0  0  0  0  0  0  0  0
  -17.8263   -0.9205    0.1224 C   0  0  0  0  0  0  0  0  0  0  0  0
  -16.4486   -1.4344    0.5450 C   0  0  0  0  0  0  0  0  0  0  0  0
  -15.3650   -0.5186   -0.0278 C   0  0  0  0  0  0  0  0  0  0  0  0
  -13.9872   -1.0325    0.3947 C   0  0  0  0  0  0  0  0  0  0  0  0
  -12.9036   -0.1168   -0.1780 C   0  0  0  0  0  0  0  0  0  0  0  0
  -11.5258   -0.6307    0.2445 C   0  0  0  0  0  0  0  0  0  0  0  0
  -10.4422    0.2851   -0.3283 C   0  0  0  0  0  0  0  0  0  0  0  0
   -9.0645   -0.2288    0.0943 C   0  0  0  0  0  0  0  0  0  0  0  0
   -7.9809    0.6870   -0.4785 C   0  0  0  0  0  0  0  0  0  0  0  0
   -6.6031    0.1731   -0.0559 C   0  0  0  0  0  0  0  0  0  0  0  0
   -5.5195    1.0889   -0.6287 C   0  0  0  0  0  0  0  0  0  0  0  0
   -4.1417    0.5750   -0.2061 C   0  0  0  0  0  0  0  0  0  0  0  0
   -3.0581    1.4907   -0.7789 C   0  0  0  0  0  0  0  0  0  0  0  0
   -1.7011    0.9846   -0.3627 C   0  0  0  0  0  0  0  0  0  0  0  0
   -1.6100   -0.0069    0.3218 O   0  0  0  0  0  0  0  0  0  0  0  0
   -0.5936    1.6352   -0.7525 O   0  0  0  0  0  0  0  0  0  0  0  0
    0.6814    1.0900   -0.3137 C   0  0  0  0  0  0  0  0  0  0  0  0
    1.1874    0.0883   -1.3431 C   0  0  0  0  0  0  0  0  0  0  0  0
    2.5496   -0.4657   -0.9294 C   0  0  0  0  0  0  0  0  0  0  0  0
    3.5632    0.6790   -0.8231 C   0  0  0  0  0  0  0  0  0  0  0  0
    4.9333    0.1131   -0.4415 C   0  0  0  0  0  0  0  0  0  0  0  0
    4.9150   -1.4022   -0.3169 C   0  0  0  0  0  0  0  0  0  0  0  0
    6.3477   -1.9084   -0.0835 C   0  0  0  0  0  0  0  0  0  0  0  0
    7.3175   -0.7326   -0.1657 C   0  0  0  0  0  0  0  0  0  0  0  0
    8.7514   -1.1439   -0.3441 C   0  0  0  0  0  0  0  0  0  0  0  0
    9.0590   -2.6240   -0.3406 C   0  0  0  0  0  0  0  0  0  0  0  0
   10.4829   -2.8103   -0.8407 C   0  0  0  0  0  0  0  0  0  0  0  0
   10.7554   -3.7553   -1.7080 C   0  0  0  0  0  0  0  0  0  0  0  0
   11.5690   -1.8950   -0.3274 C   0  0  0  0  0  0  0  0  0  0  0  0
   11.1129   -0.4390   -0.4149 C   0  0  0  0  0  0  0  0  0  0  0  0
    9.7788   -0.2716    0.3481 C   0  0  0  0  0  0  0  0  0  0  0  0
    9.3364    1.1874    0.2194 C   0  0  0  0  0  0  0  0  0  0  0  0
    7.9998    1.4611    0.8922 C   0  0  0  0  0  0  0  0  0  0  0  0
    7.0362    0.2963    0.9105 C   0  0  0  0  0  0  0  0  0  0  0  0
    5.5669    0.7822    0.7613 C   0  0  0  0  0  0  0  0  0  0  0  0
    5.5040    2.2903    0.5989 C   0  0  0  0  0  0  0  0  0  0  0  0
    4.0786    2.8113    0.4138 C   0  0  0  0  0  0  0  0  0  0  0  0
    3.0688    1.7052    0.1740 C   0  0  0  0  0  0  0  0  0  0  0  0
    1.6666    2.2397   -0.0951 C   0  0  0  0  0  0  0  0  0  0  0  0
    1.5925    3.2346   -1.2454 C   0  0  0  0  0  0  0  0  0  0  0  0
    1.1960    2.9812    1.1811 C   0  0  0  0  0  0  0  0  0  0  0  0
    4.9063    0.3543    2.0809 C   0  0  0  0  0  0  0  0  0  0  0  0
    7.0591   -0.3622    2.3075 C   0  0  0  0  0  0  0  0  0  0  0  0
   10.0543   -0.5932    1.8094 C   0  0  0  0  0  0  0  0  0  0  0  0
    8.8859   -3.3312    0.9942 C   0  0  0  0  0  0  0  0  0  0  0  0
    3.7475    1.2932   -2.2236 C   0  0  0  0  0  0  0  0  0  0  0  0
  -20.4298   -0.3103    0.6514 H   0  0  0  0  0  0  0  0  0  0  0  0
  -20.3551   -1.3160   -0.8153 H   0  0  0  0  0  0  0  0  0  0  0  0
  -21.0597   -1.9748    0.6807 H   0  0  0  0  0  0  0  0  0  0  0  0
  -18.8425   -1.8427    1.7831 H   0  0  0  0  0  0  0  0  0  0  0  0
  -18.7678   -2.8484    0.3164 H   0  0  0  0  0  0  0  0  0  0  0  0
  -17.8938   -0.9141   -0.9655 H   0  0  0  0  0  0  0  0  0  0  0  0
  -17.9685    0.0916    0.5012 H   0  0  0  0  0  0  0  0  0  0  0  0
  -16.3811   -1.4408    1.6329 H   0  0  0  0  0  0  0  0  0  0  0  0
  -16.3064   -2.4465    0.1662 H   0  0  0  0  0  0  0  0  0  0  0  0
  -15.4324   -0.5122   -1.1157 H   0  0  0  0  0  0  0  0  0  0  0  0
  -15.5071    0.4935    0.3510 H   0  0  0  0  0  0  0  0  0  0  0  0
  -13.9198   -1.0389    1.4826 H   0  0  0  0  0  0  0  0  0  0  0  0
  -13.8451   -2.0447    0.0159 H   0  0  0  0  0  0  0  0  0  0  0  0
  -12.9710   -0.1104   -1.2659 H   0  0  0  0  0  0  0  0  0  0  0  0
  -13.0457    0.8954    0.2008 H   0  0  0  0  0  0  0  0  0  0  0  0
  -11.4584   -0.6371    1.3324 H   0  0  0  0  0  0  0  0  0  0  0  0
  -11.3837   -1.6428   -0.1343 H   0  0  0  0  0  0  0  0  0  0  0  0
  -10.5097    0.2915   -1.4161 H   0  0  0  0  0  0  0  0  0  0  0  0
  -10.5844    1.2972    0.0506 H   0  0  0  0  0  0  0  0  0  0  0  0
   -8.9970   -0.2352    1.1822 H   0  0  0  0  0  0  0  0  0  0  0  0
   -8.9223   -1.2409   -0.2845 H   0  0  0  0  0  0  0  0  0  0  0  0
   -8.0483    0.6934   -1.5664 H   0  0  0  0  0  0  0  0  0  0  0  0
   -8.1230    1.6991   -0.0997 H   0  0  0  0  0  0  0  0  0  0  0  0
   -6.5357    0.1667    1.0320 H   0  0  0  0  0  0  0  0  0  0  0  0
   -6.4610   -0.8390   -0.4347 H   0  0  0  0  0  0  0  0  0  0  0  0
   -5.5869    1.0953   -1.7166 H   0  0  0  0  0  0  0  0  0  0  0  0
   -5.6616    2.1010   -0.2499 H   0  0  0  0  0  0  0  0  0  0  0  0
   -4.0743    0.5686    0.8817 H   0  0  0  0  0  0  0  0  0  0  0  0
   -3.9996   -0.4372   -0.5850 H   0  0  0  0  0  0  0  0  0  0  0  0
   -3.1256    1.4972   -1.8668 H   0  0  0  0  0  0  0  0  0  0  0  0
   -3.2003    2.5029   -0.4001 H   0  0  0  0  0  0  0  0  0  0  0  0
    0.5262    0.5756    0.6421 H   0  0  0  0  0  0  0  0  0  0  0  0
    0.4762   -0.7504   -1.3937 H   0  0  0  0  0  0  0  0  0  0  0  0
    1.2338    0.5413   -2.3294 H   0  0  0  0  0  0  0  0  0  0  0  0
    2.4617   -0.9617    0.0370 H   0  0  0  0  0  0  0  0  0  0  0  0
    2.8884   -1.1801   -1.6805 H   0  0  0  0  0  0  0  0  0  0  0  0
    5.5739    0.3559   -1.3242 H   0  0  0  0  0  0  0  0  0  0  0  0
    4.2796   -1.7253    0.5015 H   0  0  0  0  0  0  0  0  0  0  0  0
    4.5503   -1.8453   -1.2490 H   0  0  0  0  0  0  0  0  0  0  0  0
    6.3942   -2.4100    0.8743 H   0  0  0  0  0  0  0  0  0  0  0  0
    6.5825   -2.6266   -0.8762 H   0  0  0  0  0  0  0  0  0  0  0  0
    7.0683   -0.2214   -1.1409 H   0  0  0  0  0  0  0  0  0  0  0  0
    8.9379   -0.8709   -1.4507 H   0  0  0  0  0  0  0  0  0  0  0  0
    8.4012   -3.1241   -1.0778 H   0  0  0  0  0  0  0  0  0  0  0  0
    9.9684   -4.4018   -2.0674 H   0  0  0  0  0  0  0  0  0  0  0  0
   11.7668   -3.8873   -2.0629 H   0  0  0  0  0  0  0  0  0  0  0  0
   11.8337   -2.1633    0.6922 H   0  0  0  0  0  0  0  0  0  0  0  0
   12.4627   -2.0236   -0.9526 H   0  0  0  0  0  0  0  0  0  0  0  0
   11.8588    0.2057    0.0478 H   0  0  0  0  0  0  0  0  0  0  0  0
   10.9648   -0.1535   -1.4527 H   0  0  0  0  0  0  0  0  0  0  0  0
   10.1016    1.8255    0.6763 H   0  0  0  0  0  0  0  0  0  0  0  0
    9.2710    1.4449   -0.8419 H   0  0  0  0  0  0  0  0  0  0  0  0
    8.1877    1.7879    1.9282 H   0  0  0  0  0  0  0  0  0  0  0  0
    7.5604    2.3253    0.3796 H   0  0  0  0  0  0  0  0  0  0  0  0
    5.9551    2.7827    1.4621 H   0  0  0  0  0  0  0  0  0  0  0  0
    6.0680    2.5786   -0.3011 H   0  0  0  0  0  0  0  0  0  0  0  0
    3.8102    3.3806    1.3130 H   0  0  0  0  0  0  0  0  0  0  0  0
    4.0827    3.5158   -0.4257 H   0  0  0  0  0  0  0  0  0  0  0  0
    2.9186    1.1731    1.1457 H   0  0  0  0  0  0  0  0  0  0  0  0
    1.8001    2.7208   -2.1840 H   0  0  0  0  0  0  0  0  0  0  0  0
    0.5949    3.6721   -1.2836 H   0  0  0  0  0  0  0  0  0  0  0  0
    2.3294    4.0229   -1.0920 H   0  0  0  0  0  0  0  0  0  0  0  0
    1.8804    3.8014    1.3980 H   0  0  0  0  0  0  0  0  0  0  0  0
    0.1931    3.3774    1.0222 H   0  0  0  0  0  0  0  0  0  0  0  0
    1.1835    2.2867    2.0211 H   0  0  0  0  0  0  0  0  0  0  0  0
    5.5212    0.6837    2.9185 H   0  0  0  0  0  0  0  0  0  0  0  0
    3.9176    0.8070    2.1558 H   0  0  0  0  0  0  0  0  0  0  0  0
    4.8116   -0.7313    2.1045 H   0  0  0  0  0  0  0  0  0  0  0  0
    6.9451    0.4054    3.0729 H   0  0  0  0  0  0  0  0  0  0  0  0
    6.2403   -1.0775    2.3855 H   0  0  0  0  0  0  0  0  0  0  0  0
    8.0080   -0.8793    2.4500 H   0  0  0  0  0  0  0  0  0  0  0  0
   11.0324   -0.2021    2.0894 H   0  0  0  0  0  0  0  0  0  0  0  0
    9.2873   -0.1343    2.4333 H   0  0  0  0  0  0  0  0  0  0  0  0
   10.0406   -1.6737    1.9525 H   0  0  0  0  0  0  0  0  0  0  0  0
    8.0164   -2.9246    1.5107 H   0  0  0  0  0  0  0  0  0  0  0  0
    8.7415   -4.3981    0.8241 H   0  0  0  0  0  0  0  0  0  0  0  0
    9.7758   -3.1778    1.6048 H   0  0  0  0  0  0  0  0  0  0  0  0
    2.7715    1.5250   -2.6499 H   0  0  0  0  0  0  0  0  0  0  0  0
    4.3360    2.2073   -2.1449 H   0  0  0  0  0  0  0  0  0  0  0  0
    4.2654    0.5820   -2.8670 H   0  0  0  0  0  0  0  0  0  0  0  0
  1  2  1  0  0  0  0
  2  3  1  0  0  0  0
  3  4  1  0  0  0  0
  4  5  1  0  0  0  0
  5  6  1  0  0  0  0
  6  7  1  0  0  0  0
  7  8  1  0  0  0  0
  8  9  1  0  0  0  0
  9 10  1  0  0  0  0
 10 11  1  0  0  0  0
 11 12  1  0  0  0  0
 12 13  1  0  0  0  0
 13 14  1  0  0  0  0
 14 15  1  0  0  0  0
 15 16  1  0  0  0  0
 16 17  2  0  0  0  0
 16 18  1  0  0  0  0
 18 19  1  0  0  0  0
 19 20  1  0  0  0  0
 20 21  1  0  0  0  0
 21 22  1  0  0  0  0
 22 23  1  0  0  0  0
 23 24  1  0  0  0  0
 24 25  1  0  0  0  0
 25 26  1  0  0  0  0
 26 27  1  0  0  0  0
 27 28  1  0  0  0  0
 28 29  1  0  0  0  0
 29 30  2  0  0  0  0
 29 31  1  0  0  0  0
 31 32  1  0  0  0  0
 32 33  1  0  0  0  0
 27 33  1  0  0  0  0
 33 34  1  0  0  0  0
 34 35  1  0  0  0  0
 35 36  1  0  0  0  0
 26 36  1  0  0  0  0
 36 37  1  0  0  0  0
 23 37  1  0  0  0  0
 37 38  1  0  0  0  0
 38 39  1  0  0  0  0
 39 40  1  0  0  0  0
 22 40  1  0  0  0  0
 40 41  1  0  0  0  0
 19 41  1  0  0  0  0
 41 42  1  0  0  0  0
 41 43  1  0  0  0  0
 37 44  1  0  0  0  0
 36 45  1  0  0  0  0
 33 46  1  0  0  0  0
 28 47  1  0  0  0  0
 22 48  1  0  0  0  0
  1 49  1  0  0  0  0
  1 50  1  0  0  0  0
  1 51  1  0  0  0  0
  2 52  1  0  0  0  0
  2 53  1  0  0  0  0
  3 54  1  0  0  0  0
  3 55  1  0  0  0  0
  4 56  1  0  0  0  0
  4 57  1  0  0  0  0
  5 58  1  0  0  0  0
  5 59  1  0  0  0  0
  6 60  1  0  0  0  0
  6 61  1  0  0  0  0
  7 62  1  0  0  0  0
  7 63  1  0  0  0  0
  8 64  1  0  0  0  0
  8 65  1  0  0  0  0
  9 66  1  0  0  0  0
  9 67  1  0  0  0  0
 10 68  1  0  0  0  0
 10 69  1  0  0  0  0
 11 70  1  0  0  0  0
 11 71  1  0  0  0  0
 12 72  1  0  0  0  0
 12 73  1  0  0  0  0
 13 74  1  0  0  0  0
 13 75  1  0  0  0  0
 14 76  1  0  0  0  0
 14 77  1  0  0  0  0
 15 78  1  0  0  0  0
 15 79  1  0  0  0  0
 19 80  1  0  0  0  0
 20 81  1  0  0  0  0
 20 82  1  0  0  0  0
 21 83  1  0  0  0  0
 21 84  1  0  0  0  0
 23 85  1  0  0  0  0
 24 86  1  0  0  0  0
 24 87  1  0  0  0  0
 25 88  1  0  0  0  0
 25 89  1  0  0  0  0
 26 90  1  0  0  0  0
 27 91  1  0  0  0  0
 28 92  1  0  0  0  0
 30 93  1  0  0  0  0
 30 94  1  0  0  0  0
 31 95  1  0  0  0  0
 31 96  1  0  0  0  0
 32 97  1  0  0  0  0
 32 98  1  0  0  0  0
 34 99  1  0  0  0  0
 34100  1  0  0  0  0
 35101  1  0  0  0  0
 35102  1  0  0  0  0
 38103  1  0  0  0  0
 38104  1  0  0  0  0
 39105  1  0  0  0  0
 39106  1  0  0  0  0
 40107  1  0  0  0  0
 42108  1  0  0  0  0
 42109  1  0  0  0  0
 42110  1  0  0  0  0
 43111  1  0  0  0  0
 43112  1  0  0  0  0
 43113  1  0  0  0  0
 44114  1  0  0  0  0
 44115  1  0  0  0  0
 44116  1  0  0  0  0
 45117  1  0  0  0  0
 45118  1  0  0  0  0
 45119  1  0  0  0  0
 46120  1  0  0  0  0
 46121  1  0  0  0  0
 46122  1  0  0  0  0
 47123  1  0  0  0  0
 47124  1  0  0  0  0
 47125  1  0  0  0  0
 48126  1  0  0  0  0
 48127  1  0  0  0  0
 48128  1  0  0  0  0
M  END
$$$$
