C16H14O4
APtclcactv06281817423D 0   0.00000     0.00000
 
 34 36  0  0  0  0  0  0  0  0999 V2000
   -2.6667    2.9625    0.8997 C   0  0  0  0  0  0  0  0  0  0  0  0
   -1.8247    1.8363    0.6454 O   0  0  0  0  0  0  0  0  0  0  0  0
   -2.4306    0.6959    0.2242 C   0  0  0  0  0  0  0  0  0  0  0  0
   -1.6664   -0.4489   -0.0447 C   0  0  0  0  0  0  0  0  0  0  0  0
   -2.2981   -1.6180   -0.4772 C   0  0  0  0  0  0  0  0  0  0  0  0
   -3.6665   -1.6415   -0.6375 C   0  0  0  0  0  0  0  0  0  0  0  0
   -4.4216   -0.5057   -0.3709 C   0  0  0  0  0  0  0  0  0  0  0  0
   -3.8045    0.6582    0.0644 C   0  0  0  0  0  0  0  0  0  0  0  0
   -5.7703   -0.5367   -0.5323 O   0  0  0  0  0  0  0  0  0  0  0  0
   -0.2041   -0.4189    0.1276 C   0  0  0  0  0  0  0  0  0  0  0  0
    0.5710    0.2149   -0.7771 C   0  0  0  0  0  0  0  0  0  0  0  0
    2.0300    0.2050   -0.5639 C   0  0  0  0  0  0  0  0  0  0  0  0
    2.5677   -0.7282    0.3378 C   0  0  0  0  0  0  0  0  0  0  0  0
    3.9306   -0.7610    0.5580 C   0  0  0  0  0  0  0  0  0  0  0  0
    4.7599    0.1279   -0.1130 C   0  0  0  0  0  0  0  0  0  0  0  0
    4.2282    1.0510   -1.0053 C   0  0  0  0  0  0  0  0  0  0  0  0
    2.8678    1.0938   -1.2331 C   0  0  0  0  0  0  0  0  0  0  0  0
    6.1006    0.0951    0.1047 O   0  0  0  0  0  0  0  0  0  0  0  0
    1.7295   -1.5835    0.9768 O   0  0  0  0  0  0  0  0  0  0  0  0
    0.4301   -1.0904    1.3174 C   0  0  0  0  0  0  0  0  0  0  0  0
   -2.0577    3.8045    1.2289 H   0  0  0  0  0  0  0  0  0  0  0  0
   -3.1975    3.2328   -0.0131 H   0  0  0  0  0  0  0  0  0  0  0  0
   -3.3872    2.7092    1.6775 H   0  0  0  0  0  0  0  0  0  0  0  0
   -1.7142   -2.5023   -0.6860 H   0  0  0  0  0  0  0  0  0  0  0  0
   -4.1538   -2.5455   -0.9718 H   0  0  0  0  0  0  0  0  0  0  0  0
   -4.3960    1.5380    0.2702 H   0  0  0  0  0  0  0  0  0  0  0  0
   -6.2551   -0.8054    0.2601 H   0  0  0  0  0  0  0  0  0  0  0  0
    0.1363    0.7136   -1.6308 H   0  0  0  0  0  0  0  0  0  0  0  0
    4.3502   -1.4758    1.2505 H   0  0  0  0  0  0  0  0  0  0  0  0
    4.8820    1.7381   -1.5219 H   0  0  0  0  0  0  0  0  0  0  0  0
    2.4554    1.8117   -1.9266 H   0  0  0  0  0  0  0  0  0  0  0  0
    6.5813   -0.4970   -0.4898 H   0  0  0  0  0  0  0  0  0  0  0  0
    0.5196   -0.3766    2.1363 H   0  0  0  0  0  0  0  0  0  0  0  0
   -0.1988   -1.9226    1.6336 H   0  0  0  0  0  0  0  0  0  0  0  0
  1  2  1  0  0  0  0
  2  3  1  0  0  0  0
  3  4  2  0  0  0  0
  4  5  1  0  0  0  0
  5  6  2  0  0  0  0
  6  7  1  0  0  0  0
  7  8  2  0  0  0  0
  3  8  1  0  0  0  0
  7  9  1  0  0  0  0
  4 10  1  0  0  0  0
 10 11  2  0  0  0  0
 11 12  1  0  0  0  0
 12 13  2  0  0  0  0
 13 14  1  0  0  0  0
 14 15  2  0  0  0  0
 15 16  1  0  0  0  0
 16 17  2  0  0  0  0
 12 17  1  0  0  0  0
 15 18  1  0  0  0  0
 13 19  1  0  0  0  0
 19 20  1  0  0  0  0
 10 20  1  0  0  0  0
  1 21  1  0  0  0  0
  1 22  1  0  0  0  0
  1 23  1  0  0  0  0
  5 24  1  0  0  0  0
  6 25  1  0  0  0  0
  8 26  1  0  0  0  0
  9 27  1  0  0  0  0
 11 28  1  0  0  0  0
 14 29  1  0  0  0  0
 16 30  1  0  0  0  0
 17 31  1  0  0  0  0
 18 32  1  0  0  0  0
 20 33  1  0  0  0  0
 20 34  1  0  0  0  0
M  END
$$$$
