C21H20O9
APtclcactv06281817423D 0   0.00000     0.00000
 
 50 53  0  0  0  0  0  0  0  0999 V2000
    0.0986    4.6748    0.5632 C   0  0  0  0  0  0  0  0  0  0  0  0
   -0.3719    3.2432    0.5534 C   0  0  0  0  0  0  0  0  0  0  0  0
    0.5381    2.2232    0.7387 C   0  0  0  0  0  0  0  0  0  0  0  0
    0.1189    0.8949    0.7323 C   0  0  0  0  0  0  0  0  0  0  0  0
   -1.2315    0.5979    0.5365 C   0  0  0  0  0  0  0  0  0  0  0  0
   -2.1552    1.6447    0.3486 C   0  0  0  0  0  0  0  0  0  0  0  0
   -1.7165    2.9630    0.3640 C   0  0  0  0  0  0  0  0  0  0  0  0
   -3.5853    1.3295    0.1416 C   0  0  0  0  0  0  0  0  0  0  0  0
   -4.4264    2.2026    0.2253 O   0  0  0  0  0  0  0  0  0  0  0  0
   -3.9785   -0.0620   -0.1693 C   0  0  0  0  0  0  0  0  0  0  0  0
   -3.0519   -1.1058    0.0181 C   0  0  0  0  0  0  0  0  0  0  0  0
   -1.6991   -0.8017    0.5235 C   0  0  0  0  0  0  0  0  0  0  0  0
   -0.9776   -1.6947    0.9245 O   0  0  0  0  0  0  0  0  0  0  0  0
   -3.4224   -2.4200   -0.2766 C   0  0  0  0  0  0  0  0  0  0  0  0
   -4.7042   -2.6838   -0.7522 C   0  0  0  0  0  0  0  0  0  0  0  0
   -5.6072   -1.6562   -0.9326 C   0  0  0  0  0  0  0  0  0  0  0  0
   -5.2530   -0.3476   -0.6446 C   0  0  0  0  0  0  0  0  0  0  0  0
   -2.5388   -3.4332   -0.1003 O   0  0  0  0  0  0  0  0  0  0  0  0
    1.0172   -0.1043    0.9148 O   0  0  0  0  0  0  0  0  0  0  0  0
    2.3808    0.2766    1.1085 C   0  0  0  0  0  0  0  0  0  0  0  0
    3.2187   -0.9663    1.4197 C   0  0  0  0  0  0  0  0  0  0  0  0
    3.1681   -1.9197    0.2219 C   0  0  0  0  0  0  0  0  0  0  0  0
    3.6639   -1.1817   -1.0254 C   0  0  0  0  0  0  0  0  0  0  0  0
    2.8087    0.0694   -1.2422 C   0  0  0  0  0  0  0  0  0  0  0  0
    2.8755    0.8977   -0.0796 O   0  0  0  0  0  0  0  0  0  0  0  0
    3.3356    0.8443   -2.4517 C   0  0  0  0  0  0  0  0  0  0  0  0
    2.4694    1.9475   -2.7248 O   0  0  0  0  0  0  0  0  0  0  0  0
    5.0293   -0.8014   -0.8441 O   0  0  0  0  0  0  0  0  0  0  0  0
    4.0066   -3.0490    0.4741 O   0  0  0  0  0  0  0  0  0  0  0  0
    4.5724   -0.5802    1.6658 O   0  0  0  0  0  0  0  0  0  0  0  0
    0.3687    4.9754   -0.4491 H   0  0  0  0  0  0  0  0  0  0  0  0
   -0.7008    5.3175    0.9320 H   0  0  0  0  0  0  0  0  0  0  0  0
    0.9682    4.7670    1.2138 H   0  0  0  0  0  0  0  0  0  0  0  0
    1.5819    2.4559    0.8893 H   0  0  0  0  0  0  0  0  0  0  0  0
   -2.4213    3.7687    0.2207 H   0  0  0  0  0  0  0  0  0  0  0  0
   -4.9933   -3.6988   -0.9814 H   0  0  0  0  0  0  0  0  0  0  0  0
   -6.5987   -1.8735   -1.3017 H   0  0  0  0  0  0  0  0  0  0  0  0
   -5.9670    0.4498   -0.7889 H   0  0  0  0  0  0  0  0  0  0  0  0
   -2.5687   -3.8324    0.7800 H   0  0  0  0  0  0  0  0  0  0  0  0
    2.4477    0.9778    1.9403 H   0  0  0  0  0  0  0  0  0  0  0  0
    2.8157   -1.4661    2.3005 H   0  0  0  0  0  0  0  0  0  0  0  0
    2.1424   -2.2534    0.0646 H   0  0  0  0  0  0  0  0  0  0  0  0
    3.5792   -1.8357   -1.8933 H   0  0  0  0  0  0  0  0  0  0  0  0
    1.7742   -0.2238   -1.4207 H   0  0  0  0  0  0  0  0  0  0  0  0
    4.3384    1.2141   -2.2376 H   0  0  0  0  0  0  0  0  0  0  0  0
    3.3690    0.1851   -3.3191 H   0  0  0  0  0  0  0  0  0  0  0  0
    2.7430    2.4846   -3.4810 H   0  0  0  0  0  0  0  0  0  0  0  0
    5.6287   -1.5457   -0.6964 H   0  0  0  0  0  0  0  0  0  0  0  0
    3.7540   -3.5598    1.2554 H   0  0  0  0  0  0  0  0  0  0  0  0
    4.6787    0.0286    2.4096 H   0  0  0  0  0  0  0  0  0  0  0  0
  1  2  1  0  0  0  0
  2  3  2  0  0  0  0
  3  4  1  0  0  0  0
  4  5  2  0  0  0  0
  5  6  1  0  0  0  0
  6  7  2  0  0  0  0
  2  7  1  0  0  0  0
  6  8  1  0  0  0  0
  8  9  2  0  0  0  0
  8 10  1  0  0  0  0
 10 11  2  0  0  0  0
 11 12  1  0  0  0  0
  5 12  1  0  0  0  0
 12 13  2  0  0  0  0
 11 14  1  0  0  0  0
 14 15  2  0  0  0  0
 15 16  1  0  0  0  0
 16 17  2  0  0  0  0
 10 17  1  0  0  0  0
 14 18  1  0  0  0  0
  4 19  1  0  0  0  0
 19 20  1  0  0  0  0
 20 21  1  0  0  0  0
 21 22  1  0  0  0  0
 22 23  1  0  0  0  0
 23 24  1  0  0  0  0
 24 25  1  0  0  0  0
 20 25  1  0  0  0  0
 24 26  1  0  0  0  0
 26 27  1  0  0  0  0
 23 28  1  0  0  0  0
 22 29  1  0  0  0  0
 21 30  1  0  0  0  0
  1 31  1  0  0  0  0
  1 32  1  0  0  0  0
  1 33  1  0  0  0  0
  3 34  1  0  0  0  0
  7 35  1  0  0  0  0
 15 36  1  0  0  0  0
 16 37  1  0  0  0  0
 17 38  1  0  0  0  0
 18 39  1  0  0  0  0
 20 40  1  0  0  0  0
 21 41  1  0  0  0  0
 22 42  1  0  0  0  0
 23 43  1  0  0  0  0
 24 44  1  0  0  0  0
 26 45  1  0  0  0  0
 26 46  1  0  0  0  0
 27 47  1  0  0  0  0
 28 48  1  0  0  0  0
 29 49  1  0  0  0  0
 30 50  1  0  0  0  0
M  END
$$$$
