C15H12O4
APtclcactv06281817423D 0   0.00000     0.00000
 
 31 33  0  0  0  0  0  0  0  0999 V2000
    0.2587    1.2982   -1.0389 C   0  0  0  0  0  0  0  0  0  0  0  0
   -0.3653    0.2829   -0.1177 C   0  0  0  0  0  0  0  0  0  0  0  0
    0.4218   -0.5575    0.5861 C   0  0  0  0  0  0  0  0  0  0  0  0
    1.8823   -0.4319    0.4266 C   0  0  0  0  0  0  0  0  0  0  0  0
    2.3935    0.7424   -0.1501 C   0  0  0  0  0  0  0  0  0  0  0  0
    1.5293    1.7149   -0.5375 O   0  0  0  0  0  0  0  0  0  0  0  0
    3.7571    0.8884   -0.3124 C   0  0  0  0  0  0  0  0  0  0  0  0
    4.6133   -0.1258    0.0956 C   0  0  0  0  0  0  0  0  0  0  0  0
    4.1078   -1.2875    0.6665 C   0  0  0  0  0  0  0  0  0  0  0  0
    2.7470   -1.4453    0.8328 C   0  0  0  0  0  0  0  0  0  0  0  0
    5.9547    0.0186   -0.0649 O   0  0  0  0  0  0  0  0  0  0  0  0
   -1.8300    0.2078    0.0149 C   0  0  0  0  0  0  0  0  0  0  0  0
   -2.5397   -0.8365   -0.5955 C   0  0  0  0  0  0  0  0  0  0  0  0
   -3.9158   -0.8998   -0.4661 C   0  0  0  0  0  0  0  0  0  0  0  0
   -4.5902    0.0675    0.2648 C   0  0  0  0  0  0  0  0  0  0  0  0
   -3.8893    1.1035    0.8702 C   0  0  0  0  0  0  0  0  0  0  0  0
   -2.5180    1.1738    0.7543 C   0  0  0  0  0  0  0  0  0  0  0  0
   -5.9416    0.0019    0.3890 O   0  0  0  0  0  0  0  0  0  0  0  0
   -1.8784   -1.7824   -1.3116 O   0  0  0  0  0  0  0  0  0  0  0  0
    0.3893    0.8556   -2.0263 H   0  0  0  0  0  0  0  0  0  0  0  0
   -0.3984    2.1643   -1.1176 H   0  0  0  0  0  0  0  0  0  0  0  0
   -0.0046   -1.2987    1.2458 H   0  0  0  0  0  0  0  0  0  0  0  0
    4.1564    1.7889   -0.7551 H   0  0  0  0  0  0  0  0  0  0  0  0
    4.7824   -2.0704    0.9803 H   0  0  0  0  0  0  0  0  0  0  0  0
    2.3551   -2.3486    1.2765 H   0  0  0  0  0  0  0  0  0  0  0  0
    6.3991    0.4297    0.6892 H   0  0  0  0  0  0  0  0  0  0  0  0
   -4.4655   -1.7027   -0.9349 H   0  0  0  0  0  0  0  0  0  0  0  0
   -4.4206    1.8536    1.4372 H   0  0  0  0  0  0  0  0  0  0  0  0
   -1.9763    1.9801    1.2263 H   0  0  0  0  0  0  0  0  0  0  0  0
   -6.2420   -0.5057    1.1553 H   0  0  0  0  0  0  0  0  0  0  0  0
   -1.5955   -2.5452   -0.7888 H   0  0  0  0  0  0  0  0  0  0  0  0
  1  2  1  0  0  0  0
  2  3  2  0  0  0  0
  3  4  1  0  0  0  0
  4  5  2  0  0  0  0
  5  6  1  0  0  0  0
  1  6  1  0  0  0  0
  5  7  1  0  0  0  0
  7  8  2  0  0  0  0
  8  9  1  0  0  0  0
  9 10  2  0  0  0  0
  4 10  1  0  0  0  0
  8 11  1  0  0  0  0
  2 12  1  0  0  0  0
 12 13  2  0  0  0  0
 13 14  1  0  0  0  0
 14 15  2  0  0  0  0
 15 16  1  0  0  0  0
 16 17  2  0  0  0  0
 12 17  1  0  0  0  0
 15 18  1  0  0  0  0
 13 19  1  0  0  0  0
  1 20  1  0  0  0  0
  1 21  1  0  0  0  0
  3 22  1  0  0  0  0
  7 23  1  0  0  0  0
  9 24  1  0  0  0  0
 10 25  1  0  0  0  0
 11 26  1  0  0  0  0
 14 27  1  0  0  0  0
 16 28  1  0  0  0  0
 17 29  1  0  0  0  0
 18 30  1  0  0  0  0
 19 31  1  0  0  0  0
M  END
$$$$
