C14H14O4
APtclcactv06281817423D 0   0.00000     0.00000
 
 32 33  0  0  0  0  0  0  0  0999 V2000
   -2.6444   -1.6516    1.3083 C   0  0  0  0  0  0  0  0  0  0  0  0
   -2.8388   -0.6471    0.2018 C   0  0  0  0  0  0  0  0  0  0  0  0
   -2.1589    0.4726    0.2067 C   0  0  0  0  0  0  0  0  0  0  0  0
   -1.0899    0.7004    1.2442 C   0  0  0  0  0  0  0  0  0  0  0  0
    0.2062    1.0531    0.5610 C   0  0  0  0  0  0  0  0  0  0  0  0
    0.5119    2.3770    0.2917 C   0  0  0  0  0  0  0  0  0  0  0  0
    1.7079    2.7134   -0.3398 C   0  0  0  0  0  0  0  0  0  0  0  0
    2.5954    1.7420   -0.7020 C   0  0  0  0  0  0  0  0  0  0  0  0
    2.3027    0.3991   -0.4376 C   0  0  0  0  0  0  0  0  0  0  0  0
    1.0993    0.0537    0.2049 C   0  0  0  0  0  0  0  0  0  0  0  0
    0.8210   -1.2429    0.4590 O   0  0  0  0  0  0  0  0  0  0  0  0
    1.6701   -2.2228    0.1118 C   0  0  0  0  0  0  0  0  0  0  0  0
    1.3766   -3.3783    0.3610 O   0  0  0  0  0  0  0  0  0  0  0  0
    2.8930   -1.9487   -0.5344 C   0  0  0  0  0  0  0  0  0  0  0  0
    3.2363   -0.6644   -0.8144 C   0  0  0  0  0  0  0  0  0  0  0  0
   -0.3608    3.3548    0.6455 O   0  0  0  0  0  0  0  0  0  0  0  0
   -3.8154   -0.9307   -0.9104 C   0  0  0  0  0  0  0  0  0  0  0  0
   -3.8207    0.1630   -1.8301 O   0  0  0  0  0  0  0  0  0  0  0  0
   -2.8112   -1.1684    2.2710 H   0  0  0  0  0  0  0  0  0  0  0  0
   -3.3537   -2.4700    1.1847 H   0  0  0  0  0  0  0  0  0  0  0  0
   -1.6278   -2.0428    1.2693 H   0  0  0  0  0  0  0  0  0  0  0  0
   -2.3644    1.2325   -0.5327 H   0  0  0  0  0  0  0  0  0  0  0  0
   -1.3888    1.5178    1.9005 H   0  0  0  0  0  0  0  0  0  0  0  0
   -0.9552   -0.2072    1.8326 H   0  0  0  0  0  0  0  0  0  0  0  0
    1.9337    3.7496   -0.5441 H   0  0  0  0  0  0  0  0  0  0  0  0
    3.5204    2.0087   -1.1914 H   0  0  0  0  0  0  0  0  0  0  0  0
    3.5569   -2.7572   -0.8023 H   0  0  0  0  0  0  0  0  0  0  0  0
    4.1684   -0.4347   -1.3091 H   0  0  0  0  0  0  0  0  0  0  0  0
   -0.2178    3.7067    1.5347 H   0  0  0  0  0  0  0  0  0  0  0  0
   -3.5191   -1.8415   -1.4306 H   0  0  0  0  0  0  0  0  0  0  0  0
   -4.8141   -1.0592   -0.4929 H   0  0  0  0  0  0  0  0  0  0  0  0
   -4.4282    0.0487   -2.5737 H   0  0  0  0  0  0  0  0  0  0  0  0
  1  2  1  0  0  0  0
  2  3  2  0  0  0  0
  3  4  1  0  0  0  0
  4  5  1  0  0  0  0
  5  6  2  0  0  0  0
  6  7  1  0  0  0  0
  7  8  2  0  0  0  0
  8  9  1  0  0  0  0
  9 10  2  0  0  0  0
  5 10  1  0  0  0  0
 10 11  1  0  0  0  0
 11 12  1  0  0  0  0
 12 13  2  0  0  0  0
 12 14  1  0  0  0  0
 14 15  2  0  0  0  0
  9 15  1  0  0  0  0
  6 16  1  0  0  0  0
  2 17  1  0  0  0  0
 17 18  1  0  0  0  0
  1 19  1  0  0  0  0
  1 20  1  0  0  0  0
  1 21  1  0  0  0  0
  3 22  1  0  0  0  0
  4 23  1  0  0  0  0
  4 24  1  0  0  0  0
  7 25  1  0  0  0  0
  8 26  1  0  0  0  0
 14 27  1  0  0  0  0
 15 28  1  0  0  0  0
 16 29  1  0  0  0  0
 17 30  1  0  0  0  0
 17 31  1  0  0  0  0
 18 32  1  0  0  0  0
M  END
$$$$
