C15H22O5
APtclcactv06281817423D 0   0.00000     0.00000
 
 42 44  0  0  0  0  0  0  0  0999 V2000
    2.0887    2.3522    1.4420 C   0  0  0  0  0  0  0  0  0  0  0  0
    1.9769    1.5843    0.1234 C   0  0  0  0  0  0  0  0  0  0  0  0
    3.3813    1.1226   -0.3558 C   0  0  0  0  0  0  0  0  0  0  0  0
    3.3356   -0.4272   -0.4306 C   0  0  0  0  0  0  0  0  0  0  0  0
    2.1927   -0.8172    0.5296 C   0  0  0  0  0  0  0  0  0  0  0  0
    1.2111    0.3160    0.3220 C   0  0  0  0  0  0  0  0  0  0  0  0
   -0.1686    0.1602    0.7870 C   0  0  0  0  0  0  0  0  0  0  0  0
   -0.9106   -0.7951   -0.1844 C   0  0  0  0  0  0  0  0  0  0  0  0
   -0.9426   -2.2036    0.3753 C   0  0  0  0  0  0  0  0  0  0  0  0
    0.3824   -2.5984    1.0274 C   0  0  0  0  0  0  0  0  0  0  0  0
    1.5679   -2.1408    0.2105 C   0  0  0  0  0  0  0  0  0  0  0  0
    2.0398   -2.8864   -0.7578 C   0  0  0  0  0  0  0  0  0  0  0  0
   -2.3233   -0.1869   -0.2515 C   0  0  0  0  0  0  0  0  0  0  0  0
   -2.2566    1.0402    0.6370 C   0  0  0  0  0  0  0  0  0  0  0  0
   -3.2011    1.6144    1.1247 O   0  0  0  0  0  0  0  0  0  0  0  0
   -0.9609    1.3785    0.7888 O   0  0  0  0  0  0  0  0  0  0  0  0
   -2.6636    0.2133   -1.6885 C   0  0  0  0  0  0  0  0  0  0  0  0
   -3.9274    0.8799   -1.7107 O   0  0  0  0  0  0  0  0  0  0  0  0
   -3.2886   -1.1132    0.2505 O   0  0  0  0  0  0  0  0  0  0  0  0
    3.6618    1.6671   -1.6468 O   0  0  0  0  0  0  0  0  0  0  0  0
    2.6997    3.2425    1.2932 H   0  0  0  0  0  0  0  0  0  0  0  0
    1.0938    2.6461    1.7768 H   0  0  0  0  0  0  0  0  0  0  0  0
    2.5521    1.7152    2.1953 H   0  0  0  0  0  0  0  0  0  0  0  0
    1.5003    2.2032   -0.6369 H   0  0  0  0  0  0  0  0  0  0  0  0
    4.1422    1.4399    0.3573 H   0  0  0  0  0  0  0  0  0  0  0  0
    3.1095   -0.7538   -1.4456 H   0  0  0  0  0  0  0  0  0  0  0  0
    4.2801   -0.8536   -0.0928 H   0  0  0  0  0  0  0  0  0  0  0  0
    2.5542   -0.8107    1.5578 H   0  0  0  0  0  0  0  0  0  0  0  0
    1.0358    0.1004   -0.7320 H   0  0  0  0  0  0  0  0  0  0  0  0
   -0.1700   -0.2661    1.7902 H   0  0  0  0  0  0  0  0  0  0  0  0
   -0.4334   -0.7872   -1.1643 H   0  0  0  0  0  0  0  0  0  0  0  0
   -1.7364   -2.2703    1.1193 H   0  0  0  0  0  0  0  0  0  0  0  0
   -1.1597   -2.9006   -0.4341 H   0  0  0  0  0  0  0  0  0  0  0  0
    0.4388   -2.1478    2.0183 H   0  0  0  0  0  0  0  0  0  0  0  0
    0.4188   -3.6830    1.1294 H   0  0  0  0  0  0  0  0  0  0  0  0
    1.5808   -3.8387   -0.9789 H   0  0  0  0  0  0  0  0  0  0  0  0
    2.8878   -2.5487   -1.3351 H   0  0  0  0  0  0  0  0  0  0  0  0
   -1.8931    0.8825   -2.0715 H   0  0  0  0  0  0  0  0  0  0  0  0
   -2.7126   -0.6792   -2.3123 H   0  0  0  0  0  0  0  0  0  0  0  0
   -4.2075    1.1628   -2.5920 H   0  0  0  0  0  0  0  0  0  0  0  0
   -4.1973   -0.7829    0.2321 H   0  0  0  0  0  0  0  0  0  0  0  0
    4.5255    1.4148   -2.0009 H   0  0  0  0  0  0  0  0  0  0  0  0
  1  2  1  0  0  0  0
  2  3  1  0  0  0  0
  3  4  1  0  0  0  0
  4  5  1  0  0  0  0
  5  6  1  0  0  0  0
  2  6  1  0  0  0  0
  6  7  1  0  0  0  0
  7  8  1  0  0  0  0
  8  9  1  0  0  0  0
  9 10  1  0  0  0  0
 10 11  1  0  0  0  0
  5 11  1  0  0  0  0
 11 12  2  0  0  0  0
  8 13  1  0  0  0  0
 13 14  1  0  0  0  0
 14 15  2  0  0  0  0
 14 16  1  0  0  0  0
  7 16  1  0  0  0  0
 13 17  1  0  0  0  0
 17 18  1  0  0  0  0
 13 19  1  0  0  0  0
  3 20  1  0  0  0  0
  1 21  1  0  0  0  0
  1 22  1  0  0  0  0
  1 23  1  0  0  0  0
  2 24  1  0  0  0  0
  3 25  1  0  0  0  0
  4 26  1  0  0  0  0
  4 27  1  0  0  0  0
  5 28  1  0  0  0  0
  6 29  1  0  0  0  0
  7 30  1  0  0  0  0
  8 31  1  0  0  0  0
  9 32  1  0  0  0  0
  9 33  1  0  0  0  0
 10 34  1  0  0  0  0
 10 35  1  0  0  0  0
 12 36  1  0  0  0  0
 12 37  1  0  0  0  0
 17 38  1  0  0  0  0
 17 39  1  0  0  0  0
 18 40  1  0  0  0  0
 19 41  1  0  0  0  0
 20 42  1  0  0  0  0
M  END
$$$$
