C18H27NO2
APtclcactv06281817423D 0   0.00000     0.00000
 
 48 47  0  0  0  0  0  0  0  0999 V2000
   10.7814    2.1520   -0.1881 C   0  0  0  0  0  0  0  0  0  0  0  0
    9.3859    1.9302    0.3357 C   0  0  0  0  0  0  0  0  0  0  0  0
    8.6428    0.9351   -0.1483 C   0  0  0  0  0  0  0  0  0  0  0  0
    7.2864    0.7194    0.3608 C   0  0  0  0  0  0  0  0  0  0  0  0
    6.5343   -0.2877   -0.1291 C   0  0  0  0  0  0  0  0  0  0  0  0
    5.1779   -0.5034    0.3800 C   0  0  0  0  0  0  0  0  0  0  0  0
    4.4348   -1.4984   -0.1040 C   0  0  0  0  0  0  0  0  0  0  0  0
    3.0393   -1.7203    0.4198 C   0  0  0  0  0  0  0  0  0  0  0  0
    2.0497   -1.7152   -0.7471 C   0  0  0  0  0  0  0  0  0  0  0  0
    0.6542   -1.9371   -0.2234 C   0  0  0  0  0  0  0  0  0  0  0  0
   -0.3126   -1.0638   -0.5103 C   0  0  0  0  0  0  0  0  0  0  0  0
   -1.6678   -1.2793   -0.0017 C   0  0  0  0  0  0  0  0  0  0  0  0
   -2.6475   -0.3944   -0.2924 C   0  0  0  0  0  0  0  0  0  0  0  0
   -4.0019   -0.6098    0.2159 C   0  0  0  0  0  0  0  0  0  0  0  0
   -4.2469   -1.5858    0.9008 O   0  0  0  0  0  0  0  0  0  0  0  0
   -4.9787    0.2724   -0.0740 N   0  0  0  0  0  0  0  0  0  0  0  0
   -6.3353    0.0567    0.4352 C   0  0  0  0  0  0  0  0  0  0  0  0
   -7.2436    1.1946   -0.0353 C   0  0  0  0  0  0  0  0  0  0  0  0
   -8.6277    1.0371    0.5974 C   0  0  0  0  0  0  0  0  0  0  0  0
   -6.6401    2.5360    0.3856 C   0  0  0  0  0  0  0  0  0  0  0  0
   -7.3627    1.1515   -1.4586 O   0  0  0  0  0  0  0  0  0  0  0  0
   11.2300    3.0041    0.3227 H   0  0  0  0  0  0  0  0  0  0  0  0
   11.3834    1.2616   -0.0068 H   0  0  0  0  0  0  0  0  0  0  0  0
   10.7402    2.3510   -1.2590 H   0  0  0  0  0  0  0  0  0  0  0  0
    8.9879    2.5774    1.1032 H   0  0  0  0  0  0  0  0  0  0  0  0
    9.0408    0.2878   -0.9158 H   0  0  0  0  0  0  0  0  0  0  0  0
    6.8884    1.3666    1.1283 H   0  0  0  0  0  0  0  0  0  0  0  0
    6.9323   -0.9349   -0.8966 H   0  0  0  0  0  0  0  0  0  0  0  0
    4.7799    0.1439    1.1475 H   0  0  0  0  0  0  0  0  0  0  0  0
    4.8328   -2.1457   -0.8715 H   0  0  0  0  0  0  0  0  0  0  0  0
    2.9920   -2.6813    0.9320 H   0  0  0  0  0  0  0  0  0  0  0  0
    2.7822   -0.9235    1.1177 H   0  0  0  0  0  0  0  0  0  0  0  0
    2.0971   -0.7542   -1.2594 H   0  0  0  0  0  0  0  0  0  0  0  0
    2.3068   -2.5120   -1.4451 H   0  0  0  0  0  0  0  0  0  0  0  0
    0.4368   -2.8030    0.3843 H   0  0  0  0  0  0  0  0  0  0  0  0
   -0.0953   -0.1978   -1.1180 H   0  0  0  0  0  0  0  0  0  0  0  0
   -1.8852   -2.1452    0.6060 H   0  0  0  0  0  0  0  0  0  0  0  0
   -2.4301    0.4715   -0.9001 H   0  0  0  0  0  0  0  0  0  0  0  0
   -4.7835    1.0502   -0.6197 H   0  0  0  0  0  0  0  0  0  0  0  0
   -6.7178   -0.8924    0.0596 H   0  0  0  0  0  0  0  0  0  0  0  0
   -6.3153    0.0347    1.5248 H   0  0  0  0  0  0  0  0  0  0  0  0
   -8.5369    1.0699    1.6831 H   0  0  0  0  0  0  0  0  0  0  0  0
   -9.2748    1.8477    0.2622 H   0  0  0  0  0  0  0  0  0  0  0  0
   -9.0576    0.0814    0.2975 H   0  0  0  0  0  0  0  0  0  0  0  0
   -5.6540    2.6482   -0.0651 H   0  0  0  0  0  0  0  0  0  0  0  0
   -7.2871    3.3467    0.0505 H   0  0  0  0  0  0  0  0  0  0  0  0
   -6.5492    2.5689    1.4713 H   0  0  0  0  0  0  0  0  0  0  0  0
   -7.7390    0.3275   -1.7971 H   0  0  0  0  0  0  0  0  0  0  0  0
  1  2  1  0  0  0  0
  2  3  2  0  0  0  0
  3  4  1  0  0  0  0
  4  5  2  0  0  0  0
  5  6  1  0  0  0  0
  6  7  2  0  0  0  0
  7  8  1  0  0  0  0
  8  9  1  0  0  0  0
  9 10  1  0  0  0  0
 10 11  2  0  0  0  0
 11 12  1  0  0  0  0
 12 13  2  0  0  0  0
 13 14  1  0  0  0  0
 14 15  2  0  0  0  0
 14 16  1  0  0  0  0
 16 17  1  0  0  0  0
 17 18  1  0  0  0  0
 18 19  1  0  0  0  0
 18 20  1  0  0  0  0
 18 21  1  0  0  0  0
  1 22  1  0  0  0  0
  1 23  1  0  0  0  0
  1 24  1  0  0  0  0
  2 25  1  0  0  0  0
  3 26  1  0  0  0  0
  4 27  1  0  0  0  0
  5 28  1  0  0  0  0
  6 29  1  0  0  0  0
  7 30  1  0  0  0  0
  8 31  1  0  0  0  0
  8 32  1  0  0  0  0
  9 33  1  0  0  0  0
  9 34  1  0  0  0  0
 10 35  1  0  0  0  0
 11 36  1  0  0  0  0
 12 37  1  0  0  0  0
 13 38  1  0  0  0  0
 16 39  1  0  0  0  0
 17 40  1  0  0  0  0
 17 41  1  0  0  0  0
 19 42  1  0  0  0  0
 19 43  1  0  0  0  0
 19 44  1  0  0  0  0
 20 45  1  0  0  0  0
 20 46  1  0  0  0  0
 20 47  1  0  0  0  0
 21 48  1  0  0  0  0
M  END
$$$$
