C25H32O13
APtclcactv06281817423D 0   0.00000     0.00000
 
 70 72  0  0  0  0  0  0  0  0999 V2000
   -0.7215    6.4692    0.1586 C   0  0  0  0  0  0  0  0  0  0  0  0
   -0.6965    5.0487    0.3119 O   0  0  0  0  0  0  0  0  0  0  0  0
   -1.7655    4.3643   -0.1454 C   0  0  0  0  0  0  0  0  0  0  0  0
   -2.6936    4.9589   -0.6605 O   0  0  0  0  0  0  0  0  0  0  0  0
   -1.8073    2.9544   -0.0260 C   0  0  0  0  0  0  0  0  0  0  0  0
   -2.9278    2.3126   -0.3682 C   0  0  0  0  0  0  0  0  0  0  0  0
   -3.0641    0.9792   -0.2819 O   0  0  0  0  0  0  0  0  0  0  0  0
   -1.8519    0.1883   -0.1481 C   0  0  0  0  0  0  0  0  0  0  0  0
   -0.9792    0.8258    0.9417 C   0  0  0  0  0  0  0  0  0  0  0  0
   -0.5864    2.2333    0.4758 C   0  0  0  0  0  0  0  0  0  0  0  0
    0.4501    2.1284   -0.6447 C   0  0  0  0  0  0  0  0  0  0  0  0
    1.7197    1.5263   -0.0999 C   0  0  0  0  0  0  0  0  0  0  0  0
    1.8297    1.3186    1.0852 O   0  0  0  0  0  0  0  0  0  0  0  0
    2.7282    1.2209   -0.9314 O   0  0  0  0  0  0  0  0  0  0  0  0
    3.9208    0.6440   -0.3370 C   0  0  0  0  0  0  0  0  0  0  0  0
    4.9524    0.3649   -1.4319 C   0  0  0  0  0  0  0  0  0  0  0  0
    6.1902   -0.2338   -0.8150 C   0  0  0  0  0  0  0  0  0  0  0  0
    6.3005   -1.6055   -0.6827 C   0  0  0  0  0  0  0  0  0  0  0  0
    7.4379   -2.1576   -0.1158 C   0  0  0  0  0  0  0  0  0  0  0  0
    8.4672   -1.3285    0.3195 C   0  0  0  0  0  0  0  0  0  0  0  0
    8.3503    0.0455    0.1840 C   0  0  0  0  0  0  0  0  0  0  0  0
    7.2153    0.5896   -0.3877 C   0  0  0  0  0  0  0  0  0  0  0  0
    9.5853   -1.8656    0.8770 O   0  0  0  0  0  0  0  0  0  0  0  0
    7.5478   -3.5067    0.0155 O   0  0  0  0  0  0  0  0  0  0  0  0
   -1.7563    0.9101    2.2302 C   0  0  0  0  0  0  0  0  0  0  0  0
   -1.3174    0.2962    3.3011 C   0  0  0  0  0  0  0  0  0  0  0  0
   -2.1882   -1.1494    0.2252 O   0  0  0  0  0  0  0  0  0  0  0  0
   -2.8310   -1.8973   -0.8090 C   0  0  0  0  0  0  0  0  0  0  0  0
   -3.0310   -3.3424   -0.3451 C   0  0  0  0  0  0  0  0  0  0  0  0
   -3.9521   -3.3548    0.8787 C   0  0  0  0  0  0  0  0  0  0  0  0
   -5.2746   -2.6726    0.5156 C   0  0  0  0  0  0  0  0  0  0  0  0
   -4.9880   -1.2533    0.0184 C   0  0  0  0  0  0  0  0  0  0  0  0
   -4.1016   -1.3120   -1.1009 O   0  0  0  0  0  0  0  0  0  0  0  0
   -6.2986   -0.5859   -0.4031 C   0  0  0  0  0  0  0  0  0  0  0  0
   -6.0476    0.7757   -0.7567 O   0  0  0  0  0  0  0  0  0  0  0  0
   -5.9286   -3.4164   -0.5145 O   0  0  0  0  0  0  0  0  0  0  0  0
   -4.2035   -4.7048    1.2742 O   0  0  0  0  0  0  0  0  0  0  0  0
   -3.6255   -4.1040   -1.3980 O   0  0  0  0  0  0  0  0  0  0  0  0
    0.1952    6.8950    0.5668 H   0  0  0  0  0  0  0  0  0  0  0  0
   -0.7984    6.7192   -0.8996 H   0  0  0  0  0  0  0  0  0  0  0  0
   -1.5803    6.8772    0.6916 H   0  0  0  0  0  0  0  0  0  0  0  0
   -3.7633    2.8930   -0.7309 H   0  0  0  0  0  0  0  0  0  0  0  0
   -1.3112    0.1815   -1.0945 H   0  0  0  0  0  0  0  0  0  0  0  0
   -0.0817    0.2257    1.0917 H   0  0  0  0  0  0  0  0  0  0  0  0
   -0.1611    2.7872    1.3127 H   0  0  0  0  0  0  0  0  0  0  0  0
    0.0606    1.4952   -1.4418 H   0  0  0  0  0  0  0  0  0  0  0  0
    0.6598    3.1224   -1.0399 H   0  0  0  0  0  0  0  0  0  0  0  0
    4.3398    1.3422    0.3876 H   0  0  0  0  0  0  0  0  0  0  0  0
    3.6621   -0.2885    0.1646 H   0  0  0  0  0  0  0  0  0  0  0  0
    4.5334   -0.3333   -2.1564 H   0  0  0  0  0  0  0  0  0  0  0  0
    5.2111    1.2974   -1.9335 H   0  0  0  0  0  0  0  0  0  0  0  0
    5.5000   -2.2467   -1.0210 H   0  0  0  0  0  0  0  0  0  0  0  0
    9.1478    0.6912    0.5210 H   0  0  0  0  0  0  0  0  0  0  0  0
    7.1254    1.6607   -0.4928 H   0  0  0  0  0  0  0  0  0  0  0  0
   10.2841   -2.0680    0.2400 H   0  0  0  0  0  0  0  0  0  0  0  0
    7.9547   -3.9440   -0.7450 H   0  0  0  0  0  0  0  0  0  0  0  0
   -2.6749    1.4766    2.2708 H   0  0  0  0  0  0  0  0  0  0  0  0
   -0.3988   -0.2703    3.2605 H   0  0  0  0  0  0  0  0  0  0  0  0
   -1.8743    0.3566    4.2245 H   0  0  0  0  0  0  0  0  0  0  0  0
   -2.2107   -1.8857   -1.7052 H   0  0  0  0  0  0  0  0  0  0  0  0
   -2.0670   -3.7765   -0.0798 H   0  0  0  0  0  0  0  0  0  0  0  0
   -3.4768   -2.8158    1.6983 H   0  0  0  0  0  0  0  0  0  0  0  0
   -5.9152   -2.6276    1.3963 H   0  0  0  0  0  0  0  0  0  0  0  0
   -4.5259   -0.6744    0.8181 H   0  0  0  0  0  0  0  0  0  0  0  0
   -6.7154   -1.1132   -1.2612 H   0  0  0  0  0  0  0  0  0  0  0  0
   -7.0071   -0.6216    0.4245 H   0  0  0  0  0  0  0  0  0  0  0  0
   -6.8360    1.2616   -1.0349 H   0  0  0  0  0  0  0  0  0  0  0  0
   -6.1364   -4.3285   -0.2696 H   0  0  0  0  0  0  0  0  0  0  0  0
   -3.4074   -5.1997    1.5121 H   0  0  0  0  0  0  0  0  0  0  0  0
   -3.0974   -4.1352   -2.2074 H   0  0  0  0  0  0  0  0  0  0  0  0
  1  2  1  0  0  0  0
  2  3  1  0  0  0  0
  3  4  2  0  0  0  0
  3  5  1  0  0  0  0
  5  6  2  0  0  0  0
  6  7  1  0  0  0  0
  7  8  1  0  0  0  0
  8  9  1  0  0  0  0
  9 10  1  0  0  0  0
  5 10  1  0  0  0  0
 10 11  1  0  0  0  0
 11 12  1  0  0  0  0
 12 13  2  0  0  0  0
 12 14  1  0  0  0  0
 14 15  1  0  0  0  0
 15 16  1  0  0  0  0
 16 17  1  0  0  0  0
 17 18  2  0  0  0  0
 18 19  1  0  0  0  0
 19 20  2  0  0  0  0
 20 21  1  0  0  0  0
 21 22  2  0  0  0  0
 17 22  1  0  0  0  0
 20 23  1  0  0  0  0
 19 24  1  0  0  0  0
  9 25  1  0  0  0  0
 25 26  2  0  0  0  0
  8 27  1  0  0  0  0
 27 28  1  0  0  0  0
 28 29  1  0  0  0  0
 29 30  1  0  0  0  0
 30 31  1  0  0  0  0
 31 32  1  0  0  0  0
 32 33  1  0  0  0  0
 28 33  1  0  0  0  0
 32 34  1  0  0  0  0
 34 35  1  0  0  0  0
 31 36  1  0  0  0  0
 30 37  1  0  0  0  0
 29 38  1  0  0  0  0
  1 39  1  0  0  0  0
  1 40  1  0  0  0  0
  1 41  1  0  0  0  0
  6 42  1  0  0  0  0
  8 43  1  0  0  0  0
  9 44  1  0  0  0  0
 10 45  1  0  0  0  0
 11 46  1  0  0  0  0
 11 47  1  0  0  0  0
 15 48  1  0  0  0  0
 15 49  1  0  0  0  0
 16 50  1  0  0  0  0
 16 51  1  0  0  0  0
 18 52  1  0  0  0  0
 21 53  1  0  0  0  0
 22 54  1  0  0  0  0
 23 55  1  0  0  0  0
 24 56  1  0  0  0  0
 25 57  1  0  0  0  0
 26 58  1  0  0  0  0
 26 59  1  0  0  0  0
 28 60  1  0  0  0  0
 29 61  1  0  0  0  0
 30 62  1  0  0  0  0
 31 63  1  0  0  0  0
 32 64  1  0  0  0  0
 34 65  1  0  0  0  0
 34 66  1  0  0  0  0
 35 67  1  0  0  0  0
 36 68  1  0  0  0  0
 37 69  1  0  0  0  0
 38 70  1  0  0  0  0
M  END
$$$$
