C32H52O2
APtclcactv06281817423D 0   0.00000     0.00000
 
 86 90  0  0  0  0  0  0  0  0999 V2000
    6.4886    2.7583   -0.7521 C   0  0  0  0  0  0  0  0  0  0  0  0
    5.9233    1.3380   -0.7082 C   0  0  0  0  0  0  0  0  0  0  0  0
    6.5573    0.5632    0.4495 C   0  0  0  0  0  0  0  0  0  0  0  0
    5.8558   -0.7724    0.6711 C   0  0  0  0  0  0  0  0  0  0  0  0
    4.3531   -0.5943    0.9076 C   0  0  0  0  0  0  0  0  0  0  0  0
    3.7151   -1.9542    1.1770 C   0  0  0  0  0  0  0  0  0  0  0  0
    2.2004   -1.8051    1.3261 C   0  0  0  0  0  0  0  0  0  0  0  0
    1.6028   -1.2031    0.0552 C   0  0  0  0  0  0  0  0  0  0  0  0
    2.2243    0.1690   -0.2308 C   0  0  0  0  0  0  0  0  0  0  0  0
    3.7356    0.0569   -0.3344 C   0  0  0  0  0  0  0  0  0  0  0  0
    4.4217    1.4004   -0.4705 C   0  0  0  0  0  0  0  0  0  0  0  0
    3.8179    2.5496   -0.3703 C   0  0  0  0  0  0  0  0  0  0  0  0
    1.6307    0.7288   -1.5259 C   0  0  0  0  0  0  0  0  0  0  0  0
    0.1079    0.8682   -1.3942 C   0  0  0  0  0  0  0  0  0  0  0  0
   -0.4906   -0.4962   -1.0762 C   0  0  0  0  0  0  0  0  0  0  0  0
    0.0755   -1.0496    0.2196 C   0  0  0  0  0  0  0  0  0  0  0  0
   -0.5450   -2.4004    0.5511 C   0  0  0  0  0  0  0  0  0  0  0  0
   -2.0703   -2.4194    0.4366 C   0  0  0  0  0  0  0  0  0  0  0  0
   -2.6493   -1.0584    0.0949 C   0  0  0  0  0  0  0  0  0  0  0  0
   -2.0144   -0.5020   -1.1655 C   0  0  0  0  0  0  0  0  0  0  0  0
   -2.5458    0.9091   -1.4240 C   0  0  0  0  0  0  0  0  0  0  0  0
   -4.0667    0.8644   -1.5667 C   0  0  0  0  0  0  0  0  0  0  0  0
   -4.7158    0.3254   -0.3005 C   0  0  0  0  0  0  0  0  0  0  0  0
   -4.1715   -1.0444    0.1045 C   0  0  0  0  0  0  0  0  0  0  0  0
   -4.8047   -2.1443   -0.7378 C   0  0  0  0  0  0  0  0  0  0  0  0
   -4.6300   -1.2749    1.5678 C   0  0  0  0  0  0  0  0  0  0  0  0
   -4.5030    1.2640    0.7920 O   0  0  0  0  0  0  0  0  0  0  0  0
   -5.4318    2.2174    0.9660 C   0  0  0  0  0  0  0  0  0  0  0  0
   -6.3904    2.2680    0.2323 O   0  0  0  0  0  0  0  0  0  0  0  0
   -5.2789    3.2245    2.0766 C   0  0  0  0  0  0  0  0  0  0  0  0
   -2.3477   -1.3705   -2.3943 C   0  0  0  0  0  0  0  0  0  0  0  0
   -0.1426   -0.0816    1.3915 C   0  0  0  0  0  0  0  0  0  0  0  0
    1.9071   -2.1569   -1.1056 C   0  0  0  0  0  0  0  0  0  0  0  0
    4.1513    0.3027    2.1318 C   0  0  0  0  0  0  0  0  0  0  0  0
    7.5682    2.7153   -0.8956 H   0  0  0  0  0  0  0  0  0  0  0  0
    6.0337    3.3050   -1.5780 H   0  0  0  0  0  0  0  0  0  0  0  0
    6.2667    3.2667    0.1862 H   0  0  0  0  0  0  0  0  0  0  0  0
    6.1208    0.8298   -1.6482 H   0  0  0  0  0  0  0  0  0  0  0  0
    7.6106    0.3724    0.2033 H   0  0  0  0  0  0  0  0  0  0  0  0
    6.5336    1.1684    1.3547 H   0  0  0  0  0  0  0  0  0  0  0  0
    6.0018   -1.4101   -0.2033 H   0  0  0  0  0  0  0  0  0  0  0  0
    6.2908   -1.2702    1.5419 H   0  0  0  0  0  0  0  0  0  0  0  0
    3.9668   -2.6513    0.3835 H   0  0  0  0  0  0  0  0  0  0  0  0
    4.1218   -2.3509    2.1172 H   0  0  0  0  0  0  0  0  0  0  0  0
    1.7679   -2.8024    1.4778 H   0  0  0  0  0  0  0  0  0  0  0  0
    1.9759   -1.2010    2.1976 H   0  0  0  0  0  0  0  0  0  0  0  0
    1.9869    0.8635    0.5807 H   0  0  0  0  0  0  0  0  0  0  0  0
    4.0048   -0.5410   -1.2141 H   0  0  0  0  0  0  0  0  0  0  0  0
    2.7559    2.5866   -0.1775 H   0  0  0  0  0  0  0  0  0  0  0  0
    4.3790    3.4658   -0.4801 H   0  0  0  0  0  0  0  0  0  0  0  0
    2.0411    1.7148   -1.7427 H   0  0  0  0  0  0  0  0  0  0  0  0
    1.8636    0.0798   -2.3683 H   0  0  0  0  0  0  0  0  0  0  0  0
   -0.1328    1.5995   -0.6330 H   0  0  0  0  0  0  0  0  0  0  0  0
   -0.2806    1.2180   -2.3578 H   0  0  0  0  0  0  0  0  0  0  0  0
   -0.1745   -1.1693   -1.9094 H   0  0  0  0  0  0  0  0  0  0  0  0
   -0.1517   -3.1839   -0.1000 H   0  0  0  0  0  0  0  0  0  0  0  0
   -0.2780   -2.6672    1.5835 H   0  0  0  0  0  0  0  0  0  0  0  0
   -2.3476   -3.1590   -0.3212 H   0  0  0  0  0  0  0  0  0  0  0  0
   -2.4724   -2.7706    1.3952 H   0  0  0  0  0  0  0  0  0  0  0  0
   -2.4089   -0.3646    0.9313 H   0  0  0  0  0  0  0  0  0  0  0  0
   -2.2754    1.5598   -0.5931 H   0  0  0  0  0  0  0  0  0  0  0  0
   -2.1139    1.2985   -2.3471 H   0  0  0  0  0  0  0  0  0  0  0  0
   -4.4254    1.8918   -1.7341 H   0  0  0  0  0  0  0  0  0  0  0  0
   -4.3607    0.2745   -2.4302 H   0  0  0  0  0  0  0  0  0  0  0  0
   -5.7976    0.2350   -0.4649 H   0  0  0  0  0  0  0  0  0  0  0  0
   -4.6912   -1.9033   -1.7948 H   0  0  0  0  0  0  0  0  0  0  0  0
   -4.3117   -3.0931   -0.5265 H   0  0  0  0  0  0  0  0  0  0  0  0
   -5.8644   -2.2233   -0.4949 H   0  0  0  0  0  0  0  0  0  0  0  0
   -5.7189   -1.2556    1.6146 H   0  0  0  0  0  0  0  0  0  0  0  0
   -4.2686   -2.2434    1.9135 H   0  0  0  0  0  0  0  0  0  0  0  0
   -4.2250   -0.4877    2.2037 H   0  0  0  0  0  0  0  0  0  0  0  0
   -4.3607    3.0211    2.6277 H   0  0  0  0  0  0  0  0  0  0  0  0
   -5.2338    4.2280    1.6534 H   0  0  0  0  0  0  0  0  0  0  0  0
   -6.1314    3.1529    2.7519 H   0  0  0  0  0  0  0  0  0  0  0  0
   -3.4120   -1.2924   -2.6165 H   0  0  0  0  0  0  0  0  0  0  0  0
   -1.7711   -1.0235   -3.2517 H   0  0  0  0  0  0  0  0  0  0  0  0
   -2.0959   -2.4099   -2.1836 H   0  0  0  0  0  0  0  0  0  0  0  0
   -1.1846    0.2377    1.4099 H   0  0  0  0  0  0  0  0  0  0  0  0
    0.1000   -0.5841    2.3278 H   0  0  0  0  0  0  0  0  0  0  0  0
    0.5020    0.7887    1.2686 H   0  0  0  0  0  0  0  0  0  0  0  0
    1.4603   -3.1302   -0.9028 H   0  0  0  0  0  0  0  0  0  0  0  0
    1.4910   -1.7512   -2.0278 H   0  0  0  0  0  0  0  0  0  0  0  0
    2.9862   -2.2674   -1.2117 H   0  0  0  0  0  0  0  0  0  0  0  0
    4.6151    1.2726    1.9520 H   0  0  0  0  0  0  0  0  0  0  0  0
    3.0848    0.4378    2.3115 H   0  0  0  0  0  0  0  0  0  0  0  0
    4.6105   -0.1635    3.0035 H   0  0  0  0  0  0  0  0  0  0  0  0
  1  2  1  0  0  0  0
  2  3  1  0  0  0  0
  3  4  1  0  0  0  0
  4  5  1  0  0  0  0
  5  6  1  0  0  0  0
  6  7  1  0  0  0  0
  7  8  1  0  0  0  0
  8  9  1  0  0  0  0
  9 10  1  0  0  0  0
  5 10  1  0  0  0  0
 10 11  1  0  0  0  0
  2 11  1  0  0  0  0
 11 12  2  0  0  0  0
  9 13  1  0  0  0  0
 13 14  1  0  0  0  0
 14 15  1  0  0  0  0
 15 16  1  0  0  0  0
  8 16  1  0  0  0  0
 16 17  1  0  0  0  0
 17 18  1  0  0  0  0
 18 19  1  0  0  0  0
 19 20  1  0  0  0  0
 15 20  1  0  0  0  0
 20 21  1  0  0  0  0
 21 22  1  0  0  0  0
 22 23  1  0  0  0  0
 23 24  1  0  0  0  0
 19 24  1  0  0  0  0
 24 25  1  0  0  0  0
 24 26  1  0  0  0  0
 23 27  1  0  0  0  0
 27 28  1  0  0  0  0
 28 29  2  0  0  0  0
 28 30  1  0  0  0  0
 20 31  1  0  0  0  0
 16 32  1  0  0  0  0
  8 33  1  0  0  0  0
  5 34  1  0  0  0  0
  1 35  1  0  0  0  0
  1 36  1  0  0  0  0
  1 37  1  0  0  0  0
  2 38  1  0  0  0  0
  3 39  1  0  0  0  0
  3 40  1  0  0  0  0
  4 41  1  0  0  0  0
  4 42  1  0  0  0  0
  6 43  1  0  0  0  0
  6 44  1  0  0  0  0
  7 45  1  0  0  0  0
  7 46  1  0  0  0  0
  9 47  1  0  0  0  0
 10 48  1  0  0  0  0
 12 49  1  0  0  0  0
 12 50  1  0  0  0  0
 13 51  1  0  0  0  0
 13 52  1  0  0  0  0
 14 53  1  0  0  0  0
 14 54  1  0  0  0  0
 15 55  1  0  0  0  0
 17 56  1  0  0  0  0
 17 57  1  0  0  0  0
 18 58  1  0  0  0  0
 18 59  1  0  0  0  0
 19 60  1  0  0  0  0
 21 61  1  0  0  0  0
 21 62  1  0  0  0  0
 22 63  1  0  0  0  0
 22 64  1  0  0  0  0
 23 65  1  0  0  0  0
 25 66  1  0  0  0  0
 25 67  1  0  0  0  0
 25 68  1  0  0  0  0
 26 69  1  0  0  0  0
 26 70  1  0  0  0  0
 26 71  1  0  0  0  0
 30 72  1  0  0  0  0
 30 73  1  0  0  0  0
 30 74  1  0  0  0  0
 31 75  1  0  0  0  0
 31 76  1  0  0  0  0
 31 77  1  0  0  0  0
 32 78  1  0  0  0  0
 32 79  1  0  0  0  0
 32 80  1  0  0  0  0
 33 81  1  0  0  0  0
 33 82  1  0  0  0  0
 33 83  1  0  0  0  0
 34 84  1  0  0  0  0
 34 85  1  0  0  0  0
 34 86  1  0  0  0  0
M  END
$$$$
