C24H22O14
APtclcactv06281817433D 0   0.00000     0.00000
 
 60 63  0  0  0  0  0  0  0  0999 V2000
   -0.3965   -1.1589    2.6390 C   0  0  0  0  0  0  0  0  0  0  0  0
   -1.5855   -1.1015    3.3321 C   0  0  0  0  0  0  0  0  0  0  0  0
   -2.3343    0.0689    3.3354 C   0  0  0  0  0  0  0  0  0  0  0  0
   -1.8878    1.1864    2.6407 C   0  0  0  0  0  0  0  0  0  0  0  0
   -0.7000    1.1381    1.9448 C   0  0  0  0  0  0  0  0  0  0  0  0
    0.0567   -0.0372    1.9387 C   0  0  0  0  0  0  0  0  0  0  0  0
    1.3291   -0.0936    1.1957 C   0  0  0  0  0  0  0  0  0  0  0  0
    1.5669   -1.1603    0.3819 C   0  0  0  0  0  0  0  0  0  0  0  0
    2.7866   -1.2294   -0.3399 C   0  0  0  0  0  0  0  0  0  0  0  0
    3.0340   -2.1693   -1.0785 O   0  0  0  0  0  0  0  0  0  0  0  0
    3.7413   -0.1235   -0.1638 C   0  0  0  0  0  0  0  0  0  0  0  0
    4.9693   -0.1091   -0.8377 C   0  0  0  0  0  0  0  0  0  0  0  0
    5.8390    0.9484   -0.6458 C   0  0  0  0  0  0  0  0  0  0  0  0
    5.4957    1.9889    0.2105 C   0  0  0  0  0  0  0  0  0  0  0  0
    4.2823    1.9815    0.8807 C   0  0  0  0  0  0  0  0  0  0  0  0
    3.3965    0.9302    0.7011 C   0  0  0  0  0  0  0  0  0  0  0  0
    2.2090    0.9117    1.3420 O   0  0  0  0  0  0  0  0  0  0  0  0
    6.3576    3.0219    0.3922 O   0  0  0  0  0  0  0  0  0  0  0  0
    5.3031   -1.1259   -1.6723 O   0  0  0  0  0  0  0  0  0  0  0  0
    0.6422   -2.1517    0.2628 O   0  0  0  0  0  0  0  0  0  0  0  0
    0.0889   -2.3701   -1.0365 C   0  0  0  0  0  0  0  0  0  0  0  0
   -0.6540   -3.7086   -1.0567 C   0  0  0  0  0  0  0  0  0  0  0  0
   -1.8158   -3.6538   -0.0599 C   0  0  0  0  0  0  0  0  0  0  0  0
   -2.7280   -2.4771   -0.4200 C   0  0  0  0  0  0  0  0  0  0  0  0
   -1.9050   -1.1862   -0.4244 C   0  0  0  0  0  0  0  0  0  0  0  0
   -0.8234   -1.3157   -1.3494 O   0  0  0  0  0  0  0  0  0  0  0  0
   -2.7959   -0.0145   -0.8418 C   0  0  0  0  0  0  0  0  0  0  0  0
   -2.0479    1.2252   -0.7322 O   0  0  0  0  0  0  0  0  0  0  0  0
   -2.6905    2.3560   -1.0642 C   0  0  0  0  0  0  0  0  0  0  0  0
   -3.8398    2.3114   -1.4341 O   0  0  0  0  0  0  0  0  0  0  0  0
   -1.9784    3.6811   -0.9755 C   0  0  0  0  0  0  0  0  0  0  0  0
   -2.9140    4.7836   -1.4000 C   0  0  0  0  0  0  0  0  0  0  0  0
   -4.0432    4.5203   -1.7397 O   0  0  0  0  0  0  0  0  0  0  0  0
   -2.4929    6.0581   -1.4007 O   0  0  0  0  0  0  0  0  0  0  0  0
   -3.2913   -2.6887   -1.7161 O   0  0  0  0  0  0  0  0  0  0  0  0
   -2.5594   -4.8724   -0.1250 O   0  0  0  0  0  0  0  0  0  0  0  0
   -1.1623   -3.9528   -2.3697 O   0  0  0  0  0  0  0  0  0  0  0  0
   -3.5063    0.1208    4.0193 O   0  0  0  0  0  0  0  0  0  0  0  0
    0.1870   -2.0678    2.6404 H   0  0  0  0  0  0  0  0  0  0  0  0
   -1.9363   -1.9676    3.8735 H   0  0  0  0  0  0  0  0  0  0  0  0
   -2.4731    2.0940    2.6460 H   0  0  0  0  0  0  0  0  0  0  0  0
   -0.3541    2.0069    1.4045 H   0  0  0  0  0  0  0  0  0  0  0  0
    6.7875    0.9662   -1.1620 H   0  0  0  0  0  0  0  0  0  0  0  0
    4.0268    2.7953    1.5432 H   0  0  0  0  0  0  0  0  0  0  0  0
    6.2328    3.7523   -0.2291 H   0  0  0  0  0  0  0  0  0  0  0  0
    5.0248   -0.9902   -2.5884 H   0  0  0  0  0  0  0  0  0  0  0  0
    0.8908   -2.3883   -1.7747 H   0  0  0  0  0  0  0  0  0  0  0  0
    0.0300   -4.5091   -0.7751 H   0  0  0  0  0  0  0  0  0  0  0  0
   -1.4251   -3.5170    0.9484 H   0  0  0  0  0  0  0  0  0  0  0  0
   -3.5272   -2.3970    0.3168 H   0  0  0  0  0  0  0  0  0  0  0  0
   -1.5090   -1.0042    0.5747 H   0  0  0  0  0  0  0  0  0  0  0  0
   -3.1195   -0.1536   -1.8733 H   0  0  0  0  0  0  0  0  0  0  0  0
   -3.6684    0.0287   -0.1900 H   0  0  0  0  0  0  0  0  0  0  0  0
   -1.6569    3.8528    0.0518 H   0  0  0  0  0  0  0  0  0  0  0  0
   -1.1080    3.6705   -1.6316 H   0  0  0  0  0  0  0  0  0  0  0  0
   -3.1289    6.7305   -1.6809 H   0  0  0  0  0  0  0  0  0  0  0  0
   -3.8228   -3.4934   -1.7874 H   0  0  0  0  0  0  0  0  0  0  0  0
   -2.0409   -5.6612    0.0851 H   0  0  0  0  0  0  0  0  0  0  0  0
   -0.4767   -4.0743   -3.0406 H   0  0  0  0  0  0  0  0  0  0  0  0
   -3.4136    0.4103    4.9373 H   0  0  0  0  0  0  0  0  0  0  0  0
  1  2  2  0  0  0  0
  2  3  1  0  0  0  0
  3  4  2  0  0  0  0
  4  5  1  0  0  0  0
  5  6  2  0  0  0  0
  1  6  1  0  0  0  0
  6  7  1  0  0  0  0
  7  8  2  0  0  0  0
  8  9  1  0  0  0  0
  9 10  2  0  0  0  0
  9 11  1  0  0  0  0
 11 12  2  0  0  0  0
 12 13  1  0  0  0  0
 13 14  2  0  0  0  0
 14 15  1  0  0  0  0
 15 16  2  0  0  0  0
 11 16  1  0  0  0  0
 16 17  1  0  0  0  0
  7 17  1  0  0  0  0
 14 18  1  0  0  0  0
 12 19  1  0  0  0  0
  8 20  1  0  0  0  0
 20 21  1  0  0  0  0
 21 22  1  0  0  0  0
 22 23  1  0  0  0  0
 23 24  1  0  0  0  0
 24 25  1  0  0  0  0
 25 26  1  0  0  0  0
 21 26  1  0  0  0  0
 25 27  1  0  0  0  0
 27 28  1  0  0  0  0
 28 29  1  0  0  0  0
 29 30  2  0  0  0  0
 29 31  1  0  0  0  0
 31 32  1  0  0  0  0
 32 33  2  0  0  0  0
 32 34  1  0  0  0  0
 24 35  1  0  0  0  0
 23 36  1  0  0  0  0
 22 37  1  0  0  0  0
  3 38  1  0  0  0  0
  1 39  1  0  0  0  0
  2 40  1  0  0  0  0
  4 41  1  0  0  0  0
  5 42  1  0  0  0  0
 13 43  1  0  0  0  0
 15 44  1  0  0  0  0
 18 45  1  0  0  0  0
 19 46  1  0  0  0  0
 21 47  1  0  0  0  0
 22 48  1  0  0  0  0
 23 49  1  0  0  0  0
 24 50  1  0  0  0  0
 25 51  1  0  0  0  0
 27 52  1  0  0  0  0
 27 53  1  0  0  0  0
 31 54  1  0  0  0  0
 31 55  1  0  0  0  0
 34 56  1  0  0  0  0
 35 57  1  0  0  0  0
 36 58  1  0  0  0  0
 37 59  1  0  0  0  0
 38 60  1  0  0  0  0
M  END
$$$$
