C20H16O5
APtclcactv06281817433D 0   0.00000     0.00000
 
 41 44  0  0  0  0  0  0  0  0999 V2000
   -4.1108    1.8308    1.7578 C   0  0  0  0  0  0  0  0  0  0  0  0
   -4.0294    2.0298    0.2430 C   0  0  0  0  0  0  0  0  0  0  0  0
   -2.7224    2.6940   -0.1013 C   0  0  0  0  0  0  0  0  0  0  0  0
   -1.6424    1.9521   -0.3418 C   0  0  0  0  0  0  0  0  0  0  0  0
   -1.7788    0.4822   -0.2712 C   0  0  0  0  0  0  0  0  0  0  0  0
   -0.6580   -0.3454   -0.1720 C   0  0  0  0  0  0  0  0  0  0  0  0
   -0.8468   -1.7353   -0.1073 C   0  0  0  0  0  0  0  0  0  0  0  0
   -2.1380   -2.2794   -0.1415 C   0  0  0  0  0  0  0  0  0  0  0  0
   -3.2389   -1.4455   -0.2409 C   0  0  0  0  0  0  0  0  0  0  0  0
   -3.0662   -0.0723   -0.3063 C   0  0  0  0  0  0  0  0  0  0  0  0
   -4.1328    0.7616   -0.4049 O   0  0  0  0  0  0  0  0  0  0  0  0
   -2.3092   -3.6237   -0.0775 O   0  0  0  0  0  0  0  0  0  0  0  0
    0.3405   -2.6019   -0.0038 C   0  0  0  0  0  0  0  0  0  0  0  0
    0.2405   -3.8167    0.0560 O   0  0  0  0  0  0  0  0  0  0  0  0
    1.6025   -1.9610    0.0227 C   0  0  0  0  0  0  0  0  0  0  0  0
    1.6607   -0.6052   -0.0461 C   0  0  0  0  0  0  0  0  0  0  0  0
    0.5815    0.1785   -0.1399 O   0  0  0  0  0  0  0  0  0  0  0  0
    2.9881    0.0376   -0.0164 C   0  0  0  0  0  0  0  0  0  0  0  0
    3.2524    1.1381   -0.8367 C   0  0  0  0  0  0  0  0  0  0  0  0
    4.4929    1.7355   -0.8055 C   0  0  0  0  0  0  0  0  0  0  0  0
    5.4812    1.2457    0.0400 C   0  0  0  0  0  0  0  0  0  0  0  0
    5.2229    0.1515    0.8569 C   0  0  0  0  0  0  0  0  0  0  0  0
    3.9833   -0.4484    0.8362 C   0  0  0  0  0  0  0  0  0  0  0  0
    6.7027    1.8376    0.0676 O   0  0  0  0  0  0  0  0  0  0  0  0
   -5.1850    2.9236   -0.2115 C   0  0  0  0  0  0  0  0  0  0  0  0
   -4.0510    2.7989    2.2552 H   0  0  0  0  0  0  0  0  0  0  0  0
   -5.0558    1.3501    2.0109 H   0  0  0  0  0  0  0  0  0  0  0  0
   -3.2837    1.2017    2.0866 H   0  0  0  0  0  0  0  0  0  0  0  0
   -2.6608    3.7710   -0.1536 H   0  0  0  0  0  0  0  0  0  0  0  0
   -0.6948    2.4113   -0.5818 H   0  0  0  0  0  0  0  0  0  0  0  0
   -4.2333   -1.8659   -0.2681 H   0  0  0  0  0  0  0  0  0  0  0  0
   -2.4022   -3.9660    0.8221 H   0  0  0  0  0  0  0  0  0  0  0  0
    2.5090   -2.5433    0.0972 H   0  0  0  0  0  0  0  0  0  0  0  0
    2.4851    1.5191   -1.4943 H   0  0  0  0  0  0  0  0  0  0  0  0
    4.6981    2.5856   -1.4392 H   0  0  0  0  0  0  0  0  0  0  0  0
    5.9939   -0.2264    1.5119 H   0  0  0  0  0  0  0  0  0  0  0  0
    3.7832   -1.2985    1.4716 H   0  0  0  0  0  0  0  0  0  0  0  0
    6.7790    2.5521    0.7147 H   0  0  0  0  0  0  0  0  0  0  0  0
   -5.1151    3.8899    0.2881 H   0  0  0  0  0  0  0  0  0  0  0  0
   -5.1303    3.0677   -1.2905 H   0  0  0  0  0  0  0  0  0  0  0  0
   -6.1329    2.4501    0.0443 H   0  0  0  0  0  0  0  0  0  0  0  0
  1  2  1  0  0  0  0
  2  3  1  0  0  0  0
  3  4  2  0  0  0  0
  4  5  1  0  0  0  0
  5  6  2  0  0  0  0
  6  7  1  0  0  0  0
  7  8  2  0  0  0  0
  8  9  1  0  0  0  0
  9 10  2  0  0  0  0
  5 10  1  0  0  0  0
 10 11  1  0  0  0  0
  2 11  1  0  0  0  0
  8 12  1  0  0  0  0
  7 13  1  0  0  0  0
 13 14  2  0  0  0  0
 13 15  1  0  0  0  0
 15 16  2  0  0  0  0
 16 17  1  0  0  0  0
  6 17  1  0  0  0  0
 16 18  1  0  0  0  0
 18 19  2  0  0  0  0
 19 20  1  0  0  0  0
 20 21  2  0  0  0  0
 21 22  1  0  0  0  0
 22 23  2  0  0  0  0
 18 23  1  0  0  0  0
 21 24  1  0  0  0  0
  2 25  1  0  0  0  0
  1 26  1  0  0  0  0
  1 27  1  0  0  0  0
  1 28  1  0  0  0  0
  3 29  1  0  0  0  0
  4 30  1  0  0  0  0
  9 31  1  0  0  0  0
 12 32  1  0  0  0  0
 15 33  1  0  0  0  0
 19 34  1  0  0  0  0
 20 35  1  0  0  0  0
 22 36  1  0  0  0  0
 23 37  1  0  0  0  0
 24 38  1  0  0  0  0
 25 39  1  0  0  0  0
 25 40  1  0  0  0  0
 25 41  1  0  0  0  0
M  END
$$$$
