C19H24O6
APtclcactv06281817433D 0   0.00000     0.00000
 
 49 53  0  0  0  0  0  0  0  0999 V2000
    3.1738    1.7117   -0.4613 C   0  0  0  0  0  0  0  0  0  0  0  0
    2.6625    0.2753   -0.3338 C   0  0  0  0  0  0  0  0  0  0  0  0
    3.7004   -0.7826   -0.7675 C   0  0  0  0  0  0  0  0  0  0  0  0
    3.2241   -2.1859   -0.3961 C   0  0  0  0  0  0  0  0  0  0  0  0
    1.7948   -2.4430   -0.9025 C   0  0  0  0  0  0  0  0  0  0  0  0
    0.9284   -1.2977   -0.4220 C   0  0  0  0  0  0  0  0  0  0  0  0
    1.4102   -0.0110   -1.1946 C   0  0  0  0  0  0  0  0  0  0  0  0
    0.2740    0.9965   -0.9347 C   0  0  0  0  0  0  0  0  0  0  0  0
   -0.9483    0.1599   -0.5787 C   0  0  0  0  0  0  0  0  0  0  0  0
   -0.5387   -1.3132   -0.7487 C   0  0  0  0  0  0  0  0  0  0  0  0
   -1.4368   -2.3136   -0.1278 C   0  0  0  0  0  0  0  0  0  0  0  0
   -2.3666   -1.8521    0.9714 C   0  0  0  0  0  0  0  0  0  0  0  0
   -2.7153   -0.3686    0.8915 C   0  0  0  0  0  0  0  0  0  0  0  0
   -1.3588    0.3918    0.8928 C   0  0  0  0  0  0  0  0  0  0  0  0
   -3.3450   -0.0277   -0.4463 C   0  0  0  0  0  0  0  0  0  0  0  0
   -4.6176   -0.1028   -0.7475 C   0  0  0  0  0  0  0  0  0  0  0  0
   -2.2205    0.4188   -1.3750 C   0  0  0  0  0  0  0  0  0  0  0  0
   -2.3457    1.8096   -1.6783 O   0  0  0  0  0  0  0  0  0  0  0  0
   -3.5391    0.0308    1.9887 O   0  0  0  0  0  0  0  0  0  0  0  0
    0.6357    1.9036    0.2131 C   0  0  0  0  0  0  0  0  0  0  0  0
    0.6382    1.4762    1.3432 O   0  0  0  0  0  0  0  0  0  0  0  0
    0.9551    3.1863   -0.0200 O   0  0  0  0  0  0  0  0  0  0  0  0
    1.2007   -0.9894    0.9702 O   0  0  0  0  0  0  0  0  0  0  0  0
    2.2216   -0.0855    1.0775 C   0  0  0  0  0  0  0  0  0  0  0  0
    2.6785    0.3410    2.1115 O   0  0  0  0  0  0  0  0  0  0  0  0
    3.0062    2.0682   -1.4777 H   0  0  0  0  0  0  0  0  0  0  0  0
    2.6392    2.3514    0.2408 H   0  0  0  0  0  0  0  0  0  0  0  0
    4.2403    1.7389   -0.2380 H   0  0  0  0  0  0  0  0  0  0  0  0
    3.8428   -0.7252   -1.8466 H   0  0  0  0  0  0  0  0  0  0  0  0
    4.6487   -0.5812   -0.2692 H   0  0  0  0  0  0  0  0  0  0  0  0
    3.8971   -2.9201   -0.8388 H   0  0  0  0  0  0  0  0  0  0  0  0
    3.2433   -2.2939    0.6884 H   0  0  0  0  0  0  0  0  0  0  0  0
    1.7892   -2.4796   -1.9919 H   0  0  0  0  0  0  0  0  0  0  0  0
    1.4224   -3.3840   -0.4977 H   0  0  0  0  0  0  0  0  0  0  0  0
    1.6304   -0.1764   -2.2492 H   0  0  0  0  0  0  0  0  0  0  0  0
    0.0795    1.5837   -1.8322 H   0  0  0  0  0  0  0  0  0  0  0  0
   -0.5956   -1.5024   -1.8206 H   0  0  0  0  0  0  0  0  0  0  0  0
   -2.0484   -2.7466   -0.9194 H   0  0  0  0  0  0  0  0  0  0  0  0
   -0.8144   -3.1114    0.2776 H   0  0  0  0  0  0  0  0  0  0  0  0
   -3.2885   -2.4308    0.9145 H   0  0  0  0  0  0  0  0  0  0  0  0
   -1.8937   -2.0480    1.9337 H   0  0  0  0  0  0  0  0  0  0  0  0
   -0.6472   -0.0628    1.5820 H   0  0  0  0  0  0  0  0  0  0  0  0
   -1.4957    1.4518    1.1066 H   0  0  0  0  0  0  0  0  0  0  0  0
   -5.3294   -0.4343   -0.0060 H   0  0  0  0  0  0  0  0  0  0  0  0
   -4.9551    0.1668   -1.7374 H   0  0  0  0  0  0  0  0  0  0  0  0
   -2.2244   -0.1734   -2.2901 H   0  0  0  0  0  0  0  0  0  0  0  0
   -3.1655    2.0401   -2.1363 H   0  0  0  0  0  0  0  0  0  0  0  0
   -4.3771   -0.4483    2.0463 H   0  0  0  0  0  0  0  0  0  0  0  0
    1.2485    3.7104    0.7378 H   0  0  0  0  0  0  0  0  0  0  0  0
  1  2  1  0  0  0  0
  2  3  1  0  0  0  0
  3  4  1  0  0  0  0
  4  5  1  0  0  0  0
  5  6  1  0  0  0  0
  6  7  1  0  0  0  0
  2  7  1  0  0  0  0
  7  8  1  0  0  0  0
  8  9  1  0  0  0  0
  9 10  1  0  0  0  0
  6 10  1  0  0  0  0
 10 11  1  0  0  0  0
 11 12  1  0  0  0  0
 12 13  1  0  0  0  0
 13 14  1  0  0  0  0
  9 14  1  0  0  0  0
 13 15  1  0  0  0  0
 15 16  2  0  0  0  0
 15 17  1  0  0  0  0
  9 17  1  0  0  0  0
 17 18  1  0  0  0  0
 13 19  1  0  0  0  0
  8 20  1  0  0  0  0
 20 21  2  0  0  0  0
 20 22  1  0  0  0  0
  6 23  1  0  0  0  0
 23 24  1  0  0  0  0
  2 24  1  0  0  0  0
 24 25  2  0  0  0  0
  1 26  1  0  0  0  0
  1 27  1  0  0  0  0
  1 28  1  0  0  0  0
  3 29  1  0  0  0  0
  3 30  1  0  0  0  0
  4 31  1  0  0  0  0
  4 32  1  0  0  0  0
  5 33  1  0  0  0  0
  5 34  1  0  0  0  0
  7 35  1  0  0  0  0
  8 36  1  0  0  0  0
 10 37  1  0  0  0  0
 11 38  1  0  0  0  0
 11 39  1  0  0  0  0
 12 40  1  0  0  0  0
 12 41  1  0  0  0  0
 14 42  1  0  0  0  0
 14 43  1  0  0  0  0
 16 44  1  0  0  0  0
 16 45  1  0  0  0  0
 17 46  1  0  0  0  0
 18 47  1  0  0  0  0
 19 48  1  0  0  0  0
 22 49  1  0  0  0  0
M  END
$$$$
