C19H24O5
APtclcactv06281817433D 0   0.00000     0.00000
 
 48 52  0  0  0  0  0  0  0  0999 V2000
    2.9580    1.7123   -0.6199 C   0  0  0  0  0  0  0  0  0  0  0  0
    2.4595    0.2759   -0.4496 C   0  0  0  0  0  0  0  0  0  0  0  0
    3.4564   -0.7818   -0.9712 C   0  0  0  0  0  0  0  0  0  0  0  0
    3.0137   -2.1853   -0.5609 C   0  0  0  0  0  0  0  0  0  0  0  0
    1.5463   -2.4422   -0.9430 C   0  0  0  0  0  0  0  0  0  0  0  0
    0.7242   -1.2972   -0.3894 C   0  0  0  0  0  0  0  0  0  0  0  0
    1.1379   -0.0102   -1.1999 C   0  0  0  0  0  0  0  0  0  0  0  0
    0.0282    0.9972   -0.8431 C   0  0  0  0  0  0  0  0  0  0  0  0
   -1.1590    0.1604   -0.3839 C   0  0  0  0  0  0  0  0  0  0  0  0
   -0.7655   -1.3126   -0.5890 C   0  0  0  0  0  0  0  0  0  0  0  0
   -1.6070   -2.3134    0.1061 C   0  0  0  0  0  0  0  0  0  0  0  0
   -2.4391   -1.8523    1.2812 C   0  0  0  0  0  0  0  0  0  0  0  0
   -2.7934   -0.3689    1.2322 C   0  0  0  0  0  0  0  0  0  0  0  0
   -1.4418    0.3916    1.1174 C   0  0  0  0  0  0  0  0  0  0  0  0
   -3.5355   -0.0274   -0.0465 C   0  0  0  0  0  0  0  0  0  0  0  0
   -4.8293   -0.1024   -0.2375 C   0  0  0  0  0  0  0  0  0  0  0  0
   -2.4949    0.4196   -1.0681 C   0  0  0  0  0  0  0  0  0  0  0  0
   -2.6456    1.8105   -1.3589 O   0  0  0  0  0  0  0  0  0  0  0  0
    0.4870    1.9038    0.2698 C   0  0  0  0  0  0  0  0  0  0  0  0
    0.5864    1.4759    1.3954 O   0  0  0  0  0  0  0  0  0  0  0  0
    0.7853    3.1866    0.0107 O   0  0  0  0  0  0  0  0  0  0  0  0
    1.1149   -0.9895    0.9745 O   0  0  0  0  0  0  0  0  0  0  0  0
    2.1413   -0.0856    0.9941 C   0  0  0  0  0  0  0  0  0  0  0  0
    2.6852    0.3405    1.9853 O   0  0  0  0  0  0  0  0  0  0  0  0
    2.7038    2.0692   -1.6180 H   0  0  0  0  0  0  0  0  0  0  0  0
    2.4855    2.3517    0.1258 H   0  0  0  0  0  0  0  0  0  0  0  0
    4.0397    1.7394   -0.4889 H   0  0  0  0  0  0  0  0  0  0  0  0
    3.5057   -0.7240   -2.0586 H   0  0  0  0  0  0  0  0  0  0  0  0
    4.4439   -0.5806   -0.5560 H   0  0  0  0  0  0  0  0  0  0  0  0
    3.6462   -2.9193   -1.0600 H   0  0  0  0  0  0  0  0  0  0  0  0
    3.1258   -2.2938    0.5179 H   0  0  0  0  0  0  0  0  0  0  0  0
    1.4472   -2.4784   -2.0279 H   0  0  0  0  0  0  0  0  0  0  0  0
    1.2099   -3.3834   -0.5082 H   0  0  0  0  0  0  0  0  0  0  0  0
    1.2669   -0.1751   -2.2696 H   0  0  0  0  0  0  0  0  0  0  0  0
   -0.2426    1.5848   -1.7203 H   0  0  0  0  0  0  0  0  0  0  0  0
   -0.9141   -1.5013   -1.6522 H   0  0  0  0  0  0  0  0  0  0  0  0
   -2.2842   -2.7460   -0.6303 H   0  0  0  0  0  0  0  0  0  0  0  0
   -0.9521   -3.1113    0.4563 H   0  0  0  0  0  0  0  0  0  0  0  0
   -3.3625   -2.4311    1.3034 H   0  0  0  0  0  0  0  0  0  0  0  0
   -1.8853   -2.0487    2.1993 H   0  0  0  0  0  0  0  0  0  0  0  0
   -3.3476   -0.0646    2.1201 H   0  0  0  0  0  0  0  0  0  0  0  0
   -0.6736   -0.0633    1.7429 H   0  0  0  0  0  0  0  0  0  0  0  0
   -1.5598    1.4515    1.3427 H   0  0  0  0  0  0  0  0  0  0  0  0
   -5.4749   -0.4343    0.5623 H   0  0  0  0  0  0  0  0  0  0  0  0
   -5.2504    0.1675   -1.1946 H   0  0  0  0  0  0  0  0  0  0  0  0
   -2.5772   -0.1723   -1.9797 H   0  0  0  0  0  0  0  0  0  0  0  0
   -3.5017    2.0411   -1.7448 H   0  0  0  0  0  0  0  0  0  0  0  0
    1.1425    3.7104    0.7409 H   0  0  0  0  0  0  0  0  0  0  0  0
  1  2  1  0  0  0  0
  2  3  1  0  0  0  0
  3  4  1  0  0  0  0
  4  5  1  0  0  0  0
  5  6  1  0  0  0  0
  6  7  1  0  0  0  0
  2  7  1  0  0  0  0
  7  8  1  0  0  0  0
  8  9  1  0  0  0  0
  9 10  1  0  0  0  0
  6 10  1  0  0  0  0
 10 11  1  0  0  0  0
 11 12  1  0  0  0  0
 12 13  1  0  0  0  0
 13 14  1  0  0  0  0
  9 14  1  0  0  0  0
 13 15  1  0  0  0  0
 15 16  2  0  0  0  0
 15 17  1  0  0  0  0
  9 17  1  0  0  0  0
 17 18  1  0  0  0  0
  8 19  1  0  0  0  0
 19 20  2  0  0  0  0
 19 21  1  0  0  0  0
  6 22  1  0  0  0  0
 22 23  1  0  0  0  0
  2 23  1  0  0  0  0
 23 24  2  0  0  0  0
  1 25  1  0  0  0  0
  1 26  1  0  0  0  0
  1 27  1  0  0  0  0
  3 28  1  0  0  0  0
  3 29  1  0  0  0  0
  4 30  1  0  0  0  0
  4 31  1  0  0  0  0
  5 32  1  0  0  0  0
  5 33  1  0  0  0  0
  7 34  1  0  0  0  0
  8 35  1  0  0  0  0
 10 36  1  0  0  0  0
 11 37  1  0  0  0  0
 11 38  1  0  0  0  0
 12 39  1  0  0  0  0
 12 40  1  0  0  0  0
 13 41  1  0  0  0  0
 14 42  1  0  0  0  0
 14 43  1  0  0  0  0
 16 44  1  0  0  0  0
 16 45  1  0  0  0  0
 17 46  1  0  0  0  0
 18 47  1  0  0  0  0
 21 48  1  0  0  0  0
M  END
$$$$
