C20H28O6
APtclcactv06281817433D 0   0.00000     0.00000
 
 54 57  0  0  0  0  0  0  0  0999 V2000
    1.2027    1.2928    1.9020 C   0  0  0  0  0  0  0  0  0  0  0  0
    0.7658    1.4650    0.4477 C   0  0  0  0  0  0  0  0  0  0  0  0
    1.3925    2.7216   -0.1026 C   0  0  0  0  0  0  0  0  0  0  0  0
    2.9171    2.5374   -0.0583 C   0  0  0  0  0  0  0  0  0  0  0  0
    3.3539    1.3449   -0.8896 C   0  0  0  0  0  0  0  0  0  0  0  0
    2.6246    0.0315   -0.5615 C   0  0  0  0  0  0  0  0  0  0  0  0
    1.1537    0.2568   -0.4278 C   0  0  0  0  0  0  0  0  0  0  0  0
    0.2468   -0.8405    0.1638 C   0  0  0  0  0  0  0  0  0  0  0  0
   -1.0896   -0.0962    0.2272 C   0  0  0  0  0  0  0  0  0  0  0  0
   -0.7582    1.4000    0.4719 C   0  0  0  0  0  0  0  0  0  0  0  0
   -1.4435    2.2496   -0.5849 C   0  0  0  0  0  0  0  0  0  0  0  0
   -2.9572    1.9852   -0.5096 C   0  0  0  0  0  0  0  0  0  0  0  0
   -3.2225    0.4767   -0.6302 C   0  0  0  0  0  0  0  0  0  0  0  0
   -1.8881   -0.1865   -1.0878 C   0  0  0  0  0  0  0  0  0  0  0  0
   -3.4407   -0.0905    0.7687 C   0  0  0  0  0  0  0  0  0  0  0  0
   -4.5817   -0.1680    1.4086 C   0  0  0  0  0  0  0  0  0  0  0  0
   -2.0835   -0.5577    1.2858 C   0  0  0  0  0  0  0  0  0  0  0  0
   -2.0661   -1.9777    1.4196 O   0  0  0  0  0  0  0  0  0  0  0  0
   -4.3080    0.1800   -1.5141 O   0  0  0  0  0  0  0  0  0  0  0  0
    0.1579   -2.0558   -0.7186 C   0  0  0  0  0  0  0  0  0  0  0  0
    0.1758   -1.9324   -1.9204 O   0  0  0  0  0  0  0  0  0  0  0  0
    0.0587   -3.2772   -0.1707 O   0  0  0  0  0  0  0  0  0  0  0  0
    2.8911   -0.8988   -1.7768 C   0  0  0  0  0  0  0  0  0  0  0  0
    3.2561   -0.6293    0.6355 C   0  0  0  0  0  0  0  0  0  0  0  0
    2.5991   -0.8357    1.6284 O   0  0  0  0  0  0  0  0  0  0  0  0
    4.5488   -0.9890    0.5994 O   0  0  0  0  0  0  0  0  0  0  0  0
    0.8645    2.1483    2.4867 H   0  0  0  0  0  0  0  0  0  0  0  0
    0.7655    0.3802    2.3071 H   0  0  0  0  0  0  0  0  0  0  0  0
    2.2897    1.2271    1.9495 H   0  0  0  0  0  0  0  0  0  0  0  0
    1.0683    2.8804   -1.1326 H   0  0  0  0  0  0  0  0  0  0  0  0
    1.1037    3.5797    0.5068 H   0  0  0  0  0  0  0  0  0  0  0  0
    3.3782    3.4404   -0.4868 H   0  0  0  0  0  0  0  0  0  0  0  0
    3.2757    2.4466    0.9594 H   0  0  0  0  0  0  0  0  0  0  0  0
    3.1938    1.5735   -1.9484 H   0  0  0  0  0  0  0  0  0  0  0  0
    4.4281    1.1874   -0.7447 H   0  0  0  0  0  0  0  0  0  0  0  0
    0.7600    0.4581   -1.4580 H   0  0  0  0  0  0  0  0  0  0  0  0
    0.5665   -1.1328    1.1652 H   0  0  0  0  0  0  0  0  0  0  0  0
   -1.1024    1.6919    1.4654 H   0  0  0  0  0  0  0  0  0  0  0  0
   -1.2606    3.3096   -0.3699 H   0  0  0  0  0  0  0  0  0  0  0  0
   -1.0632    2.0261   -1.5759 H   0  0  0  0  0  0  0  0  0  0  0  0
   -3.3423    2.3527    0.4426 H   0  0  0  0  0  0  0  0  0  0  0  0
   -3.4575    2.5113   -1.3248 H   0  0  0  0  0  0  0  0  0  0  0  0
   -1.4209    0.3569   -1.9025 H   0  0  0  0  0  0  0  0  0  0  0  0
   -2.0928   -1.2196   -1.3873 H   0  0  0  0  0  0  0  0  0  0  0  0
   -5.4874    0.1916    0.9430 H   0  0  0  0  0  0  0  0  0  0  0  0
   -4.6163   -0.5915    2.4015 H   0  0  0  0  0  0  0  0  0  0  0  0
   -1.8624   -0.0832    2.2416 H   0  0  0  0  0  0  0  0  0  0  0  0
   -2.7153   -2.3215    2.0484 H   0  0  0  0  0  0  0  0  0  0  0  0
   -5.1493    0.5778   -1.2512 H   0  0  0  0  0  0  0  0  0  0  0  0
    0.0043   -4.0277   -0.7780 H   0  0  0  0  0  0  0  0  0  0  0  0
    3.9642   -0.9632   -1.9567 H   0  0  0  0  0  0  0  0  0  0  0  0
    2.4977   -1.8933   -1.5663 H   0  0  0  0  0  0  0  0  0  0  0  0
    2.3984   -0.4927   -2.6602 H   0  0  0  0  0  0  0  0  0  0  0  0
    4.9097   -1.4098    1.3917 H   0  0  0  0  0  0  0  0  0  0  0  0
  1  2  1  0  0  0  0
  2  3  1  0  0  0  0
  3  4  1  0  0  0  0
  4  5  1  0  0  0  0
  5  6  1  0  0  0  0
  6  7  1  0  0  0  0
  2  7  1  0  0  0  0
  7  8  1  0  0  0  0
  8  9  1  0  0  0  0
  9 10  1  0  0  0  0
  2 10  1  0  0  0  0
 10 11  1  0  0  0  0
 11 12  1  0  0  0  0
 12 13  1  0  0  0  0
 13 14  1  0  0  0  0
  9 14  1  0  0  0  0
 13 15  1  0  0  0  0
 15 16  2  0  0  0  0
 15 17  1  0  0  0  0
  9 17  1  0  0  0  0
 17 18  1  0  0  0  0
 13 19  1  0  0  0  0
  8 20  1  0  0  0  0
 20 21  2  0  0  0  0
 20 22  1  0  0  0  0
  6 23  1  0  0  0  0
  6 24  1  0  0  0  0
 24 25  2  0  0  0  0
 24 26  1  0  0  0  0
  1 27  1  0  0  0  0
  1 28  1  0  0  0  0
  1 29  1  0  0  0  0
  3 30  1  0  0  0  0
  3 31  1  0  0  0  0
  4 32  1  0  0  0  0
  4 33  1  0  0  0  0
  5 34  1  0  0  0  0
  5 35  1  0  0  0  0
  7 36  1  0  0  0  0
  8 37  1  0  0  0  0
 10 38  1  0  0  0  0
 11 39  1  0  0  0  0
 11 40  1  0  0  0  0
 12 41  1  0  0  0  0
 12 42  1  0  0  0  0
 14 43  1  0  0  0  0
 14 44  1  0  0  0  0
 16 45  1  0  0  0  0
 16 46  1  0  0  0  0
 17 47  1  0  0  0  0
 18 48  1  0  0  0  0
 19 49  1  0  0  0  0
 22 50  1  0  0  0  0
 23 51  1  0  0  0  0
 23 52  1  0  0  0  0
 23 53  1  0  0  0  0
 26 54  1  0  0  0  0
M  END
$$$$
