C15H24O2
APtclcactv06281817433D 0   0.00000     0.00000
 
 41 42  0  0  0  0  0  0  0  0999 V2000
    1.9426    1.6165    0.7292 C   0  0  0  0  0  0  0  0  0  0  0  0
    1.2544    0.8720   -0.4167 C   0  0  0  0  0  0  0  0  0  0  0  0
    2.2707    0.5938   -1.5217 C   0  0  0  0  0  0  0  0  0  0  0  0
    3.4629   -0.1688   -0.9380 C   0  0  0  0  0  0  0  0  0  0  0  0
    2.9995   -1.5276   -0.4049 C   0  0  0  0  0  0  0  0  0  0  0  0
    1.8561   -1.3095    0.5639 C   0  0  0  0  0  0  0  0  0  0  0  0
    1.8719   -1.8416    1.7608 C   0  0  0  0  0  0  0  0  0  0  0  0
    0.6970   -0.4574    0.1037 C   0  0  0  0  0  0  0  0  0  0  0  0
   -0.2553   -0.1779    1.2655 C   0  0  0  0  0  0  0  0  0  0  0  0
   -1.4141    0.6882    0.7628 C   0  0  0  0  0  0  0  0  0  0  0  0
   -0.8745    2.0057    0.2050 C   0  0  0  0  0  0  0  0  0  0  0  0
    0.0953    1.7158   -0.9447 C   0  0  0  0  0  0  0  0  0  0  0  0
   -2.1557   -0.0487   -0.3226 C   0  0  0  0  0  0  0  0  0  0  0  0
   -2.4067    0.5445   -1.4633 C   0  0  0  0  0  0  0  0  0  0  0  0
   -2.6086   -1.4681   -0.0958 C   0  0  0  0  0  0  0  0  0  0  0  0
   -3.3876   -1.9036   -1.2118 O   0  0  0  0  0  0  0  0  0  0  0  0
   -2.3070    0.9609    1.8447 O   0  0  0  0  0  0  0  0  0  0  0  0
    2.3462    2.5591    0.3596 H   0  0  0  0  0  0  0  0  0  0  0  0
    1.2187    1.8161    1.5193 H   0  0  0  0  0  0  0  0  0  0  0  0
    2.7531    1.0046    1.1251 H   0  0  0  0  0  0  0  0  0  0  0  0
    1.8031   -0.0056   -2.3028 H   0  0  0  0  0  0  0  0  0  0  0  0
    2.6148    1.5376   -1.9448 H   0  0  0  0  0  0  0  0  0  0  0  0
    4.2115   -0.3208   -1.7156 H   0  0  0  0  0  0  0  0  0  0  0  0
    3.8998    0.4099   -0.1241 H   0  0  0  0  0  0  0  0  0  0  0  0
    2.6620   -2.1493   -1.2341 H   0  0  0  0  0  0  0  0  0  0  0  0
    3.8253   -2.0189    0.1097 H   0  0  0  0  0  0  0  0  0  0  0  0
    2.7102   -2.4477    2.0713 H   0  0  0  0  0  0  0  0  0  0  0  0
    1.0467   -1.6743    2.4372 H   0  0  0  0  0  0  0  0  0  0  0  0
    0.1636   -0.9685   -0.6978 H   0  0  0  0  0  0  0  0  0  0  0  0
   -0.6447   -1.1195    1.6525 H   0  0  0  0  0  0  0  0  0  0  0  0
    0.2785    0.3500    2.0557 H   0  0  0  0  0  0  0  0  0  0  0  0
   -1.7037    2.6092   -0.1642 H   0  0  0  0  0  0  0  0  0  0  0  0
   -0.3570    2.5488    0.9958 H   0  0  0  0  0  0  0  0  0  0  0  0
    0.4885    2.6543   -1.3355 H   0  0  0  0  0  0  0  0  0  0  0  0
   -0.4277    1.1799   -1.7367 H   0  0  0  0  0  0  0  0  0  0  0  0
   -2.8389   -0.0153   -2.2795 H   0  0  0  0  0  0  0  0  0  0  0  0
   -2.1814    1.5934   -1.5875 H   0  0  0  0  0  0  0  0  0  0  0  0
   -1.7376   -2.1142    0.0137 H   0  0  0  0  0  0  0  0  0  0  0  0
   -3.2129   -1.5163    0.8101 H   0  0  0  0  0  0  0  0  0  0  0  0
   -3.7133   -2.8108   -1.1340 H   0  0  0  0  0  0  0  0  0  0  0  0
   -3.0670    1.5062    1.5995 H   0  0  0  0  0  0  0  0  0  0  0  0
  1  2  1  0  0  0  0
  2  3  1  0  0  0  0
  3  4  1  0  0  0  0
  4  5  1  0  0  0  0
  5  6  1  0  0  0  0
  6  7  2  0  0  0  0
  6  8  1  0  0  0  0
  2  8  1  0  0  0  0
  8  9  1  0  0  0  0
  9 10  1  0  0  0  0
 10 11  1  0  0  0  0
 11 12  1  0  0  0  0
  2 12  1  0  0  0  0
 10 13  1  0  0  0  0
 13 14  2  0  0  0  0
 13 15  1  0  0  0  0
 15 16  1  0  0  0  0
 10 17  1  0  0  0  0
  1 18  1  0  0  0  0
  1 19  1  0  0  0  0
  1 20  1  0  0  0  0
  3 21  1  0  0  0  0
  3 22  1  0  0  0  0
  4 23  1  0  0  0  0
  4 24  1  0  0  0  0
  5 25  1  0  0  0  0
  5 26  1  0  0  0  0
  7 27  1  0  0  0  0
  7 28  1  0  0  0  0
  8 29  1  0  0  0  0
  9 30  1  0  0  0  0
  9 31  1  0  0  0  0
 11 32  1  0  0  0  0
 11 33  1  0  0  0  0
 12 34  1  0  0  0  0
 12 35  1  0  0  0  0
 14 36  1  0  0  0  0
 14 37  1  0  0  0  0
 15 38  1  0  0  0  0
 15 39  1  0  0  0  0
 16 40  1  0  0  0  0
 17 41  1  0  0  0  0
M  END
$$$$
