C19H24O7
APtclcactv06281817423D 0   0.00000     0.00000
 
 50 54  0  0  0  0  0  0  0  0999 V2000
    2.9625    1.8251   -0.2743 C   0  0  0  0  0  0  0  0  0  0  0  0
    2.4895    0.3842   -0.0720 C   0  0  0  0  0  0  0  0  0  0  0  0
    3.5917   -0.6633   -0.3410 C   0  0  0  0  0  0  0  0  0  0  0  0
    3.1334   -2.0512    0.1038 C   0  0  0  0  0  0  0  0  0  0  0  0
    1.7571   -2.4009   -0.4867 C   0  0  0  0  0  0  0  0  0  0  0  0
    0.8192   -1.2562   -0.1651 C   0  0  0  0  0  0  0  0  0  0  0  0
    1.3180   -0.0150   -0.9990 C   0  0  0  0  0  0  0  0  0  0  0  0
    0.1331    0.9652   -0.9061 C   0  0  0  0  0  0  0  0  0  0  0  0
   -1.0856    0.1122   -0.5777 C   0  0  0  0  0  0  0  0  0  0  0  0
   -0.6167   -1.3529   -0.5989 C   0  0  0  0  0  0  0  0  0  0  0  0
   -1.5276   -2.3364    0.0301 C   0  0  0  0  0  0  0  0  0  0  0  0
   -2.5547   -1.8279    1.0162 C   0  0  0  0  0  0  0  0  0  0  0  0
   -2.9439   -0.3694    0.7928 C   0  0  0  0  0  0  0  0  0  0  0  0
   -1.6168    0.4403    0.8357 C   0  0  0  0  0  0  0  0  0  0  0  0
   -3.4780   -0.1564   -0.6113 C   0  0  0  0  0  0  0  0  0  0  0  0
   -4.7202   -0.3031   -1.0005 C   0  0  0  0  0  0  0  0  0  0  0  0
   -2.2996    0.2603   -1.4854 C   0  0  0  0  0  0  0  0  0  0  0  0
   -2.4456    1.6180   -1.9067 O   0  0  0  0  0  0  0  0  0  0  0  0
   -3.8631    0.0812    1.7898 O   0  0  0  0  0  0  0  0  0  0  0  0
    0.3747    1.9708    0.1900 C   0  0  0  0  0  0  0  0  0  0  0  0
    0.3028    1.6317    1.3475 O   0  0  0  0  0  0  0  0  0  0  0  0
    0.6697    3.2431   -0.1195 O   0  0  0  0  0  0  0  0  0  0  0  0
    0.9721   -0.8319    1.2148 O   0  0  0  0  0  0  0  0  0  0  0  0
    1.9518    0.1160    1.3264 C   0  0  0  0  0  0  0  0  0  0  0  0
    2.3127    0.6378    2.3547 O   0  0  0  0  0  0  0  0  0  0  0  0
    3.8856   -0.6897   -1.7392 O   0  0  0  0  0  0  0  0  0  0  0  0
    2.8631    2.0959   -1.3254 H   0  0  0  0  0  0  0  0  0  0  0  0
    2.3544    2.4958    0.3327 H   0  0  0  0  0  0  0  0  0  0  0  0
    4.0070    1.9101    0.0256 H   0  0  0  0  0  0  0  0  0  0  0  0
    4.4912   -0.3881    0.2096 H   0  0  0  0  0  0  0  0  0  0  0  0
    3.8623   -2.7909   -0.2274 H   0  0  0  0  0  0  0  0  0  0  0  0
    3.0715   -2.0749    1.1918 H   0  0  0  0  0  0  0  0  0  0  0  0
    1.8375   -2.5212   -1.5670 H   0  0  0  0  0  0  0  0  0  0  0  0
    1.3848   -3.3217   -0.0376 H   0  0  0  0  0  0  0  0  0  0  0  0
    1.6250   -0.2523   -2.0176 H   0  0  0  0  0  0  0  0  0  0  0  0
   -0.0098    1.4740   -1.8594 H   0  0  0  0  0  0  0  0  0  0  0  0
   -0.5837   -1.6257   -1.6536 H   0  0  0  0  0  0  0  0  0  0  0  0
   -2.0613   -2.8519   -0.7683 H   0  0  0  0  0  0  0  0  0  0  0  0
   -0.9133   -3.0763    0.5432 H   0  0  0  0  0  0  0  0  0  0  0  0
   -3.4501   -2.4442    0.9363 H   0  0  0  0  0  0  0  0  0  0  0  0
   -2.1521   -1.9312    2.0239 H   0  0  0  0  0  0  0  0  0  0  0  0
   -0.9468    0.0674    1.6104 H   0  0  0  0  0  0  0  0  0  0  0  0
   -1.8042    1.5075    0.9538 H   0  0  0  0  0  0  0  0  0  0  0  0
   -5.4766   -0.6037   -0.2906 H   0  0  0  0  0  0  0  0  0  0  0  0
   -4.9880   -0.1233   -2.0312 H   0  0  0  0  0  0  0  0  0  0  0  0
   -2.2130   -0.4001   -2.3483 H   0  0  0  0  0  0  0  0  0  0  0  0
   -3.2343    1.7811   -2.4419 H   0  0  0  0  0  0  0  0  0  0  0  0
   -4.6871   -0.4239    1.8221 H   0  0  0  0  0  0  0  0  0  0  0  0
    0.8860    3.8346    0.6142 H   0  0  0  0  0  0  0  0  0  0  0  0
    4.5709   -1.3260   -1.9852 H   0  0  0  0  0  0  0  0  0  0  0  0
  1  2  1  0  0  0  0
  2  3  1  0  0  0  0
  3  4  1  0  0  0  0
  4  5  1  0  0  0  0
  5  6  1  0  0  0  0
  6  7  1  0  0  0  0
  2  7  1  0  0  0  0
  7  8  1  0  0  0  0
  8  9  1  0  0  0  0
  9 10  1  0  0  0  0
  6 10  1  0  0  0  0
 10 11  1  0  0  0  0
 11 12  1  0  0  0  0
 12 13  1  0  0  0  0
 13 14  1  0  0  0  0
  9 14  1  0  0  0  0
 13 15  1  0  0  0  0
 15 16  2  0  0  0  0
 15 17  1  0  0  0  0
  9 17  1  0  0  0  0
 17 18  1  0  0  0  0
 13 19  1  0  0  0  0
  8 20  1  0  0  0  0
 20 21  2  0  0  0  0
 20 22  1  0  0  0  0
  6 23  1  0  0  0  0
 23 24  1  0  0  0  0
  2 24  1  0  0  0  0
 24 25  2  0  0  0  0
  3 26  1  0  0  0  0
  1 27  1  0  0  0  0
  1 28  1  0  0  0  0
  1 29  1  0  0  0  0
  3 30  1  0  0  0  0
  4 31  1  0  0  0  0
  4 32  1  0  0  0  0
  5 33  1  0  0  0  0
  5 34  1  0  0  0  0
  7 35  1  0  0  0  0
  8 36  1  0  0  0  0
 10 37  1  0  0  0  0
 11 38  1  0  0  0  0
 11 39  1  0  0  0  0
 12 40  1  0  0  0  0
 12 41  1  0  0  0  0
 14 42  1  0  0  0  0
 14 43  1  0  0  0  0
 16 44  1  0  0  0  0
 16 45  1  0  0  0  0
 17 46  1  0  0  0  0
 18 47  1  0  0  0  0
 19 48  1  0  0  0  0
 22 49  1  0  0  0  0
 26 50  1  0  0  0  0
M  END
$$$$
