C16H14O6
APtclcactv06281817433D 0   0.00000     0.00000
 
 36 38  0  0  0  0  0  0  0  0999 V2000
   -0.9618    4.3002    0.1876 C   0  0  0  0  0  0  0  0  0  0  0  0
   -0.8869    3.0181    0.8143 O   0  0  0  0  0  0  0  0  0  0  0  0
    0.1071    2.1559    0.2571 C   0  0  0  0  0  0  0  0  0  0  0  0
    0.6410    1.2056    1.3388 C   0  0  0  0  0  0  0  0  0  0  0  0
   -0.4320    0.4066    1.8369 O   0  0  0  0  0  0  0  0  0  0  0  0
   -1.1981   -0.2756    0.9535 C   0  0  0  0  0  0  0  0  0  0  0  0
   -1.9121   -1.3847    1.3706 C   0  0  0  0  0  0  0  0  0  0  0  0
   -2.7051   -2.0848    0.4700 C   0  0  0  0  0  0  0  0  0  0  0  0
   -2.7944   -1.6835   -0.8569 C   0  0  0  0  0  0  0  0  0  0  0  0
   -2.0876   -0.5777   -1.2957 C   0  0  0  0  0  0  0  0  0  0  0  0
   -1.2803    0.1300   -0.3918 C   0  0  0  0  0  0  0  0  0  0  0  0
   -0.5067    1.2959   -0.8330 C   0  0  0  0  0  0  0  0  0  0  0  0
   -0.3648    1.5593   -2.0093 O   0  0  0  0  0  0  0  0  0  0  0  0
   -2.1736   -0.1814   -2.5898 O   0  0  0  0  0  0  0  0  0  0  0  0
   -3.3991   -3.1720    0.8907 O   0  0  0  0  0  0  0  0  0  0  0  0
    1.6998    0.3123    0.7455 C   0  0  0  0  0  0  0  0  0  0  0  0
    2.8653    0.8622    0.2446 C   0  0  0  0  0  0  0  0  0  0  0  0
    3.8375    0.0455   -0.2998 C   0  0  0  0  0  0  0  0  0  0  0  0
    3.6435   -1.3275   -0.3437 C   0  0  0  0  0  0  0  0  0  0  0  0
    2.4731   -1.8768    0.1595 C   0  0  0  0  0  0  0  0  0  0  0  0
    1.5065   -1.0563    0.7080 C   0  0  0  0  0  0  0  0  0  0  0  0
    4.5981   -2.1330   -0.8791 O   0  0  0  0  0  0  0  0  0  0  0  0
   -0.0030    4.8092    0.2858 H   0  0  0  0  0  0  0  0  0  0  0  0
   -1.2002    4.1749   -0.8686 H   0  0  0  0  0  0  0  0  0  0  0  0
   -1.7394    4.8944    0.6676 H   0  0  0  0  0  0  0  0  0  0  0  0
    0.9249    2.7488   -0.1526 H   0  0  0  0  0  0  0  0  0  0  0  0
    1.0704    1.7873    2.1544 H   0  0  0  0  0  0  0  0  0  0  0  0
   -1.8525   -1.7074    2.3995 H   0  0  0  0  0  0  0  0  0  0  0  0
   -3.4157   -2.2352   -1.5468 H   0  0  0  0  0  0  0  0  0  0  0  0
   -2.8836    0.4526   -2.7606 H   0  0  0  0  0  0  0  0  0  0  0  0
   -4.2873   -2.9702    1.2156 H   0  0  0  0  0  0  0  0  0  0  0  0
    3.0157    1.9311    0.2787 H   0  0  0  0  0  0  0  0  0  0  0  0
    4.7476    0.4755   -0.6912 H   0  0  0  0  0  0  0  0  0  0  0  0
    2.3198   -2.9453    0.1265 H   0  0  0  0  0  0  0  0  0  0  0  0
    0.5952   -1.4834    1.0999 H   0  0  0  0  0  0  0  0  0  0  0  0
    5.2533   -2.4450   -0.2400 H   0  0  0  0  0  0  0  0  0  0  0  0
  1  2  1  0  0  0  0
  2  3  1  0  0  0  0
  3  4  1  0  0  0  0
  4  5  1  0  0  0  0
  5  6  1  0  0  0  0
  6  7  2  0  0  0  0
  7  8  1  0  0  0  0
  8  9  2  0  0  0  0
  9 10  1  0  0  0  0
 10 11  2  0  0  0  0
  6 11  1  0  0  0  0
 11 12  1  0  0  0  0
  3 12  1  0  0  0  0
 12 13  2  0  0  0  0
 10 14  1  0  0  0  0
  8 15  1  0  0  0  0
  4 16  1  0  0  0  0
 16 17  2  0  0  0  0
 17 18  1  0  0  0  0
 18 19  2  0  0  0  0
 19 20  1  0  0  0  0
 20 21  2  0  0  0  0
 16 21  1  0  0  0  0
 19 22  1  0  0  0  0
  1 23  1  0  0  0  0
  1 24  1  0  0  0  0
  1 25  1  0  0  0  0
  3 26  1  0  0  0  0
  4 27  1  0  0  0  0
  7 28  1  0  0  0  0
  9 29  1  0  0  0  0
 14 30  1  0  0  0  0
 15 31  1  0  0  0  0
 17 32  1  0  0  0  0
 18 33  1  0  0  0  0
 20 34  1  0  0  0  0
 21 35  1  0  0  0  0
 22 36  1  0  0  0  0
M  END
$$$$
