C20H25NO3
APtclcactv06281817433D 0   0.00000     0.00000
 
 49 51  0  0  0  0  0  0  0  0999 V2000
   -7.9219   -2.6305    0.2208 C   0  0  0  0  0  0  0  0  0  0  0  0
   -9.1356   -1.6851    0.0194 C   0  0  0  0  0  0  0  0  0  0  0  0
   -8.4729   -0.3570   -0.4032 C   0  0  0  0  0  0  0  0  0  0  0  0
   -7.0838   -0.3901    0.0774 N   0  0  0  0  0  0  0  0  0  0  0  0
   -6.8623   -1.6579    0.7964 C   0  0  0  0  0  0  0  0  0  0  0  0
   -6.1648    0.5780   -0.1093 C   0  0  0  0  0  0  0  0  0  0  0  0
   -6.4597    1.5864   -0.7218 O   0  0  0  0  0  0  0  0  0  0  0  0
   -4.8051    0.4148    0.4278 C   0  0  0  0  0  0  0  0  0  0  0  0
   -3.8983    1.3700    0.2436 C   0  0  0  0  0  0  0  0  0  0  0  0
   -2.5054    1.2029    0.7939 C   0  0  0  0  0  0  0  0  0  0  0  0
   -1.4872    1.3711   -0.3357 C   0  0  0  0  0  0  0  0  0  0  0  0
   -0.0730    1.2013    0.2229 C   0  0  0  0  0  0  0  0  0  0  0  0
    0.9452    1.3696   -0.9067 C   0  0  0  0  0  0  0  0  0  0  0  0
    2.3381    1.2024   -0.3564 C   0  0  0  0  0  0  0  0  0  0  0  0
    3.1589    0.3082   -0.8902 C   0  0  0  0  0  0  0  0  0  0  0  0
    4.5249    0.1443   -0.3506 C   0  0  0  0  0  0  0  0  0  0  0  0
    5.3900   -0.7962   -0.9111 C   0  0  0  0  0  0  0  0  0  0  0  0
    6.6674   -0.9469   -0.4035 C   0  0  0  0  0  0  0  0  0  0  0  0
    7.0888   -0.1593    0.6670 C   0  0  0  0  0  0  0  0  0  0  0  0
    6.2277    0.7752    1.2234 C   0  0  0  0  0  0  0  0  0  0  0  0
    4.9546    0.9337    0.7171 C   0  0  0  0  0  0  0  0  0  0  0  0
    8.3747   -0.4975    0.9765 O   0  0  0  0  0  0  0  0  0  0  0  0
    8.8731   -1.2071   -0.1728 C   0  0  0  0  0  0  0  0  0  0  0  0
    7.6900   -1.7769   -0.7631 O   0  0  0  0  0  0  0  0  0  0  0  0
   -8.1560   -3.4202    0.9347 H   0  0  0  0  0  0  0  0  0  0  0  0
   -7.5916   -3.0502   -0.7293 H   0  0  0  0  0  0  0  0  0  0  0  0
   -9.7884   -2.0585   -0.7696 H   0  0  0  0  0  0  0  0  0  0  0  0
   -9.6870   -1.5616    0.9514 H   0  0  0  0  0  0  0  0  0  0  0  0
   -8.4873   -0.2646   -1.4891 H   0  0  0  0  0  0  0  0  0  0  0  0
   -9.0019    0.4817    0.0494 H   0  0  0  0  0  0  0  0  0  0  0  0
   -7.0164   -1.5191    1.8665 H   0  0  0  0  0  0  0  0  0  0  0  0
   -5.8576   -2.0335    0.6024 H   0  0  0  0  0  0  0  0  0  0  0  0
   -4.5433   -0.4807    0.9718 H   0  0  0  0  0  0  0  0  0  0  0  0
   -4.1602    2.2655   -0.3003 H   0  0  0  0  0  0  0  0  0  0  0  0
   -2.3249    1.9560    1.5608 H   0  0  0  0  0  0  0  0  0  0  0  0
   -2.4037    0.2089    1.2296 H   0  0  0  0  0  0  0  0  0  0  0  0
   -1.6677    0.6179   -1.1027 H   0  0  0  0  0  0  0  0  0  0  0  0
   -1.5889    2.3650   -0.7715 H   0  0  0  0  0  0  0  0  0  0  0  0
    0.1075    1.9545    0.9899 H   0  0  0  0  0  0  0  0  0  0  0  0
    0.0287    0.2074    0.6587 H   0  0  0  0  0  0  0  0  0  0  0  0
    0.7647    0.6164   -1.6736 H   0  0  0  0  0  0  0  0  0  0  0  0
    0.8435    2.3635   -1.3424 H   0  0  0  0  0  0  0  0  0  0  0  0
    2.6678    1.8109    0.4727 H   0  0  0  0  0  0  0  0  0  0  0  0
    2.8292   -0.3003   -1.7193 H   0  0  0  0  0  0  0  0  0  0  0  0
    5.0622   -1.4060   -1.7400 H   0  0  0  0  0  0  0  0  0  0  0  0
    6.5568    1.3837    2.0528 H   0  0  0  0  0  0  0  0  0  0  0  0
    4.2871    1.6625    1.1526 H   0  0  0  0  0  0  0  0  0  0  0  0
    9.3549   -0.5195   -0.8680 H   0  0  0  0  0  0  0  0  0  0  0  0
    9.5651   -1.9921    0.1323 H   0  0  0  0  0  0  0  0  0  0  0  0
  1  2  1  0  0  0  0
  2  3  1  0  0  0  0
  3  4  1  0  0  0  0
  4  5  1  0  0  0  0
  1  5  1  0  0  0  0
  4  6  1  0  0  0  0
  6  7  2  0  0  0  0
  6  8  1  0  0  0  0
  8  9  2  0  0  0  0
  9 10  1  0  0  0  0
 10 11  1  0  0  0  0
 11 12  1  0  0  0  0
 12 13  1  0  0  0  0
 13 14  1  0  0  0  0
 14 15  2  0  0  0  0
 15 16  1  0  0  0  0
 16 17  2  0  0  0  0
 17 18  1  0  0  0  0
 18 19  2  0  0  0  0
 19 20  1  0  0  0  0
 20 21  2  0  0  0  0
 16 21  1  0  0  0  0
 19 22  1  0  0  0  0
 22 23  1  0  0  0  0
 23 24  1  0  0  0  0
 18 24  1  0  0  0  0
  1 25  1  0  0  0  0
  1 26  1  0  0  0  0
  2 27  1  0  0  0  0
  2 28  1  0  0  0  0
  3 29  1  0  0  0  0
  3 30  1  0  0  0  0
  5 31  1  0  0  0  0
  5 32  1  0  0  0  0
  8 33  1  0  0  0  0
  9 34  1  0  0  0  0
 10 35  1  0  0  0  0
 10 36  1  0  0  0  0
 11 37  1  0  0  0  0
 11 38  1  0  0  0  0
 12 39  1  0  0  0  0
 12 40  1  0  0  0  0
 13 41  1  0  0  0  0
 13 42  1  0  0  0  0
 14 43  1  0  0  0  0
 15 44  1  0  0  0  0
 17 45  1  0  0  0  0
 20 46  1  0  0  0  0
 21 47  1  0  0  0  0
 23 48  1  0  0  0  0
 23 49  1  0  0  0  0
M  END
$$$$
