C20H26O6
APtclcactv06281817433D 0   0.00000     0.00000
 
 52 56  0  0  0  0  0  0  0  0999 V2000
    2.8775    1.7008    1.1867 C   0  0  0  0  0  0  0  0  0  0  0  0
    2.6493    0.3381    0.5296 C   0  0  0  0  0  0  0  0  0  0  0  0
    3.3523   -0.7837    1.3274 C   0  0  0  0  0  0  0  0  0  0  0  0
    3.1018   -2.1392    0.6705 C   0  0  0  0  0  0  0  0  0  0  0  0
    1.6016   -2.4426    0.5439 C   0  0  0  0  0  0  0  0  0  0  0  0
    0.9634   -1.3306   -0.2660 C   0  0  0  0  0  0  0  0  0  0  0  0
    1.1846   -0.0105    0.5127 C   0  0  0  0  0  0  0  0  0  0  0  0
    0.1978    0.9528   -0.1509 C   0  0  0  0  0  0  0  0  0  0  0  0
   -1.0414    0.0634   -0.2584 C   0  0  0  0  0  0  0  0  0  0  0  0
   -0.5523   -1.3969   -0.4239 C   0  0  0  0  0  0  0  0  0  0  0  0
   -1.2465   -2.2500    0.6315 C   0  0  0  0  0  0  0  0  0  0  0  0
   -2.7667   -2.1125    0.4335 C   0  0  0  0  0  0  0  0  0  0  0  0
   -3.1541   -0.6281    0.5671 C   0  0  0  0  0  0  0  0  0  0  0  0
   -1.8721    0.1130    1.0460 C   0  0  0  0  0  0  0  0  0  0  0  0
   -3.3857   -0.0723   -0.8341 C   0  0  0  0  0  0  0  0  0  0  0  0
   -4.5293   -0.0182   -1.4707 C   0  0  0  0  0  0  0  0  0  0  0  0
   -2.0360    0.4083   -1.3545 C   0  0  0  0  0  0  0  0  0  0  0  0
   -2.0631    1.8203   -1.5730 O   0  0  0  0  0  0  0  0  0  0  0  0
   -4.2656   -0.4290    1.4429 O   0  0  0  0  0  0  0  0  0  0  0  0
   -0.0662    2.1500    0.7253 C   0  0  0  0  0  0  0  0  0  0  0  0
   -0.0130    2.0423    1.9276 O   0  0  0  0  0  0  0  0  0  0  0  0
   -0.3604    3.3362    0.1702 O   0  0  0  0  0  0  0  0  0  0  0  0
    1.5885   -1.2363   -1.6582 C   0  0  0  0  0  0  0  0  0  0  0  0
    2.9793   -0.8322   -1.5808 O   0  0  0  0  0  0  0  0  0  0  0  0
    3.2181    0.3146   -0.8750 C   0  0  0  0  0  0  0  0  0  0  0  0
    3.8314    1.2412   -1.3496 O   0  0  0  0  0  0  0  0  0  0  0  0
    3.9474    1.8719    1.3063 H   0  0  0  0  0  0  0  0  0  0  0  0
    2.4526    2.4831    0.5578 H   0  0  0  0  0  0  0  0  0  0  0  0
    2.3953    1.7182    2.1640 H   0  0  0  0  0  0  0  0  0  0  0  0
    4.4244   -0.5890    1.3552 H   0  0  0  0  0  0  0  0  0  0  0  0
    2.9646   -0.7993    2.3459 H   0  0  0  0  0  0  0  0  0  0  0  0
    3.5496   -2.1405   -0.3233 H   0  0  0  0  0  0  0  0  0  0  0  0
    3.5721   -2.9175    1.2715 H   0  0  0  0  0  0  0  0  0  0  0  0
    1.4604   -3.3962    0.0351 H   0  0  0  0  0  0  0  0  0  0  0  0
    1.1491   -2.4828    1.5347 H   0  0  0  0  0  0  0  0  0  0  0  0
    0.8560   -0.1650    1.5404 H   0  0  0  0  0  0  0  0  0  0  0  0
    0.5491    1.2587   -1.1364 H   0  0  0  0  0  0  0  0  0  0  0  0
   -0.8044   -1.7603   -1.4202 H   0  0  0  0  0  0  0  0  0  0  0  0
   -0.9528   -3.2930    0.5133 H   0  0  0  0  0  0  0  0  0  0  0  0
   -0.9718   -1.9001    1.6266 H   0  0  0  0  0  0  0  0  0  0  0  0
   -3.0399   -2.4734   -0.5580 H   0  0  0  0  0  0  0  0  0  0  0  0
   -3.2880   -2.6957    1.1927 H   0  0  0  0  0  0  0  0  0  0  0  0
   -1.3780   -0.4289    1.8524 H   0  0  0  0  0  0  0  0  0  0  0  0
   -2.0925    1.1399    1.3377 H   0  0  0  0  0  0  0  0  0  0  0  0
   -5.4273   -0.3911   -1.0005 H   0  0  0  0  0  0  0  0  0  0  0  0
   -4.5743    0.3993   -2.4657 H   0  0  0  0  0  0  0  0  0  0  0  0
   -1.7786   -0.1130   -2.2764 H   0  0  0  0  0  0  0  0  0  0  0  0
   -2.7113    2.1038   -2.2323 H   0  0  0  0  0  0  0  0  0  0  0  0
   -5.0701   -0.8901    1.1685 H   0  0  0  0  0  0  0  0  0  0  0  0
   -0.5219    4.0750    0.7729 H   0  0  0  0  0  0  0  0  0  0  0  0
    1.5255   -2.2096   -2.1450 H   0  0  0  0  0  0  0  0  0  0  0  0
    1.0363   -0.5057   -2.2493 H   0  0  0  0  0  0  0  0  0  0  0  0
  1  2  1  0  0  0  0
  2  3  1  0  0  0  0
  3  4  1  0  0  0  0
  4  5  1  0  0  0  0
  5  6  1  0  0  0  0
  6  7  1  0  0  0  0
  2  7  1  0  0  0  0
  7  8  1  0  0  0  0
  8  9  1  0  0  0  0
  9 10  1  0  0  0  0
  6 10  1  0  0  0  0
 10 11  1  0  0  0  0
 11 12  1  0  0  0  0
 12 13  1  0  0  0  0
 13 14  1  0  0  0  0
  9 14  1  0  0  0  0
 13 15  1  0  0  0  0
 15 16  2  0  0  0  0
 15 17  1  0  0  0  0
  9 17  1  0  0  0  0
 17 18  1  0  0  0  0
 13 19  1  0  0  0  0
  8 20  1  0  0  0  0
 20 21  2  0  0  0  0
 20 22  1  0  0  0  0
  6 23  1  0  0  0  0
 23 24  1  0  0  0  0
 24 25  1  0  0  0  0
  2 25  1  0  0  0  0
 25 26  2  0  0  0  0
  1 27  1  0  0  0  0
  1 28  1  0  0  0  0
  1 29  1  0  0  0  0
  3 30  1  0  0  0  0
  3 31  1  0  0  0  0
  4 32  1  0  0  0  0
  4 33  1  0  0  0  0
  5 34  1  0  0  0  0
  5 35  1  0  0  0  0
  7 36  1  0  0  0  0
  8 37  1  0  0  0  0
 10 38  1  0  0  0  0
 11 39  1  0  0  0  0
 11 40  1  0  0  0  0
 12 41  1  0  0  0  0
 12 42  1  0  0  0  0
 14 43  1  0  0  0  0
 14 44  1  0  0  0  0
 16 45  1  0  0  0  0
 16 46  1  0  0  0  0
 17 47  1  0  0  0  0
 18 48  1  0  0  0  0
 19 49  1  0  0  0  0
 22 50  1  0  0  0  0
 23 51  1  0  0  0  0
 23 52  1  0  0  0  0
M  END
$$$$
