C18H16O7
APtclcactv06281817433D 0   0.00000     0.00000
 
 41 43  0  0  0  0  0  0  0  0999 V2000
    6.1282    2.2942    1.0602 C   0  0  0  0  0  0  0  0  0  0  0  0
    5.8420    1.0754    0.3712 O   0  0  0  0  0  0  0  0  0  0  0  0
    4.5421    0.6773    0.3347 C   0  0  0  0  0  0  0  0  0  0  0  0
    4.1941   -0.5010   -0.3202 C   0  0  0  0  0  0  0  0  0  0  0  0
    2.8719   -0.9066   -0.3577 C   0  0  0  0  0  0  0  0  0  0  0  0
    1.8909   -0.1337    0.2609 C   0  0  0  0  0  0  0  0  0  0  0  0
    2.2451    1.0449    0.9151 C   0  0  0  0  0  0  0  0  0  0  0  0
    3.5662    1.4426    0.9547 C   0  0  0  0  0  0  0  0  0  0  0  0
    0.4721   -0.5646    0.2227 C   0  0  0  0  0  0  0  0  0  0  0  0
    0.0715   -1.7053    0.8412 C   0  0  0  0  0  0  0  0  0  0  0  0
   -1.1882   -2.1411    0.8198 O   0  0  0  0  0  0  0  0  0  0  0  0
   -2.2031   -1.3308    0.4610 C   0  0  0  0  0  0  0  0  0  0  0  0
   -3.5151   -1.6769    0.7535 C   0  0  0  0  0  0  0  0  0  0  0  0
   -4.5560   -0.8458    0.3732 C   0  0  0  0  0  0  0  0  0  0  0  0
   -4.3052    0.3440   -0.3079 C   0  0  0  0  0  0  0  0  0  0  0  0
   -3.0021    0.7093   -0.6066 C   0  0  0  0  0  0  0  0  0  0  0  0
   -1.9480   -0.1235   -0.2151 C   0  0  0  0  0  0  0  0  0  0  0  0
   -0.5463    0.2375   -0.4834 C   0  0  0  0  0  0  0  0  0  0  0  0
   -0.2443    1.1401   -1.2453 O   0  0  0  0  0  0  0  0  0  0  0  0
   -2.7505    1.8653   -1.2737 O   0  0  0  0  0  0  0  0  0  0  0  0
   -5.3399    1.1467   -0.6802 O   0  0  0  0  0  0  0  0  0  0  0  0
   -5.7525    2.1477    0.2525 C   0  0  0  0  0  0  0  0  0  0  0  0
   -5.8354   -1.1946    0.6670 O   0  0  0  0  0  0  0  0  0  0  0  0
    5.1536   -1.2528   -0.9233 O   0  0  0  0  0  0  0  0  0  0  0  0
    4.7250   -2.4493   -1.5766 C   0  0  0  0  0  0  0  0  0  0  0  0
    7.1985    2.4951    1.0138 H   0  0  0  0  0  0  0  0  0  0  0  0
    5.5840    3.1136    0.5904 H   0  0  0  0  0  0  0  0  0  0  0  0
    5.8203    2.2037    2.1019 H   0  0  0  0  0  0  0  0  0  0  0  0
    2.6004   -1.8202   -0.8657 H   0  0  0  0  0  0  0  0  0  0  0  0
    1.4861    1.6450    1.3949 H   0  0  0  0  0  0  0  0  0  0  0  0
    3.8392    2.3561    1.4619 H   0  0  0  0  0  0  0  0  0  0  0  0
    0.8083   -2.2871    1.3752 H   0  0  0  0  0  0  0  0  0  0  0  0
   -3.7249   -2.5969    1.2788 H   0  0  0  0  0  0  0  0  0  0  0  0
   -2.6225    2.6317   -0.6981 H   0  0  0  0  0  0  0  0  0  0  0  0
   -6.5827    2.7155   -0.1675 H   0  0  0  0  0  0  0  0  0  0  0  0
   -6.0703    1.6713    1.1799 H   0  0  0  0  0  0  0  0  0  0  0  0
   -4.9190    2.8199    0.4564 H   0  0  0  0  0  0  0  0  0  0  0  0
   -6.1457   -0.8676    1.5225 H   0  0  0  0  0  0  0  0  0  0  0  0
    5.5867   -2.9527   -2.0148 H   0  0  0  0  0  0  0  0  0  0  0  0
    4.2491   -3.1089   -0.8509 H   0  0  0  0  0  0  0  0  0  0  0  0
    4.0122   -2.1989   -2.3622 H   0  0  0  0  0  0  0  0  0  0  0  0
  1  2  1  0  0  0  0
  2  3  1  0  0  0  0
  3  4  2  0  0  0  0
  4  5  1  0  0  0  0
  5  6  2  0  0  0  0
  6  7  1  0  0  0  0
  7  8  2  0  0  0  0
  3  8  1  0  0  0  0
  6  9  1  0  0  0  0
  9 10  2  0  0  0  0
 10 11  1  0  0  0  0
 11 12  1  0  0  0  0
 12 13  2  0  0  0  0
 13 14  1  0  0  0  0
 14 15  2  0  0  0  0
 15 16  1  0  0  0  0
 16 17  2  0  0  0  0
 12 17  1  0  0  0  0
 17 18  1  0  0  0  0
  9 18  1  0  0  0  0
 18 19  2  0  0  0  0
 16 20  1  0  0  0  0
 15 21  1  0  0  0  0
 21 22  1  0  0  0  0
 14 23  1  0  0  0  0
  4 24  1  0  0  0  0
 24 25  1  0  0  0  0
  1 26  1  0  0  0  0
  1 27  1  0  0  0  0
  1 28  1  0  0  0  0
  5 29  1  0  0  0  0
  7 30  1  0  0  0  0
  8 31  1  0  0  0  0
 10 32  1  0  0  0  0
 13 33  1  0  0  0  0
 20 34  1  0  0  0  0
 22 35  1  0  0  0  0
 22 36  1  0  0  0  0
 22 37  1  0  0  0  0
 23 38  1  0  0  0  0
 25 39  1  0  0  0  0
 25 40  1  0  0  0  0
 25 41  1  0  0  0  0
M  END
$$$$
