C22H34O4
APtclcactv06281817433D 0   0.00000     0.00000
 
 60 64  0  0  0  0  0  0  0  0999 V2000
    2.5709    0.3836    2.0285 C   0  0  0  0  0  0  0  0  0  0  0  0
    2.5975    0.3562    0.5064 C   0  0  0  0  0  0  0  0  0  0  0  0
    3.3651    1.5744   -0.0178 C   0  0  0  0  0  0  0  0  0  0  0  0
    4.8252    1.5214    0.4239 C   0  0  0  0  0  0  0  0  0  0  0  0
    5.4893    0.2340   -0.0630 C   0  0  0  0  0  0  0  0  0  0  0  0
    4.7225   -0.9817    0.4602 C   0  0  0  0  0  0  0  0  0  0  0  0
    3.2744   -0.9131   -0.0158 C   0  0  0  0  0  0  0  0  0  0  0  0
    2.5084   -2.1624    0.4069 C   0  0  0  0  0  0  0  0  0  0  0  0
    1.0718   -2.0999   -0.1242 C   0  0  0  0  0  0  0  0  0  0  0  0
    0.4016   -0.8346    0.4154 C   0  0  0  0  0  0  0  0  0  0  0  0
    1.1697    0.3884   -0.0676 C   0  0  0  0  0  0  0  0  0  0  0  0
    0.4675    1.6896    0.2590 C   0  0  0  0  0  0  0  0  0  0  0  0
   -1.0386    1.6875   -0.0553 C   0  0  0  0  0  0  0  0  0  0  0  0
   -1.4714    0.4365   -0.7639 C   0  0  0  0  0  0  0  0  0  0  0  0
   -1.0591   -0.7718    0.1059 C   0  0  0  0  0  0  0  0  0  0  0  0
   -1.6853   -1.9356   -0.6745 C   0  0  0  0  0  0  0  0  0  0  0  0
   -3.1324   -1.3727   -0.8480 C   0  0  0  0  0  0  0  0  0  0  0  0
   -2.9380    0.1721   -1.0721 C   0  0  0  0  0  0  0  0  0  0  0  0
   -4.0265    0.7203   -0.1615 C   0  0  0  0  0  0  0  0  0  0  0  0
   -4.1015   -0.2921    0.9668 C   0  0  0  0  0  0  0  0  0  0  0  0
   -4.4006   -0.0610    2.1158 O   0  0  0  0  0  0  0  0  0  0  0  0
   -3.7726   -1.4872    0.4543 O   0  0  0  0  0  0  0  0  0  0  0  0
   -3.8624    2.1428    0.3344 C   0  0  0  0  0  0  0  0  0  0  0  0
   -5.2904    0.6525   -0.8782 O   0  0  0  0  0  0  0  0  0  0  0  0
   -0.7967    0.3884   -2.1549 C   0  0  0  0  0  0  0  0  0  0  0  0
    5.5090    0.2117   -1.4913 O   0  0  0  0  0  0  0  0  0  0  0  0
    2.0778    1.2949    2.3670 H   0  0  0  0  0  0  0  0  0  0  0  0
    2.0244   -0.4840    2.3980 H   0  0  0  0  0  0  0  0  0  0  0  0
    3.5916    0.3596    2.4103 H   0  0  0  0  0  0  0  0  0  0  0  0
    3.3116    1.5908   -1.1074 H   0  0  0  0  0  0  0  0  0  0  0  0
    2.9029    2.4833    0.3739 H   0  0  0  0  0  0  0  0  0  0  0  0
    5.3566    2.3765   -0.0121 H   0  0  0  0  0  0  0  0  0  0  0  0
    4.9019    1.5914    1.5066 H   0  0  0  0  0  0  0  0  0  0  0  0
    6.5161    0.1960    0.3092 H   0  0  0  0  0  0  0  0  0  0  0  0
    5.1868   -1.8899    0.0600 H   0  0  0  0  0  0  0  0  0  0  0  0
    4.7750   -1.0163    1.5444 H   0  0  0  0  0  0  0  0  0  0  0  0
    3.2746   -0.8704   -1.1157 H   0  0  0  0  0  0  0  0  0  0  0  0
    3.0012   -3.0435   -0.0158 H   0  0  0  0  0  0  0  0  0  0  0  0
    2.4963   -2.2570    1.4895 H   0  0  0  0  0  0  0  0  0  0  0  0
    1.0838   -2.0731   -1.2117 H   0  0  0  0  0  0  0  0  0  0  0  0
    0.5209   -2.9758    0.2190 H   0  0  0  0  0  0  0  0  0  0  0  0
    0.4802   -0.8908    1.5209 H   0  0  0  0  0  0  0  0  0  0  0  0
    1.3382    0.3152   -1.1499 H   0  0  0  0  0  0  0  0  0  0  0  0
    0.5915    1.9326    1.3224 H   0  0  0  0  0  0  0  0  0  0  0  0
    0.9385    2.5065   -0.3089 H   0  0  0  0  0  0  0  0  0  0  0  0
   -1.5437    1.7517    0.9243 H   0  0  0  0  0  0  0  0  0  0  0  0
   -1.2892    2.5733   -0.6437 H   0  0  0  0  0  0  0  0  0  0  0  0
   -1.6066   -0.6963    1.0732 H   0  0  0  0  0  0  0  0  0  0  0  0
   -1.2093   -2.1164   -1.6229 H   0  0  0  0  0  0  0  0  0  0  0  0
   -1.7107   -2.8367   -0.0606 H   0  0  0  0  0  0  0  0  0  0  0  0
   -3.6739   -1.8431   -1.6483 H   0  0  0  0  0  0  0  0  0  0  0  0
   -3.1466    0.4154   -2.1342 H   0  0  0  0  0  0  0  0  0  0  0  0
   -3.6320    2.7965   -0.5069 H   0  0  0  0  0  0  0  0  0  0  0  0
   -4.7877    2.4717    0.8073 H   0  0  0  0  0  0  0  0  0  0  0  0
   -3.0494    2.1834    1.0593 H   0  0  0  0  0  0  0  0  0  0  0  0
   -6.0467    0.9823   -0.3739 H   0  0  0  0  0  0  0  0  0  0  0  0
    0.2324    0.7380   -2.0718 H   0  0  0  0  0  0  0  0  0  0  0  0
   -0.8035   -0.6362   -2.5268 H   0  0  0  0  0  0  0  0  0  0  0  0
   -1.3435    1.0295   -2.8463 H   0  0  0  0  0  0  0  0  0  0  0  0
    5.9931    0.9480   -1.8895 H   0  0  0  0  0  0  0  0  0  0  0  0
  1  2  1  0  0  0  0
  2  3  1  0  0  0  0
  3  4  1  0  0  0  0
  4  5  1  0  0  0  0
  5  6  1  0  0  0  0
  6  7  1  0  0  0  0
  2  7  1  0  0  0  0
  7  8  1  0  0  0  0
  8  9  1  0  0  0  0
  9 10  1  0  0  0  0
 10 11  1  0  0  0  0
  2 11  1  0  0  0  0
 11 12  1  0  0  0  0
 12 13  1  0  0  0  0
 13 14  1  0  0  0  0
 14 15  1  0  0  0  0
 10 15  1  0  0  0  0
 15 16  1  0  0  0  0
 16 17  1  0  0  0  0
 17 18  1  0  0  0  0
 14 18  1  0  0  0  0
 18 19  1  0  0  0  0
 19 20  1  0  0  0  0
 20 21  2  0  0  0  0
 20 22  1  0  0  0  0
 17 22  1  0  0  0  0
 19 23  1  0  0  0  0
 19 24  1  0  0  0  0
 14 25  1  0  0  0  0
  5 26  1  0  0  0  0
  1 27  1  0  0  0  0
  1 28  1  0  0  0  0
  1 29  1  0  0  0  0
  3 30  1  0  0  0  0
  3 31  1  0  0  0  0
  4 32  1  0  0  0  0
  4 33  1  0  0  0  0
  5 34  1  0  0  0  0
  6 35  1  0  0  0  0
  6 36  1  0  0  0  0
  7 37  1  0  0  0  0
  8 38  1  0  0  0  0
  8 39  1  0  0  0  0
  9 40  1  0  0  0  0
  9 41  1  0  0  0  0
 10 42  1  0  0  0  0
 11 43  1  0  0  0  0
 12 44  1  0  0  0  0
 12 45  1  0  0  0  0
 13 46  1  0  0  0  0
 13 47  1  0  0  0  0
 15 48  1  0  0  0  0
 16 49  1  0  0  0  0
 16 50  1  0  0  0  0
 17 51  1  0  0  0  0
 18 52  1  0  0  0  0
 23 53  1  0  0  0  0
 23 54  1  0  0  0  0
 23 55  1  0  0  0  0
 24 56  1  0  0  0  0
 25 57  1  0  0  0  0
 25 58  1  0  0  0  0
 25 59  1  0  0  0  0
 26 60  1  0  0  0  0
M  END
$$$$
