C21H18O12
APtclcactv06281817433D 0   0.00000     0.00000
 
 51 54  0  0  0  0  0  0  0  0999 V2000
   -1.0001    1.6129    1.7549 C   0  0  0  0  0  0  0  0  0  0  0  0
   -2.1300    2.3889    1.8914 C   0  0  0  0  0  0  0  0  0  0  0  0
   -2.4477    3.3336    0.9233 C   0  0  0  0  0  0  0  0  0  0  0  0
   -1.6280    3.5004   -0.1862 C   0  0  0  0  0  0  0  0  0  0  0  0
   -0.4961    2.7289   -0.3311 C   0  0  0  0  0  0  0  0  0  0  0  0
   -0.1725    1.7772    0.6404 C   0  0  0  0  0  0  0  0  0  0  0  0
    1.0383    0.9492    0.4900 C   0  0  0  0  0  0  0  0  0  0  0  0
    0.9391   -0.3973    0.6729 C   0  0  0  0  0  0  0  0  0  0  0  0
    2.0952   -1.2080    0.5317 C   0  0  0  0  0  0  0  0  0  0  0  0
    2.0444   -2.4176    0.6876 O   0  0  0  0  0  0  0  0  0  0  0  0
    3.3575   -0.5335    0.1894 C   0  0  0  0  0  0  0  0  0  0  0  0
    4.5474   -1.2556    0.0300 C   0  0  0  0  0  0  0  0  0  0  0  0
    5.7128   -0.5851   -0.2922 C   0  0  0  0  0  0  0  0  0  0  0  0
    5.7020    0.7958   -0.4560 C   0  0  0  0  0  0  0  0  0  0  0  0
    4.5284    1.5169   -0.2998 C   0  0  0  0  0  0  0  0  0  0  0  0
    3.3495    0.8627    0.0228 C   0  0  0  0  0  0  0  0  0  0  0  0
    2.1978    1.5501    0.1723 O   0  0  0  0  0  0  0  0  0  0  0  0
    6.8523    1.4442   -0.7714 O   0  0  0  0  0  0  0  0  0  0  0  0
    4.5561   -2.6031    0.1910 O   0  0  0  0  0  0  0  0  0  0  0  0
   -0.2590   -0.9602    0.9888 O   0  0  0  0  0  0  0  0  0  0  0  0
   -0.8017   -1.8970    0.0561 C   0  0  0  0  0  0  0  0  0  0  0  0
   -1.9418   -2.6748    0.7186 C   0  0  0  0  0  0  0  0  0  0  0  0
   -3.0594   -1.7000    1.1020 C   0  0  0  0  0  0  0  0  0  0  0  0
   -3.5193   -0.9493   -0.1515 C   0  0  0  0  0  0  0  0  0  0  0  0
   -2.3184   -0.2381   -0.7804 C   0  0  0  0  0  0  0  0  0  0  0  0
   -1.3039   -1.1975   -1.0844 O   0  0  0  0  0  0  0  0  0  0  0  0
   -2.7510    0.4543   -2.0470 C   0  0  0  0  0  0  0  0  0  0  0  0
   -2.3086    0.0960   -3.1128 O   0  0  0  0  0  0  0  0  0  0  0  0
   -3.6279    1.4691   -1.9913 O   0  0  0  0  0  0  0  0  0  0  0  0
   -4.0695   -1.8771   -1.0888 O   0  0  0  0  0  0  0  0  0  0  0  0
   -4.1589   -2.4266    1.6545 O   0  0  0  0  0  0  0  0  0  0  0  0
   -2.4501   -3.6484   -0.1957 O   0  0  0  0  0  0  0  0  0  0  0  0
   -3.5630    4.0959    1.0615 O   0  0  0  0  0  0  0  0  0  0  0  0
   -0.7517    0.8818    2.5099 H   0  0  0  0  0  0  0  0  0  0  0  0
   -2.7700    2.2627    2.7521 H   0  0  0  0  0  0  0  0  0  0  0  0
   -1.8788    4.2359   -0.9362 H   0  0  0  0  0  0  0  0  0  0  0  0
    0.1401    2.8587   -1.1941 H   0  0  0  0  0  0  0  0  0  0  0  0
    6.6338   -1.1351   -0.4167 H   0  0  0  0  0  0  0  0  0  0  0  0
    4.5325    2.5890   -0.4295 H   0  0  0  0  0  0  0  0  0  0  0  0
    7.0081    1.5287   -1.7220 H   0  0  0  0  0  0  0  0  0  0  0  0
    4.3806   -3.0975   -0.6213 H   0  0  0  0  0  0  0  0  0  0  0  0
   -0.0220   -2.5912   -0.2573 H   0  0  0  0  0  0  0  0  0  0  0  0
   -1.5704   -3.1735    1.6139 H   0  0  0  0  0  0  0  0  0  0  0  0
   -2.6853   -0.9873    1.8371 H   0  0  0  0  0  0  0  0  0  0  0  0
   -4.2762   -0.2139    0.1215 H   0  0  0  0  0  0  0  0  0  0  0  0
   -1.9242    0.4982   -0.0799 H   0  0  0  0  0  0  0  0  0  0  0  0
   -3.8753    1.8820   -2.8300 H   0  0  0  0  0  0  0  0  0  0  0  0
   -4.3817   -1.4698   -1.9084 H   0  0  0  0  0  0  0  0  0  0  0  0
   -3.9371   -2.9319    2.4486 H   0  0  0  0  0  0  0  0  0  0  0  0
   -1.8166   -4.3424   -0.4236 H   0  0  0  0  0  0  0  0  0  0  0  0
   -3.4170    4.9235    1.5398 H   0  0  0  0  0  0  0  0  0  0  0  0
  1  2  2  0  0  0  0
  2  3  1  0  0  0  0
  3  4  2  0  0  0  0
  4  5  1  0  0  0  0
  5  6  2  0  0  0  0
  1  6  1  0  0  0  0
  6  7  1  0  0  0  0
  7  8  2  0  0  0  0
  8  9  1  0  0  0  0
  9 10  2  0  0  0  0
  9 11  1  0  0  0  0
 11 12  2  0  0  0  0
 12 13  1  0  0  0  0
 13 14  2  0  0  0  0
 14 15  1  0  0  0  0
 15 16  2  0  0  0  0
 11 16  1  0  0  0  0
 16 17  1  0  0  0  0
  7 17  1  0  0  0  0
 14 18  1  0  0  0  0
 12 19  1  0  0  0  0
  8 20  1  0  0  0  0
 20 21  1  0  0  0  0
 21 22  1  0  0  0  0
 22 23  1  0  0  0  0
 23 24  1  0  0  0  0
 24 25  1  0  0  0  0
 25 26  1  0  0  0  0
 21 26  1  0  0  0  0
 25 27  1  0  0  0  0
 27 28  2  0  0  0  0
 27 29  1  0  0  0  0
 24 30  1  0  0  0  0
 23 31  1  0  0  0  0
 22 32  1  0  0  0  0
  3 33  1  0  0  0  0
  1 34  1  0  0  0  0
  2 35  1  0  0  0  0
  4 36  1  0  0  0  0
  5 37  1  0  0  0  0
 13 38  1  0  0  0  0
 15 39  1  0  0  0  0
 18 40  1  0  0  0  0
 19 41  1  0  0  0  0
 21 42  1  0  0  0  0
 22 43  1  0  0  0  0
 23 44  1  0  0  0  0
 24 45  1  0  0  0  0
 25 46  1  0  0  0  0
 29 47  1  0  0  0  0
 30 48  1  0  0  0  0
 31 49  1  0  0  0  0
 32 50  1  0  0  0  0
 33 51  1  0  0  0  0
M  END
$$$$
