C10H18O
APtclcactv06211806393D 0   0.00000     0.00000
 
 29 29  0  0  0  0  0  0  0  0999 V2000
   -2.7300    1.2445   -0.2806 C   0  0  0  0  0  0  0  0  0  0  0  0
   -1.9391   -0.0335    0.0059 C   0  0  0  0  0  0  0  0  0  0  0  0
   -1.8644   -0.2590    1.5174 C   0  0  0  0  0  0  0  0  0  0  0  0
   -2.6377   -1.2243   -0.6535 C   0  0  0  0  0  0  0  0  0  0  0  0
   -0.5242    0.1049   -0.5596 C   0  0  0  0  0  0  0  0  0  0  0  0
    0.1721    1.2964    0.1016 C   0  0  0  0  0  0  0  0  0  0  0  0
    1.6577    1.2623   -0.2786 C   0  0  0  0  0  0  0  0  0  0  0  0
    2.2984    0.0395    0.3816 C   0  0  0  0  0  0  0  0  0  0  0  0
    1.4730   -1.1847    0.1132 C   0  0  0  0  0  0  0  0  0  0  0  0
    0.2440   -1.1562   -0.2920 C   0  0  0  0  0  0  0  0  0  0  0  0
    3.6125   -0.1500   -0.1467 O   0  0  0  0  0  0  0  0  0  0  0  0
   -2.2323    2.0928    0.1892 H   0  0  0  0  0  0  0  0  0  0  0  0
   -2.7832    1.4051   -1.3574 H   0  0  0  0  0  0  0  0  0  0  0  0
   -3.7380    1.1459    0.1223 H   0  0  0  0  0  0  0  0  0  0  0  0
   -2.8724   -0.3575    1.9203 H   0  0  0  0  0  0  0  0  0  0  0  0
   -1.3009   -1.1694    1.7215 H   0  0  0  0  0  0  0  0  0  0  0  0
   -1.3667    0.5894    1.9872 H   0  0  0  0  0  0  0  0  0  0  0  0
   -2.6909   -1.0637   -1.7303 H   0  0  0  0  0  0  0  0  0  0  0  0
   -2.0742   -2.1347   -0.4493 H   0  0  0  0  0  0  0  0  0  0  0  0
   -3.6457   -1.3229   -0.2506 H   0  0  0  0  0  0  0  0  0  0  0  0
   -0.5797    0.2703   -1.6355 H   0  0  0  0  0  0  0  0  0  0  0  0
   -0.2756    2.2250   -0.2525 H   0  0  0  0  0  0  0  0  0  0  0  0
    0.0693    1.2261    1.1844 H   0  0  0  0  0  0  0  0  0  0  0  0
    1.7572    1.1882   -1.3616 H   0  0  0  0  0  0  0  0  0  0  0  0
    2.1476    2.1691    0.0762 H   0  0  0  0  0  0  0  0  0  0  0  0
    2.3637    0.2025    1.4574 H   0  0  0  0  0  0  0  0  0  0  0  0
    1.9332   -2.1495    0.2673 H   0  0  0  0  0  0  0  0  0  0  0  0
   -0.2601   -2.0987   -0.4468 H   0  0  0  0  0  0  0  0  0  0  0  0
    4.0808   -0.9092    0.2267 H   0  0  0  0  0  0  0  0  0  0  0  0
  1  2  1  0  0  0  0
  2  3  1  0  0  0  0
  2  4  1  0  0  0  0
  2  5  1  0  0  0  0
  5  6  1  0  0  0  0
  6  7  1  0  0  0  0
  7  8  1  0  0  0  0
  8  9  1  0  0  0  0
  9 10  2  0  0  0  0
  5 10  1  0  0  0  0
  8 11  1  0  0  0  0
  1 12  1  0  0  0  0
  1 13  1  0  0  0  0
  1 14  1  0  0  0  0
  3 15  1  0  0  0  0
  3 16  1  0  0  0  0
  3 17  1  0  0  0  0
  4 18  1  0  0  0  0
  4 19  1  0  0  0  0
  4 20  1  0  0  0  0
  5 21  1  0  0  0  0
  6 22  1  0  0  0  0
  6 23  1  0  0  0  0
  7 24  1  0  0  0  0
  7 25  1  0  0  0  0
  8 26  1  0  0  0  0
  9 27  1  0  0  0  0
 10 28  1  0  0  0  0
 11 29  1  0  0  0  0
M  END
$$$$
