C16H28O6
APtclcactv06281817443D 0   0.00000     0.00000
 
 50 50  0  0  0  0  0  0  0  0999 V2000
   -4.0345    2.1177    0.6897 C   0  0  0  0  0  0  0  0  0  0  0  0
   -4.8286    0.8478    0.8561 C   0  0  0  0  0  0  0  0  0  0  0  0
   -4.4419   -0.2501    0.2551 C   0  0  0  0  0  0  0  0  0  0  0  0
   -3.1400   -0.2753   -0.5035 C   0  0  0  0  0  0  0  0  0  0  0  0
   -2.2401   -1.3746    0.0643 C   0  0  0  0  0  0  0  0  0  0  0  0
   -0.9183   -1.4002   -0.7058 C   0  0  0  0  0  0  0  0  0  0  0  0
   -0.0692   -2.5777   -0.2226 C   0  0  0  0  0  0  0  0  0  0  0  0
   -1.1980   -1.5537   -2.1787 C   0  0  0  0  0  0  0  0  0  0  0  0
   -0.9173   -0.5759   -3.0041 C   0  0  0  0  0  0  0  0  0  0  0  0
   -0.2116   -0.1789   -0.4799 O   0  0  0  0  0  0  0  0  0  0  0  0
    1.0994   -0.1524   -1.0478 C   0  0  0  0  0  0  0  0  0  0  0  0
    1.5996    1.2931   -1.1103 C   0  0  0  0  0  0  0  0  0  0  0  0
    1.6977    1.8532    0.3121 C   0  0  0  0  0  0  0  0  0  0  0  0
    2.6205    0.9541    1.1406 C   0  0  0  0  0  0  0  0  0  0  0  0
    2.0809   -0.4784    1.1161 C   0  0  0  0  0  0  0  0  0  0  0  0
    1.9856   -0.9271   -0.2373 O   0  0  0  0  0  0  0  0  0  0  0  0
    3.0297   -1.3943    1.8917 C   0  0  0  0  0  0  0  0  0  0  0  0
    2.4687   -2.7064    1.9683 O   0  0  0  0  0  0  0  0  0  0  0  0
    3.9364    0.9782    0.5840 O   0  0  0  0  0  0  0  0  0  0  0  0
    2.2334    3.1773    0.2686 O   0  0  0  0  0  0  0  0  0  0  0  0
    2.8885    1.3263   -1.7265 O   0  0  0  0  0  0  0  0  0  0  0  0
   -6.0676    0.8408    1.7140 C   0  0  0  0  0  0  0  0  0  0  0  0
   -3.9270    2.3426   -0.3715 H   0  0  0  0  0  0  0  0  0  0  0  0
   -4.5539    2.9385    1.1842 H   0  0  0  0  0  0  0  0  0  0  0  0
   -3.0482    1.9906    1.1359 H   0  0  0  0  0  0  0  0  0  0  0  0
   -5.0561   -1.1371    0.3032 H   0  0  0  0  0  0  0  0  0  0  0  0
   -3.3370   -0.4750   -1.5568 H   0  0  0  0  0  0  0  0  0  0  0  0
   -2.6425    0.6893   -0.4035 H   0  0  0  0  0  0  0  0  0  0  0  0
   -2.0431   -1.1749    1.1176 H   0  0  0  0  0  0  0  0  0  0  0  0
   -2.7376   -2.3393   -0.0357 H   0  0  0  0  0  0  0  0  0  0  0  0
   -0.6525   -3.4963   -0.2855 H   0  0  0  0  0  0  0  0  0  0  0  0
    0.8182   -2.6671   -0.8492 H   0  0  0  0  0  0  0  0  0  0  0  0
    0.2317   -2.4085    0.8113 H   0  0  0  0  0  0  0  0  0  0  0  0
   -1.6298   -2.4698   -2.5537 H   0  0  0  0  0  0  0  0  0  0  0  0
   -1.2004   -0.6488   -4.0437 H   0  0  0  0  0  0  0  0  0  0  0  0
   -0.4028    0.3031   -2.6448 H   0  0  0  0  0  0  0  0  0  0  0  0
    1.0682   -0.5701   -2.0541 H   0  0  0  0  0  0  0  0  0  0  0  0
    0.9014    1.8954   -1.6915 H   0  0  0  0  0  0  0  0  0  0  0  0
    0.7064    1.8742    0.7648 H   0  0  0  0  0  0  0  0  0  0  0  0
    2.6523    1.3138    2.1690 H   0  0  0  0  0  0  0  0  0  0  0  0
    1.0937   -0.5029    1.5776 H   0  0  0  0  0  0  0  0  0  0  0  0
    3.9908   -1.4395    1.3793 H   0  0  0  0  0  0  0  0  0  0  0  0
    3.1727   -1.0010    2.8981 H   0  0  0  0  0  0  0  0  0  0  0  0
    3.0180   -3.3417    2.4476 H   0  0  0  0  0  0  0  0  0  0  0  0
    4.3386    1.8574    0.5633 H   0  0  0  0  0  0  0  0  0  0  0  0
    1.7021    3.7998   -0.2465 H   0  0  0  0  0  0  0  0  0  0  0  0
    2.9016    0.9810   -2.6296 H   0  0  0  0  0  0  0  0  0  0  0  0
   -6.9349    1.0873    1.1016 H   0  0  0  0  0  0  0  0  0  0  0  0
   -6.2011   -0.1486    2.1514 H   0  0  0  0  0  0  0  0  0  0  0  0
   -5.9629    1.5786    2.5094 H   0  0  0  0  0  0  0  0  0  0  0  0
  1  2  1  0  0  0  0
  2  3  2  0  0  0  0
  3  4  1  0  0  0  0
  4  5  1  0  0  0  0
  5  6  1  0  0  0  0
  6  7  1  0  0  0  0
  6  8  1  0  0  0  0
  8  9  2  0  0  0  0
  6 10  1  0  0  0  0
 10 11  1  0  0  0  0
 11 12  1  0  0  0  0
 12 13  1  0  0  0  0
 13 14  1  0  0  0  0
 14 15  1  0  0  0  0
 15 16  1  0  0  0  0
 11 16  1  0  0  0  0
 15 17  1  0  0  0  0
 17 18  1  0  0  0  0
 14 19  1  0  0  0  0
 13 20  1  0  0  0  0
 12 21  1  0  0  0  0
  2 22  1  0  0  0  0
  1 23  1  0  0  0  0
  1 24  1  0  0  0  0
  1 25  1  0  0  0  0
  3 26  1  0  0  0  0
  4 27  1  0  0  0  0
  4 28  1  0  0  0  0
  5 29  1  0  0  0  0
  5 30  1  0  0  0  0
  7 31  1  0  0  0  0
  7 32  1  0  0  0  0
  7 33  1  0  0  0  0
  8 34  1  0  0  0  0
  9 35  1  0  0  0  0
  9 36  1  0  0  0  0
 11 37  1  0  0  0  0
 12 38  1  0  0  0  0
 13 39  1  0  0  0  0
 14 40  1  0  0  0  0
 15 41  1  0  0  0  0
 17 42  1  0  0  0  0
 17 43  1  0  0  0  0
 18 44  1  0  0  0  0
 19 45  1  0  0  0  0
 20 46  1  0  0  0  0
 21 47  1  0  0  0  0
 22 48  1  0  0  0  0
 22 49  1  0  0  0  0
 22 50  1  0  0  0  0
M  END
$$$$
