C18H26N5O14P
APtclcactv06281817443D 0   0.00000     0.00000
 
 64 66  0  0  0  0  0  0  0  0999 V2000
   -5.2260   -0.1431    2.8752 C   0  0  0  0  0  0  0  0  0  0  0  0
   -4.9424   -0.0733    1.5570 C   0  0  0  0  0  0  0  0  0  0  0  0
   -5.9503   -0.1951    0.6396 N   0  0  0  0  0  0  0  0  0  0  0  0
   -7.2213   -0.3834    1.0388 C   0  0  0  0  0  0  0  0  0  0  0  0
   -8.1015   -0.4886    0.2067 O   0  0  0  0  0  0  0  0  0  0  0  0
   -7.5320   -0.4572    2.3463 N   0  0  0  0  0  0  0  0  0  0  0  0
   -6.5675   -0.3420    3.2816 C   0  0  0  0  0  0  0  0  0  0  0  0
   -6.8477   -0.4091    4.4648 O   0  0  0  0  0  0  0  0  0  0  0  0
   -5.6427   -0.1194   -0.7908 C   0  0  0  0  0  0  0  0  0  0  0  0
   -6.2499    1.1617   -1.4043 C   0  0  0  0  0  0  0  0  0  0  0  0
   -5.0934    2.1852   -1.3570 C   0  0  0  0  0  0  0  0  0  0  0  0
   -3.9243    1.4015   -0.7205 C   0  0  0  0  0  0  0  0  0  0  0  0
   -4.2188    0.0140   -0.9924 O   0  0  0  0  0  0  0  0  0  0  0  0
   -2.5983    1.8018   -1.3703 C   0  0  0  0  0  0  0  0  0  0  0  0
   -1.5204    1.1546   -0.6911 O   0  0  0  0  0  0  0  0  0  0  0  0
    0.0221    1.3485   -1.1096 P   0  0  0  0  0  0  0  0  0  0  0  0
    0.1905    1.0148   -2.5416 O   0  0  0  0  0  0  0  0  0  0  0  0
    0.4577    2.8782   -0.8602 O   0  0  0  0  0  0  0  0  0  0  0  0
    0.9460    0.3755   -0.2196 O   0  0  0  0  0  0  0  0  0  0  0  0
    2.3536    0.2375   -0.4237 C   0  0  0  0  0  0  0  0  0  0  0  0
    3.1259    0.6105    0.8612 C   0  0  0  0  0  0  0  0  0  0  0  0
    4.2283   -0.3211    0.9126 O   0  0  0  0  0  0  0  0  0  0  0  0
    3.6744   -1.5892    0.4993 C   0  0  0  0  0  0  0  0  0  0  0  0
    2.7227   -1.2429   -0.6672 C   0  0  0  0  0  0  0  0  0  0  0  0
    1.5544   -2.0644   -0.6210 O   0  0  0  0  0  0  0  0  0  0  0  0
    4.7387   -2.4853    0.0403 N   0  0  0  0  0  0  0  0  0  0  0  0
    5.6160   -2.0597   -0.9197 C   0  0  0  0  0  0  0  0  0  0  0  0
    6.5971   -2.8855   -1.3423 C   0  0  0  0  0  0  0  0  0  0  0  0
    6.6972   -4.1808   -0.7797 C   0  0  0  0  0  0  0  0  0  0  0  0
    7.5739   -4.9432   -1.1445 O   0  0  0  0  0  0  0  0  0  0  0  0
    5.8130   -4.5623    0.1642 N   0  0  0  0  0  0  0  0  0  0  0  0
    4.8478   -3.7169    0.5707 C   0  0  0  0  0  0  0  0  0  0  0  0
    4.0575   -4.0747    1.4226 O   0  0  0  0  0  0  0  0  0  0  0  0
    3.6459    2.0467    0.7721 C   0  0  0  0  0  0  0  0  0  0  0  0
    4.2546    2.4107    2.0126 O   0  0  0  0  0  0  0  0  0  0  0  0
   -4.7496    2.6136   -2.6762 O   0  0  0  0  0  0  0  0  0  0  0  0
   -6.6556    0.9266   -2.7542 O   0  0  0  0  0  0  0  0  0  0  0  0
   17.1938    9.2668    1.8758 N   0  0  0  0  0  0  0  0  0  0  0  0
   -4.4394   -0.0530    3.6097 H   0  0  0  0  0  0  0  0  0  0  0  0
   -3.9249    0.0783    1.2282 H   0  0  0  0  0  0  0  0  0  0  0  0
   -8.4535   -0.5933    2.6169 H   0  0  0  0  0  0  0  0  0  0  0  0
   -6.0196   -1.0026   -1.3065 H   0  0  0  0  0  0  0  0  0  0  0  0
   -7.0923    1.5093   -0.8063 H   0  0  0  0  0  0  0  0  0  0  0  0
   -5.3641    3.0389   -0.7356 H   0  0  0  0  0  0  0  0  0  0  0  0
   -3.8896    1.5784    0.3545 H   0  0  0  0  0  0  0  0  0  0  0  0
   -2.6013    1.4999   -2.4177 H   0  0  0  0  0  0  0  0  0  0  0  0
   -2.4729    2.8825   -1.3041 H   0  0  0  0  0  0  0  0  0  0  0  0
    0.3730    3.1664    0.0590 H   0  0  0  0  0  0  0  0  0  0  0  0
    2.6800    0.8571   -1.2589 H   0  0  0  0  0  0  0  0  0  0  0  0
    2.4870    0.4910    1.7361 H   0  0  0  0  0  0  0  0  0  0  0  0
    3.1197   -2.0461    1.3188 H   0  0  0  0  0  0  0  0  0  0  0  0
    3.2334   -1.3569   -1.6234 H   0  0  0  0  0  0  0  0  0  0  0  0
    1.7283   -3.0042   -0.7686 H   0  0  0  0  0  0  0  0  0  0  0  0
    5.5238   -1.0681   -1.3376 H   0  0  0  0  0  0  0  0  0  0  0  0
    7.2960   -2.5623   -2.0996 H   0  0  0  0  0  0  0  0  0  0  0  0
    5.8751   -5.4482    0.5543 H   0  0  0  0  0  0  0  0  0  0  0  0
    4.3822    2.1175   -0.0285 H   0  0  0  0  0  0  0  0  0  0  0  0
    2.8157    2.7214    0.5629 H   0  0  0  0  0  0  0  0  0  0  0  0
    4.6075    3.3109    2.0284 H   0  0  0  0  0  0  0  0  0  0  0  0
   -5.4686    3.0588   -3.1451 H   0  0  0  0  0  0  0  0  0  0  0  0
   -7.0442    1.6985   -3.1882 H   0  0  0  0  0  0  0  0  0  0  0  0
   16.9627    8.3331    2.1804 H   0  0  0  0  0  0  0  0  0  0  0  0
   18.0357    9.2678    1.3197 H   0  0  0  0  0  0  0  0  0  0  0  0
   16.4260    9.6826    1.3701 H   0  0  0  0  0  0  0  0  0  0  0  0
  1  2  2  0  0  0  0
  2  3  1  0  0  0  0
  3  4  1  0  0  0  0
  4  5  2  0  0  0  0
  4  6  1  0  0  0  0
  6  7  1  0  0  0  0
  1  7  1  0  0  0  0
  7  8  2  0  0  0  0
  3  9  1  0  0  0  0
  9 10  1  0  0  0  0
 10 11  1  0  0  0  0
 11 12  1  0  0  0  0
 12 13  1  0  0  0  0
  9 13  1  0  0  0  0
 12 14  1  0  0  0  0
 14 15  1  0  0  0  0
 15 16  1  0  0  0  0
 16 17  2  0  0  0  0
 16 18  1  0  0  0  0
 16 19  1  0  0  0  0
 19 20  1  0  0  0  0
 20 21  1  0  0  0  0
 21 22  1  0  0  0  0
 22 23  1  0  0  0  0
 23 24  1  0  0  0  0
 20 24  1  0  0  0  0
 24 25  1  0  0  0  0
 23 26  1  0  0  0  0
 26 27  1  0  0  0  0
 27 28  2  0  0  0  0
 28 29  1  0  0  0  0
 29 30  2  0  0  0  0
 29 31  1  0  0  0  0
 31 32  1  0  0  0  0
 26 32  1  0  0  0  0
 32 33  2  0  0  0  0
 21 34  1  0  0  0  0
 34 35  1  0  0  0  0
 11 36  1  0  0  0  0
 10 37  1  0  0  0  0
  1 39  1  0  0  0  0
  2 40  1  0  0  0  0
  6 41  1  0  0  0  0
  9 42  1  0  0  0  0
 10 43  1  0  0  0  0
 11 44  1  0  0  0  0
 12 45  1  0  0  0  0
 14 46  1  0  0  0  0
 14 47  1  0  0  0  0
 18 48  1  0  0  0  0
 20 49  1  0  0  0  0
 21 50  1  0  0  0  0
 23 51  1  0  0  0  0
 24 52  1  0  0  0  0
 25 53  1  0  0  0  0
 27 54  1  0  0  0  0
 28 55  1  0  0  0  0
 31 56  1  0  0  0  0
 34 57  1  0  0  0  0
 34 58  1  0  0  0  0
 35 59  1  0  0  0  0
 36 60  1  0  0  0  0
 37 61  1  0  0  0  0
 38 62  1  0  0  0  0
 38 63  1  0  0  0  0
 38 64  1  0  0  0  0
M  END
$$$$
