C25H24O6
APtclcactv06281817443D 0   0.00000     0.00000
 
 55 58  0  0  0  0  0  0  0  0999 V2000
    4.6380   -3.5037   -1.2693 C   0  0  0  0  0  0  0  0  0  0  0  0
    4.9689   -3.0369    0.1248 C   0  0  0  0  0  0  0  0  0  0  0  0
    5.2830   -1.7832    0.3384 C   0  0  0  0  0  0  0  0  0  0  0  0
    5.1923   -0.7818   -0.7841 C   0  0  0  0  0  0  0  0  0  0  0  0
    4.3365    0.3810   -0.3521 C   0  0  0  0  0  0  0  0  0  0  0  0
    4.9179    1.4769    0.2682 C   0  0  0  0  0  0  0  0  0  0  0  0
    4.1333    2.5506    0.6680 C   0  0  0  0  0  0  0  0  0  0  0  0
    2.7710    2.5328    0.4507 C   0  0  0  0  0  0  0  0  0  0  0  0
    2.1795    1.4358   -0.1717 C   0  0  0  0  0  0  0  0  0  0  0  0
    2.9712    0.3575   -0.5796 C   0  0  0  0  0  0  0  0  0  0  0  0
    2.4002   -0.7151   -1.1876 O   0  0  0  0  0  0  0  0  0  0  0  0
    0.7152    1.4139   -0.4061 C   0  0  0  0  0  0  0  0  0  0  0  0
    0.2030    1.6180   -1.6469 C   0  0  0  0  0  0  0  0  0  0  0  0
   -1.1057    1.6247   -1.9027 O   0  0  0  0  0  0  0  0  0  0  0  0
   -1.9939    1.1192   -1.0252 C   0  0  0  0  0  0  0  0  0  0  0  0
   -3.2919    0.8317   -1.4327 C   0  0  0  0  0  0  0  0  0  0  0  0
   -4.2062    0.3223   -0.5321 C   0  0  0  0  0  0  0  0  0  0  0  0
   -3.8360    0.0913    0.8050 C   0  0  0  0  0  0  0  0  0  0  0  0
   -4.8503   -0.4501    1.7338 C   0  0  0  0  0  0  0  0  0  0  0  0
   -5.9434   -1.0049    1.2128 C   0  0  0  0  0  0  0  0  0  0  0  0
   -6.1103   -1.0780   -0.2821 C   0  0  0  0  0  0  0  0  0  0  0  0
   -5.4771    0.0350   -0.9136 O   0  0  0  0  0  0  0  0  0  0  0  0
   -5.4821   -2.3746   -0.7969 C   0  0  0  0  0  0  0  0  0  0  0  0
   -7.6016   -1.0707   -0.6240 C   0  0  0  0  0  0  0  0  0  0  0  0
   -2.5407    0.3694    1.2310 C   0  0  0  0  0  0  0  0  0  0  0  0
   -1.6180    0.8780    0.3100 C   0  0  0  0  0  0  0  0  0  0  0  0
   -0.2280    1.1633    0.7018 C   0  0  0  0  0  0  0  0  0  0  0  0
    0.1227    1.1944    1.8691 O   0  0  0  0  0  0  0  0  0  0  0  0
   -2.1782    0.1512    2.5195 O   0  0  0  0  0  0  0  0  0  0  0  0
    6.2592    1.4997    0.4858 O   0  0  0  0  0  0  0  0  0  0  0  0
    4.9385   -4.0123    1.2732 C   0  0  0  0  0  0  0  0  0  0  0  0
    5.4574   -3.2497   -1.9417 H   0  0  0  0  0  0  0  0  0  0  0  0
    4.4925   -4.5840   -1.2658 H   0  0  0  0  0  0  0  0  0  0  0  0
    3.7246   -3.0152   -1.6089 H   0  0  0  0  0  0  0  0  0  0  0  0
    5.6070   -1.4672    1.3190 H   0  0  0  0  0  0  0  0  0  0  0  0
    6.1913   -0.4246   -1.0340 H   0  0  0  0  0  0  0  0  0  0  0  0
    4.7466   -1.2558   -1.6587 H   0  0  0  0  0  0  0  0  0  0  0  0
    4.5906    3.4016    1.1506 H   0  0  0  0  0  0  0  0  0  0  0  0
    2.1633    3.3691    0.7634 H   0  0  0  0  0  0  0  0  0  0  0  0
    2.3521   -0.6419   -2.1506 H   0  0  0  0  0  0  0  0  0  0  0  0
    0.8880    1.7832   -2.4653 H   0  0  0  0  0  0  0  0  0  0  0  0
   -3.5859    1.0078   -2.4569 H   0  0  0  0  0  0  0  0  0  0  0  0
   -4.7091   -0.3977    2.8033 H   0  0  0  0  0  0  0  0  0  0  0  0
   -6.7094   -1.4024    1.8620 H   0  0  0  0  0  0  0  0  0  0  0  0
   -5.9764   -3.2275   -0.3319 H   0  0  0  0  0  0  0  0  0  0  0  0
   -5.6009   -2.4313   -1.8789 H   0  0  0  0  0  0  0  0  0  0  0  0
   -4.4213   -2.3887   -0.5467 H   0  0  0  0  0  0  0  0  0  0  0  0
   -8.0556   -0.1529   -0.2502 H   0  0  0  0  0  0  0  0  0  0  0  0
   -7.7267   -1.1235   -1.7055 H   0  0  0  0  0  0  0  0  0  0  0  0
   -8.0850   -1.9303   -0.1599 H   0  0  0  0  0  0  0  0  0  0  0  0
   -1.8280   -0.7348    2.6849 H   0  0  0  0  0  0  0  0  0  0  0  0
    6.7686    1.8878   -0.2387 H   0  0  0  0  0  0  0  0  0  0  0  0
    5.9218   -4.4682    1.3888 H   0  0  0  0  0  0  0  0  0  0  0  0
    4.6719   -3.4861    2.1898 H   0  0  0  0  0  0  0  0  0  0  0  0
    4.1998   -4.7880    1.0715 H   0  0  0  0  0  0  0  0  0  0  0  0
  1  2  1  0  0  0  0
  2  3  2  0  0  0  0
  3  4  1  0  0  0  0
  4  5  1  0  0  0  0
  5  6  2  0  0  0  0
  6  7  1  0  0  0  0
  7  8  2  0  0  0  0
  8  9  1  0  0  0  0
  9 10  2  0  0  0  0
  5 10  1  0  0  0  0
 10 11  1  0  0  0  0
  9 12  1  0  0  0  0
 12 13  2  0  0  0  0
 13 14  1  0  0  0  0
 14 15  1  0  0  0  0
 15 16  2  0  0  0  0
 16 17  1  0  0  0  0
 17 18  2  0  0  0  0
 18 19  1  0  0  0  0
 19 20  2  0  0  0  0
 20 21  1  0  0  0  0
 21 22  1  0  0  0  0
 17 22  1  0  0  0  0
 21 23  1  0  0  0  0
 21 24  1  0  0  0  0
 18 25  1  0  0  0  0
 25 26  2  0  0  0  0
 15 26  1  0  0  0  0
 26 27  1  0  0  0  0
 12 27  1  0  0  0  0
 27 28  2  0  0  0  0
 25 29  1  0  0  0  0
  6 30  1  0  0  0  0
  2 31  1  0  0  0  0
  1 32  1  0  0  0  0
  1 33  1  0  0  0  0
  1 34  1  0  0  0  0
  3 35  1  0  0  0  0
  4 36  1  0  0  0  0
  4 37  1  0  0  0  0
  7 38  1  0  0  0  0
  8 39  1  0  0  0  0
 11 40  1  0  0  0  0
 13 41  1  0  0  0  0
 16 42  1  0  0  0  0
 19 43  1  0  0  0  0
 20 44  1  0  0  0  0
 23 45  1  0  0  0  0
 23 46  1  0  0  0  0
 23 47  1  0  0  0  0
 24 48  1  0  0  0  0
 24 49  1  0  0  0  0
 24 50  1  0  0  0  0
 29 51  1  0  0  0  0
 30 52  1  0  0  0  0
 31 53  1  0  0  0  0
 31 54  1  0  0  0  0
 31 55  1  0  0  0  0
M  END
$$$$
