C45H38O18
APtclcactv06281817443D 0   0.00000     0.00000
 
101109  0  0  0  0  0  0  0  0999 V2000
   -2.8911   -0.5683    0.1483 C   0  0  0  0  0  0  0  0  0  0  0  0
   -4.2971   -1.1324   -0.0706 C   0  0  0  0  0  0  0  0  0  0  0  0
   -5.2955    0.0314   -0.0232 C   0  0  0  0  0  0  0  0  0  0  0  0
   -5.0275    0.8996   -1.1251 O   0  0  0  0  0  0  0  0  0  0  0  0
   -3.7427    1.2925   -1.3264 C   0  0  0  0  0  0  0  0  0  0  0  0
   -3.5073    2.3960   -2.1393 C   0  0  0  0  0  0  0  0  0  0  0  0
   -2.2120    2.8278   -2.3735 C   0  0  0  0  0  0  0  0  0  0  0  0
   -1.1447    2.1570   -1.7960 C   0  0  0  0  0  0  0  0  0  0  0  0
   -1.3779    1.0580   -0.9852 C   0  0  0  0  0  0  0  0  0  0  0  0
   -2.6774    0.6254   -0.7476 C   0  0  0  0  0  0  0  0  0  0  0  0
   -0.3318    0.4001   -0.4199 O   0  0  0  0  0  0  0  0  0  0  0  0
    0.2660    2.6221   -2.0501 C   0  0  0  0  0  0  0  0  0  0  0  0
    0.6928    3.5847   -0.9392 C   0  0  0  0  0  0  0  0  0  0  0  0
    0.9063    2.7734    0.3452 C   0  0  0  0  0  0  0  0  0  0  0  0
    2.0009    1.8801    0.1365 O   0  0  0  0  0  0  0  0  0  0  0  0
    1.9966    1.1230   -0.9916 C   0  0  0  0  0  0  0  0  0  0  0  0
    2.8316    0.0123   -1.0466 C   0  0  0  0  0  0  0  0  0  0  0  0
    2.8618   -0.7838   -2.1800 C   0  0  0  0  0  0  0  0  0  0  0  0
    2.0558   -0.4729   -3.2646 C   0  0  0  0  0  0  0  0  0  0  0  0
    1.2217    0.6320   -3.2101 C   0  0  0  0  0  0  0  0  0  0  0  0
    1.1904    1.4311   -2.0732 C   0  0  0  0  0  0  0  0  0  0  0  0
    0.4315    0.9364   -4.2730 O   0  0  0  0  0  0  0  0  0  0  0  0
    3.6803   -1.8675   -2.2288 O   0  0  0  0  0  0  0  0  0  0  0  0
    3.7079   -0.3266    0.1316 C   0  0  0  0  0  0  0  0  0  0  0  0
    2.9654   -1.2937    1.0570 C   0  0  0  0  0  0  0  0  0  0  0  0
    2.9006   -2.6636    0.3697 C   0  0  0  0  0  0  0  0  0  0  0  0
    4.2315   -3.1649    0.2387 O   0  0  0  0  0  0  0  0  0  0  0  0
    5.1733   -2.3371   -0.2843 C   0  0  0  0  0  0  0  0  0  0  0  0
    6.3581   -2.8945   -0.7527 C   0  0  0  0  0  0  0  0  0  0  0  0
    7.3468   -2.0858   -1.2891 C   0  0  0  0  0  0  0  0  0  0  0  0
    7.1549   -0.7144   -1.3602 C   0  0  0  0  0  0  0  0  0  0  0  0
    5.9738   -0.1581   -0.8962 C   0  0  0  0  0  0  0  0  0  0  0  0
    4.9811   -0.9688   -0.3583 C   0  0  0  0  0  0  0  0  0  0  0  0
    5.7856    1.1859   -0.9664 O   0  0  0  0  0  0  0  0  0  0  0  0
    8.5031   -2.6357   -1.7444 O   0  0  0  0  0  0  0  0  0  0  0  0
    2.0807   -3.6126    1.2053 C   0  0  0  0  0  0  0  0  0  0  0  0
    0.7625   -3.8625    0.8720 C   0  0  0  0  0  0  0  0  0  0  0  0
    0.0073   -4.7347    1.6394 C   0  0  0  0  0  0  0  0  0  0  0  0
    0.5788   -5.3575    2.7448 C   0  0  0  0  0  0  0  0  0  0  0  0
    1.9006   -5.1026    3.0733 C   0  0  0  0  0  0  0  0  0  0  0  0
    2.6501   -4.2357    2.3003 C   0  0  0  0  0  0  0  0  0  0  0  0
   -0.1585   -6.2140    3.5013 O   0  0  0  0  0  0  0  0  0  0  0  0
   -1.2897   -4.9813    1.3131 O   0  0  0  0  0  0  0  0  0  0  0  0
    3.6675   -1.4093    2.2963 O   0  0  0  0  0  0  0  0  0  0  0  0
    1.2217    3.7046    1.4873 C   0  0  0  0  0  0  0  0  0  0  0  0
    0.2306    4.0553    2.3851 C   0  0  0  0  0  0  0  0  0  0  0  0
    0.5190    4.9114    3.4358 C   0  0  0  0  0  0  0  0  0  0  0  0
    1.8071    5.4163    3.5844 C   0  0  0  0  0  0  0  0  0  0  0  0
    2.7958    5.0608    2.6810 C   0  0  0  0  0  0  0  0  0  0  0  0
    2.5029    4.2018    1.6383 C   0  0  0  0  0  0  0  0  0  0  0  0
    2.0949    6.2572    4.6137 O   0  0  0  0  0  0  0  0  0  0  0  0
   -0.4549    5.2577    4.3195 O   0  0  0  0  0  0  0  0  0  0  0  0
    1.9113    4.2345   -1.3066 O   0  0  0  0  0  0  0  0  0  0  0  0
   -1.9877    3.9070   -3.1683 O   0  0  0  0  0  0  0  0  0  0  0  0
   -6.7014   -0.5013   -0.1268 C   0  0  0  0  0  0  0  0  0  0  0  0
   -7.4708   -0.6434    1.0129 C   0  0  0  0  0  0  0  0  0  0  0  0
   -8.7637   -1.1331    0.9193 C   0  0  0  0  0  0  0  0  0  0  0  0
   -9.2844   -1.4809   -0.3234 C   0  0  0  0  0  0  0  0  0  0  0  0
   -8.5079   -1.3359   -1.4618 C   0  0  0  0  0  0  0  0  0  0  0  0
   -7.2207   -0.8415   -1.3621 C   0  0  0  0  0  0  0  0  0  0  0  0
  -10.5526   -1.9623   -0.4203 O   0  0  0  0  0  0  0  0  0  0  0  0
   -9.5218   -1.2740    2.0395 O   0  0  0  0  0  0  0  0  0  0  0  0
   -4.3655   -1.7740   -1.3456 O   0  0  0  0  0  0  0  0  0  0  0  0
   -2.7801   -0.2650    1.1894 H   0  0  0  0  0  0  0  0  0  0  0  0
   -2.1523   -1.3347   -0.0862 H   0  0  0  0  0  0  0  0  0  0  0  0
   -4.5317   -1.8500    0.7156 H   0  0  0  0  0  0  0  0  0  0  0  0
   -5.1776    0.5784    0.9123 H   0  0  0  0  0  0  0  0  0  0  0  0
   -4.3380    2.9188   -2.5897 H   0  0  0  0  0  0  0  0  0  0  0  0
   -0.0766    0.7399    0.4488 H   0  0  0  0  0  0  0  0  0  0  0  0
    0.3115    3.1344   -3.0111 H   0  0  0  0  0  0  0  0  0  0  0  0
   -0.0871    4.3290   -0.7782 H   0  0  0  0  0  0  0  0  0  0  0  0
    0.0057    2.2035    0.5735 H   0  0  0  0  0  0  0  0  0  0  0  0
    2.0785   -1.0906   -4.1503 H   0  0  0  0  0  0  0  0  0  0  0  0
   -0.4416    0.5215   -4.2455 H   0  0  0  0  0  0  0  0  0  0  0  0
    3.2517   -2.6959   -1.9737 H   0  0  0  0  0  0  0  0  0  0  0  0
    3.9493    0.5851    0.6782 H   0  0  0  0  0  0  0  0  0  0  0  0
    1.9557   -0.9258    1.2391 H   0  0  0  0  0  0  0  0  0  0  0  0
    2.4491   -2.5584   -0.6168 H   0  0  0  0  0  0  0  0  0  0  0  0
    6.5084   -3.9626   -0.6977 H   0  0  0  0  0  0  0  0  0  0  0  0
    7.9245   -0.0812   -1.7762 H   0  0  0  0  0  0  0  0  0  0  0  0
    5.3726    1.4828   -1.7889 H   0  0  0  0  0  0  0  0  0  0  0  0
    8.4782   -2.8870   -2.6778 H   0  0  0  0  0  0  0  0  0  0  0  0
    0.3213   -3.3776    0.0138 H   0  0  0  0  0  0  0  0  0  0  0  0
    2.3465   -5.5847    3.9308 H   0  0  0  0  0  0  0  0  0  0  0  0
    3.6802   -4.0379    2.5574 H   0  0  0  0  0  0  0  0  0  0  0  0
   -0.1151   -7.1346    3.2083 H   0  0  0  0  0  0  0  0  0  0  0  0
   -1.4082   -5.7252    0.7068 H   0  0  0  0  0  0  0  0  0  0  0  0
    3.2502   -2.0084    2.9304 H   0  0  0  0  0  0  0  0  0  0  0  0
   -0.7684    3.6623    2.2673 H   0  0  0  0  0  0  0  0  0  0  0  0
    3.7964    5.4513    2.7941 H   0  0  0  0  0  0  0  0  0  0  0  0
    3.2744    3.9254    0.9348 H   0  0  0  0  0  0  0  0  0  0  0  0
    2.3911    5.8082    5.4174 H   0  0  0  0  0  0  0  0  0  0  0  0
   -0.5239    4.6655    5.0809 H   0  0  0  0  0  0  0  0  0  0  0  0
    2.2386    4.8596   -0.6454 H   0  0  0  0  0  0  0  0  0  0  0  0
   -1.9719    4.7490   -2.6931 H   0  0  0  0  0  0  0  0  0  0  0  0
   -7.0641   -0.3731    1.9762 H   0  0  0  0  0  0  0  0  0  0  0  0
   -8.9096   -1.6051   -2.4274 H   0  0  0  0  0  0  0  0  0  0  0  0
   -6.6165   -0.7290   -2.2501 H   0  0  0  0  0  0  0  0  0  0  0  0
  -11.2239   -1.2787   -0.5510 H   0  0  0  0  0  0  0  0  0  0  0  0
  -10.0453   -0.4917    2.2610 H   0  0  0  0  0  0  0  0  0  0  0  0
   -3.7461   -2.5092   -1.4497 H   0  0  0  0  0  0  0  0  0  0  0  0
  1  2  1  0  0  0  0
  2  3  1  0  0  0  0
  3  4  1  0  0  0  0
  4  5  1  0  0  0  0
  5  6  2  0  0  0  0
  6  7  1  0  0  0  0
  7  8  2  0  0  0  0
  8  9  1  0  0  0  0
  9 10  2  0  0  0  0
  5 10  1  0  0  0  0
  1 10  1  0  0  0  0
  9 11  1  0  0  0  0
  8 12  1  0  0  0  0
 12 13  1  0  0  0  0
 13 14  1  0  0  0  0
 14 15  1  0  0  0  0
 15 16  1  0  0  0  0
 16 17  2  0  0  0  0
 17 18  1  0  0  0  0
 18 19  2  0  0  0  0
 19 20  1  0  0  0  0
 20 21  2  0  0  0  0
 12 21  1  0  0  0  0
 16 21  1  0  0  0  0
 20 22  1  0  0  0  0
 18 23  1  0  0  0  0
 17 24  1  0  0  0  0
 24 25  1  0  0  0  0
 25 26  1  0  0  0  0
 26 27  1  0  0  0  0
 27 28  1  0  0  0  0
 28 29  2  0  0  0  0
 29 30  1  0  0  0  0
 30 31  2  0  0  0  0
 31 32  1  0  0  0  0
 32 33  2  0  0  0  0
 24 33  1  0  0  0  0
 28 33  1  0  0  0  0
 32 34  1  0  0  0  0
 30 35  1  0  0  0  0
 26 36  1  0  0  0  0
 36 37  2  0  0  0  0
 37 38  1  0  0  0  0
 38 39  2  0  0  0  0
 39 40  1  0  0  0  0
 40 41  2  0  0  0  0
 36 41  1  0  0  0  0
 39 42  1  0  0  0  0
 38 43  1  0  0  0  0
 25 44  1  0  0  0  0
 14 45  1  0  0  0  0
 45 46  2  0  0  0  0
 46 47  1  0  0  0  0
 47 48  2  0  0  0  0
 48 49  1  0  0  0  0
 49 50  2  0  0  0  0
 45 50  1  0  0  0  0
 48 51  1  0  0  0  0
 47 52  1  0  0  0  0
 13 53  1  0  0  0  0
  7 54  1  0  0  0  0
  3 55  1  0  0  0  0
 55 56  2  0  0  0  0
 56 57  1  0  0  0  0
 57 58  2  0  0  0  0
 58 59  1  0  0  0  0
 59 60  2  0  0  0  0
 55 60  1  0  0  0  0
 58 61  1  0  0  0  0
 57 62  1  0  0  0  0
  2 63  1  0  0  0  0
  1 64  1  0  0  0  0
  1 65  1  0  0  0  0
  2 66  1  0  0  0  0
  3 67  1  0  0  0  0
  6 68  1  0  0  0  0
 11 69  1  0  0  0  0
 12 70  1  0  0  0  0
 13 71  1  0  0  0  0
 14 72  1  0  0  0  0
 19 73  1  0  0  0  0
 22 74  1  0  0  0  0
 23 75  1  0  0  0  0
 24 76  1  0  0  0  0
 25 77  1  0  0  0  0
 26 78  1  0  0  0  0
 29 79  1  0  0  0  0
 31 80  1  0  0  0  0
 34 81  1  0  0  0  0
 35 82  1  0  0  0  0
 37 83  1  0  0  0  0
 40 84  1  0  0  0  0
 41 85  1  0  0  0  0
 42 86  1  0  0  0  0
 43 87  1  0  0  0  0
 44 88  1  0  0  0  0
 46 89  1  0  0  0  0
 49 90  1  0  0  0  0
 50 91  1  0  0  0  0
 51 92  1  0  0  0  0
 52 93  1  0  0  0  0
 53 94  1  0  0  0  0
 54 95  1  0  0  0  0
 56 96  1  0  0  0  0
 59 97  1  0  0  0  0
 60 98  1  0  0  0  0
 61 99  1  0  0  0  0
 62100  1  0  0  0  0
 63101  1  0  0  0  0
M  END
$$$$
