C20H16O5
APtclcactv06281817443D 0   0.00000     0.00000
 
 41 44  0  0  0  0  0  0  0  0999 V2000
   -5.2278    1.6402   -1.0553 C   0  0  0  0  0  0  0  0  0  0  0  0
   -5.5260    0.2450   -0.5027 C   0  0  0  0  0  0  0  0  0  0  0  0
   -5.0508   -0.7910   -1.4869 C   0  0  0  0  0  0  0  0  0  0  0  0
   -3.8032   -1.2505   -1.4200 C   0  0  0  0  0  0  0  0  0  0  0  0
   -2.9238   -0.7235   -0.3536 C   0  0  0  0  0  0  0  0  0  0  0  0
   -3.5144   -0.0534    0.7282 C   0  0  0  0  0  0  0  0  0  0  0  0
   -4.8653    0.0847    0.7532 O   0  0  0  0  0  0  0  0  0  0  0  0
   -2.7217    0.4524    1.7430 C   0  0  0  0  0  0  0  0  0  0  0  0
   -1.3505    0.2972    1.6902 C   0  0  0  0  0  0  0  0  0  0  0  0
   -0.7558   -0.3681    0.6178 C   0  0  0  0  0  0  0  0  0  0  0  0
   -1.5454   -0.8814   -0.4085 C   0  0  0  0  0  0  0  0  0  0  0  0
    0.7180   -0.5295    0.5707 C   0  0  0  0  0  0  0  0  0  0  0  0
    1.2886   -1.7595    0.6416 C   0  0  0  0  0  0  0  0  0  0  0  0
    2.6078   -1.9523    0.6207 O   0  0  0  0  0  0  0  0  0  0  0  0
    3.4500   -0.9840    0.2123 C   0  0  0  0  0  0  0  0  0  0  0  0
    4.7630   -1.2881   -0.1192 C   0  0  0  0  0  0  0  0  0  0  0  0
    5.6276   -0.2853   -0.5281 C   0  0  0  0  0  0  0  0  0  0  0  0
    5.1977    1.0346   -0.6118 C   0  0  0  0  0  0  0  0  0  0  0  0
    3.8926    1.3595   -0.2894 C   0  0  0  0  0  0  0  0  0  0  0  0
    3.0122    0.3495    0.1158 C   0  0  0  0  0  0  0  0  0  0  0  0
    1.6066    0.6422    0.4394 C   0  0  0  0  0  0  0  0  0  0  0  0
    1.2010    1.7816    0.5935 O   0  0  0  0  0  0  0  0  0  0  0  0
    3.4693    2.6465   -0.3650 O   0  0  0  0  0  0  0  0  0  0  0  0
    6.9091   -0.5950   -0.8512 O   0  0  0  0  0  0  0  0  0  0  0  0
   -7.0351    0.0943   -0.3008 C   0  0  0  0  0  0  0  0  0  0  0  0
   -5.7463    1.7734   -2.0047 H   0  0  0  0  0  0  0  0  0  0  0  0
   -5.5705    2.3930   -0.3454 H   0  0  0  0  0  0  0  0  0  0  0  0
   -4.1541    1.7481   -1.2093 H   0  0  0  0  0  0  0  0  0  0  0  0
   -5.7225   -1.1616   -2.2470 H   0  0  0  0  0  0  0  0  0  0  0  0
   -3.4437   -1.9867   -2.1236 H   0  0  0  0  0  0  0  0  0  0  0  0
   -3.1751    0.9688    2.5761 H   0  0  0  0  0  0  0  0  0  0  0  0
   -0.7346    0.6936    2.4839 H   0  0  0  0  0  0  0  0  0  0  0  0
   -1.0892   -1.3973   -1.2404 H   0  0  0  0  0  0  0  0  0  0  0  0
    0.6436   -2.6223    0.7189 H   0  0  0  0  0  0  0  0  0  0  0  0
    5.1117   -2.3084   -0.0580 H   0  0  0  0  0  0  0  0  0  0  0  0
    5.8835    1.8065   -0.9284 H   0  0  0  0  0  0  0  0  0  0  0  0
    3.1071    2.8914   -1.2274 H   0  0  0  0  0  0  0  0  0  0  0  0
    7.0370   -0.8169   -1.7837 H   0  0  0  0  0  0  0  0  0  0  0  0
   -7.5443    0.2255   -1.2556 H   0  0  0  0  0  0  0  0  0  0  0  0
   -7.2517   -0.8988    0.0930 H   0  0  0  0  0  0  0  0  0  0  0  0
   -7.3845    0.8487    0.4041 H   0  0  0  0  0  0  0  0  0  0  0  0
  1  2  1  0  0  0  0
  2  3  1  0  0  0  0
  3  4  2  0  0  0  0
  4  5  1  0  0  0  0
  5  6  2  0  0  0  0
  6  7  1  0  0  0  0
  2  7  1  0  0  0  0
  6  8  1  0  0  0  0
  8  9  2  0  0  0  0
  9 10  1  0  0  0  0
 10 11  2  0  0  0  0
  5 11  1  0  0  0  0
 10 12  1  0  0  0  0
 12 13  2  0  0  0  0
 13 14  1  0  0  0  0
 14 15  1  0  0  0  0
 15 16  2  0  0  0  0
 16 17  1  0  0  0  0
 17 18  2  0  0  0  0
 18 19  1  0  0  0  0
 19 20  2  0  0  0  0
 15 20  1  0  0  0  0
 20 21  1  0  0  0  0
 12 21  1  0  0  0  0
 21 22  2  0  0  0  0
 19 23  1  0  0  0  0
 17 24  1  0  0  0  0
  2 25  1  0  0  0  0
  1 26  1  0  0  0  0
  1 27  1  0  0  0  0
  1 28  1  0  0  0  0
  3 29  1  0  0  0  0
  4 30  1  0  0  0  0
  8 31  1  0  0  0  0
  9 32  1  0  0  0  0
 11 33  1  0  0  0  0
 13 34  1  0  0  0  0
 16 35  1  0  0  0  0
 18 36  1  0  0  0  0
 23 37  1  0  0  0  0
 24 38  1  0  0  0  0
 25 39  1  0  0  0  0
 25 40  1  0  0  0  0
 25 41  1  0  0  0  0
M  END
$$$$
