C25H26O6
APtclcactv06281817443D 0   0.00000     0.00000
 
 57 59  0  0  0  0  0  0  0  0999 V2000
   -4.7758   -1.0842    3.0584 C   0  0  0  0  0  0  0  0  0  0  0  0
   -5.4462   -1.4143    1.7497 C   0  0  0  0  0  0  0  0  0  0  0  0
   -5.5311   -0.5058    0.8098 C   0  0  0  0  0  0  0  0  0  0  0  0
   -4.9008    0.8481    1.0114 C   0  0  0  0  0  0  0  0  0  0  0  0
   -3.8713    1.0879   -0.0628 C   0  0  0  0  0  0  0  0  0  0  0  0
   -4.2407    1.6944   -1.2541 C   0  0  0  0  0  0  0  0  0  0  0  0
   -3.2955    1.9173   -2.2466 C   0  0  0  0  0  0  0  0  0  0  0  0
   -1.9838    1.5363   -2.0532 C   0  0  0  0  0  0  0  0  0  0  0  0
   -1.6048    0.9264   -0.8593 C   0  0  0  0  0  0  0  0  0  0  0  0
   -2.5560    0.7078    0.1422 C   0  0  0  0  0  0  0  0  0  0  0  0
   -2.1925    0.1135    1.3088 O   0  0  0  0  0  0  0  0  0  0  0  0
   -0.1954    0.5153   -0.6489 C   0  0  0  0  0  0  0  0  0  0  0  0
    0.6252    1.2259    0.1665 C   0  0  0  0  0  0  0  0  0  0  0  0
    1.9032    0.9049    0.3727 O   0  0  0  0  0  0  0  0  0  0  0  0
    2.3820   -0.3095    0.0419 C   0  0  0  0  0  0  0  0  0  0  0  0
    1.6559   -1.1541   -0.8169 C   0  0  0  0  0  0  0  0  0  0  0  0
    0.3540   -0.6822   -1.3152 C   0  0  0  0  0  0  0  0  0  0  0  0
   -0.2315   -1.2404   -2.2275 O   0  0  0  0  0  0  0  0  0  0  0  0
    2.1614   -2.4101   -1.1742 C   0  0  0  0  0  0  0  0  0  0  0  0
    3.3789   -2.8225   -0.6651 C   0  0  0  0  0  0  0  0  0  0  0  0
    4.0926   -1.9917    0.1925 C   0  0  0  0  0  0  0  0  0  0  0  0
    3.6012   -0.7450    0.5436 C   0  0  0  0  0  0  0  0  0  0  0  0
    4.3909    0.1399    1.4734 C   0  0  0  0  0  0  0  0  0  0  0  0
    5.3203    1.0114    0.6686 C   0  0  0  0  0  0  0  0  0  0  0  0
    5.2782    2.3138    0.8038 C   0  0  0  0  0  0  0  0  0  0  0  0
    4.2097    2.9487    1.6561 C   0  0  0  0  0  0  0  0  0  0  0  0
    6.2981    3.1770    0.1070 C   0  0  0  0  0  0  0  0  0  0  0  0
    5.2849   -2.4073    0.6908 O   0  0  0  0  0  0  0  0  0  0  0  0
    1.4621   -3.2160   -2.0126 O   0  0  0  0  0  0  0  0  0  0  0  0
   -5.5316    2.0713   -1.4509 O   0  0  0  0  0  0  0  0  0  0  0  0
   -6.0189   -2.7896    1.5224 C   0  0  0  0  0  0  0  0  0  0  0  0
   -5.2432   -0.2007    3.4934 H   0  0  0  0  0  0  0  0  0  0  0  0
   -4.8816   -1.9256    3.7433 H   0  0  0  0  0  0  0  0  0  0  0  0
   -3.7178   -0.8874    2.8852 H   0  0  0  0  0  0  0  0  0  0  0  0
   -6.0528   -0.7271   -0.1096 H   0  0  0  0  0  0  0  0  0  0  0  0
   -5.6698    1.6187    0.9561 H   0  0  0  0  0  0  0  0  0  0  0  0
   -4.4206    0.8834    1.9892 H   0  0  0  0  0  0  0  0  0  0  0  0
   -3.5881    2.3900   -3.1726 H   0  0  0  0  0  0  0  0  0  0  0  0
   -1.2510    1.7103   -2.8272 H   0  0  0  0  0  0  0  0  0  0  0  0
   -1.9046    0.7333    1.9929 H   0  0  0  0  0  0  0  0  0  0  0  0
    0.2244    2.0922    0.6717 H   0  0  0  0  0  0  0  0  0  0  0  0
    3.7759   -3.7904   -0.9332 H   0  0  0  0  0  0  0  0  0  0  0  0
    3.7076    0.7680    2.0449 H   0  0  0  0  0  0  0  0  0  0  0  0
    4.9731   -0.4786    2.1564 H   0  0  0  0  0  0  0  0  0  0  0  0
    6.0212    0.5624   -0.0195 H   0  0  0  0  0  0  0  0  0  0  0  0
    4.5259    2.9429    2.6992 H   0  0  0  0  0  0  0  0  0  0  0  0
    4.0486    3.9765    1.3309 H   0  0  0  0  0  0  0  0  0  0  0  0
    3.2818    2.3858    1.5545 H   0  0  0  0  0  0  0  0  0  0  0  0
    6.9838    2.5454   -0.4577 H   0  0  0  0  0  0  0  0  0  0  0  0
    5.7910    3.8615   -0.5730 H   0  0  0  0  0  0  0  0  0  0  0  0
    6.8572    3.7486    0.8478 H   0  0  0  0  0  0  0  0  0  0  0  0
    6.0450   -2.1689    0.1425 H   0  0  0  0  0  0  0  0  0  0  0  0
    1.6713   -3.0869   -2.9478 H   0  0  0  0  0  0  0  0  0  0  0  0
   -5.7269    2.9725   -1.1598 H   0  0  0  0  0  0  0  0  0  0  0  0
   -7.0581   -2.8092    1.8505 H   0  0  0  0  0  0  0  0  0  0  0  0
   -5.9682   -3.0334    0.4612 H   0  0  0  0  0  0  0  0  0  0  0  0
   -5.4444   -3.5209    2.0910 H   0  0  0  0  0  0  0  0  0  0  0  0
  1  2  1  0  0  0  0
  2  3  2  0  0  0  0
  3  4  1  0  0  0  0
  4  5  1  0  0  0  0
  5  6  2  0  0  0  0
  6  7  1  0  0  0  0
  7  8  2  0  0  0  0
  8  9  1  0  0  0  0
  9 10  2  0  0  0  0
  5 10  1  0  0  0  0
 10 11  1  0  0  0  0
  9 12  1  0  0  0  0
 12 13  2  0  0  0  0
 13 14  1  0  0  0  0
 14 15  1  0  0  0  0
 15 16  2  0  0  0  0
 16 17  1  0  0  0  0
 12 17  1  0  0  0  0
 17 18  2  0  0  0  0
 16 19  1  0  0  0  0
 19 20  2  0  0  0  0
 20 21  1  0  0  0  0
 21 22  2  0  0  0  0
 15 22  1  0  0  0  0
 22 23  1  0  0  0  0
 23 24  1  0  0  0  0
 24 25  2  0  0  0  0
 25 26  1  0  0  0  0
 25 27  1  0  0  0  0
 21 28  1  0  0  0  0
 19 29  1  0  0  0  0
  6 30  1  0  0  0  0
  2 31  1  0  0  0  0
  1 32  1  0  0  0  0
  1 33  1  0  0  0  0
  1 34  1  0  0  0  0
  3 35  1  0  0  0  0
  4 36  1  0  0  0  0
  4 37  1  0  0  0  0
  7 38  1  0  0  0  0
  8 39  1  0  0  0  0
 11 40  1  0  0  0  0
 13 41  1  0  0  0  0
 20 42  1  0  0  0  0
 23 43  1  0  0  0  0
 23 44  1  0  0  0  0
 24 45  1  0  0  0  0
 26 46  1  0  0  0  0
 26 47  1  0  0  0  0
 26 48  1  0  0  0  0
 27 49  1  0  0  0  0
 27 50  1  0  0  0  0
 27 51  1  0  0  0  0
 28 52  1  0  0  0  0
 29 53  1  0  0  0  0
 30 54  1  0  0  0  0
 31 55  1  0  0  0  0
 31 56  1  0  0  0  0
 31 57  1  0  0  0  0
M  END
$$$$
