C11H24
APtclcactv06211806063D 0   0.00000     0.00000
 
 35 34  0  0  0  0  0  0  0  0999 V2000
    6.2462   -0.3963   -0.0000 C   0  0  0  0  0  0  0  0  0  0  0  0
    4.9970    0.4870    0.0000 C   0  0  0  0  0  0  0  0  0  0  0  0
    3.7477   -0.3963   -0.0000 C   0  0  0  0  0  0  0  0  0  0  0  0
    2.4985    0.4870    0.0000 C   0  0  0  0  0  0  0  0  0  0  0  0
    1.2492   -0.3963   -0.0000 C   0  0  0  0  0  0  0  0  0  0  0  0
   -0.0000    0.4870    0.0000 C   0  0  0  0  0  0  0  0  0  0  0  0
   -1.2492   -0.3963    0.0000 C   0  0  0  0  0  0  0  0  0  0  0  0
   -2.4985    0.4870   -0.0000 C   0  0  0  0  0  0  0  0  0  0  0  0
   -3.7477   -0.3963    0.0000 C   0  0  0  0  0  0  0  0  0  0  0  0
   -4.9970    0.4870   -0.0000 C   0  0  0  0  0  0  0  0  0  0  0  0
   -6.2462   -0.3963    0.0000 C   0  0  0  0  0  0  0  0  0  0  0  0
    7.1362    0.2330    0.0000 H   0  0  0  0  0  0  0  0  0  0  0  0
    6.2462   -1.0257    0.8900 H   0  0  0  0  0  0  0  0  0  0  0  0
    6.2462   -1.0257   -0.8900 H   0  0  0  0  0  0  0  0  0  0  0  0
    4.9970    1.1163    0.8900 H   0  0  0  0  0  0  0  0  0  0  0  0
    4.9970    1.1163   -0.8900 H   0  0  0  0  0  0  0  0  0  0  0  0
    3.7477   -1.0257   -0.8900 H   0  0  0  0  0  0  0  0  0  0  0  0
    3.7477   -1.0257    0.8900 H   0  0  0  0  0  0  0  0  0  0  0  0
    2.4985    1.1163    0.8900 H   0  0  0  0  0  0  0  0  0  0  0  0
    2.4985    1.1163   -0.8900 H   0  0  0  0  0  0  0  0  0  0  0  0
    1.2492   -1.0257   -0.8900 H   0  0  0  0  0  0  0  0  0  0  0  0
    1.2492   -1.0257    0.8900 H   0  0  0  0  0  0  0  0  0  0  0  0
    0.0000    1.1163    0.8900 H   0  0  0  0  0  0  0  0  0  0  0  0
   -0.0000    1.1163   -0.8900 H   0  0  0  0  0  0  0  0  0  0  0  0
   -1.2492   -1.0257   -0.8900 H   0  0  0  0  0  0  0  0  0  0  0  0
   -1.2492   -1.0257    0.8900 H   0  0  0  0  0  0  0  0  0  0  0  0
   -2.4985    1.1163    0.8900 H   0  0  0  0  0  0  0  0  0  0  0  0
   -2.4985    1.1163   -0.8900 H   0  0  0  0  0  0  0  0  0  0  0  0
   -3.7477   -1.0257   -0.8900 H   0  0  0  0  0  0  0  0  0  0  0  0
   -3.7477   -1.0257    0.8900 H   0  0  0  0  0  0  0  0  0  0  0  0
   -4.9970    1.1163    0.8900 H   0  0  0  0  0  0  0  0  0  0  0  0
   -4.9970    1.1163   -0.8900 H   0  0  0  0  0  0  0  0  0  0  0  0
   -7.1362    0.2330   -0.0000 H   0  0  0  0  0  0  0  0  0  0  0  0
   -6.2462   -1.0257   -0.8900 H   0  0  0  0  0  0  0  0  0  0  0  0
   -6.2462   -1.0257    0.8900 H   0  0  0  0  0  0  0  0  0  0  0  0
  1  2  1  0  0  0  0
  2  3  1  0  0  0  0
  3  4  1  0  0  0  0
  4  5  1  0  0  0  0
  5  6  1  0  0  0  0
  6  7  1  0  0  0  0
  7  8  1  0  0  0  0
  8  9  1  0  0  0  0
  9 10  1  0  0  0  0
 10 11  1  0  0  0  0
  1 12  1  0  0  0  0
  1 13  1  0  0  0  0
  1 14  1  0  0  0  0
  2 15  1  0  0  0  0
  2 16  1  0  0  0  0
  3 17  1  0  0  0  0
  3 18  1  0  0  0  0
  4 19  1  0  0  0  0
  4 20  1  0  0  0  0
  5 21  1  0  0  0  0
  5 22  1  0  0  0  0
  6 23  1  0  0  0  0
  6 24  1  0  0  0  0
  7 25  1  0  0  0  0
  7 26  1  0  0  0  0
  8 27  1  0  0  0  0
  8 28  1  0  0  0  0
  9 29  1  0  0  0  0
  9 30  1  0  0  0  0
 10 31  1  0  0  0  0
 10 32  1  0  0  0  0
 11 33  1  0  0  0  0
 11 34  1  0  0  0  0
 11 35  1  0  0  0  0
M  END
$$$$
