C40H56O2
APtclcactv06281817443D 0   0.00000     0.00000
 
 98100  0  0  0  0  0  0  0  0999 V2000
  -11.2531   -1.1712   -1.9577 C   0  0  0  0  0  0  0  0  0  0  0  0
  -12.3586   -0.7958   -1.0048 C   0  0  0  0  0  0  0  0  0  0  0  0
  -12.1274    0.1684   -0.1296 C   0  0  0  0  0  0  0  0  0  0  0  0
  -13.1346    0.6352    0.8807 C   0  0  0  0  0  0  0  0  0  0  0  0
  -14.5358    0.1674    0.4822 C   0  0  0  0  0  0  0  0  0  0  0  0
  -14.4791   -1.3337    0.1737 C   0  0  0  0  0  0  0  0  0  0  0  0
  -13.6620   -1.5332   -1.1065 C   0  0  0  0  0  0  0  0  0  0  0  0
  -12.7795    0.0610    2.2536 C   0  0  0  0  0  0  0  0  0  0  0  0
  -13.1111    2.1634    0.9516 C   0  0  0  0  0  0  0  0  0  0  0  0
  -10.8564    0.7962   -0.1463 C   0  0  0  0  0  0  0  0  0  0  0  0
   -9.7295    0.0533    0.0118 C   0  0  0  0  0  0  0  0  0  0  0  0
   -8.4662    0.6525   -0.1352 C   0  0  0  0  0  0  0  0  0  0  0  0
   -7.3344   -0.0937    0.0236 C   0  0  0  0  0  0  0  0  0  0  0  0
   -6.0748    0.5037   -0.1230 C   0  0  0  0  0  0  0  0  0  0  0  0
   -4.9330   -0.2489    0.0373 C   0  0  0  0  0  0  0  0  0  0  0  0
   -3.6750    0.3478   -0.1092 C   0  0  0  0  0  0  0  0  0  0  0  0
   -2.5323   -0.4055    0.0512 C   0  0  0  0  0  0  0  0  0  0  0  0
   -1.2747    0.1910   -0.0952 C   0  0  0  0  0  0  0  0  0  0  0  0
   -0.1321   -0.5622    0.0652 C   0  0  0  0  0  0  0  0  0  0  0  0
    1.1260    0.0345   -0.0813 C   0  0  0  0  0  0  0  0  0  0  0  0
    2.2678   -0.7182    0.0790 C   0  0  0  0  0  0  0  0  0  0  0  0
    2.1633   -2.1842    0.4119 C   0  0  0  0  0  0  0  0  0  0  0  0
    3.5273   -0.1208   -0.0676 C   0  0  0  0  0  0  0  0  0  0  0  0
    4.6592   -0.8669    0.0912 C   0  0  0  0  0  0  0  0  0  0  0  0
    5.9224   -0.2678   -0.0558 C   0  0  0  0  0  0  0  0  0  0  0  0
    7.0494   -1.0107    0.1023 C   0  0  0  0  0  0  0  0  0  0  0  0
    6.9450   -2.4767    0.4353 C   0  0  0  0  0  0  0  0  0  0  0  0
    8.3232   -0.4065   -0.0459 C   0  0  0  0  0  0  0  0  0  0  0  0
    9.4316   -1.1371    0.1096 C   0  0  0  0  0  0  0  0  0  0  0  0
   10.7857   -0.4948   -0.0480 C   0  0  0  0  0  0  0  0  0  0  0  0
   11.4360   -0.0038    1.2435 C   0  0  0  0  0  0  0  0  0  0  0  0
   11.8919    1.4468    1.0850 C   0  0  0  0  0  0  0  0  0  0  0  0
   12.8017    1.5419   -0.1450 C   0  0  0  0  0  0  0  0  0  0  0  0
   11.9357    1.4494   -1.4013 C   0  0  0  0  0  0  0  0  0  0  0  0
   11.0900    0.1857   -1.3736 C   0  0  0  0  0  0  0  0  0  0  0  0
   11.6775   -1.0587   -1.0225 O   0  0  0  0  0  0  0  0  0  0  0  0
    9.9879    0.1261   -2.4333 C   0  0  0  0  0  0  0  0  0  0  0  0
   13.4964    2.7906   -0.1322 O   0  0  0  0  0  0  0  0  0  0  0  0
   10.4242   -0.0953    2.3875 C   0  0  0  0  0  0  0  0  0  0  0  0
   12.6454   -0.8829    1.5685 C   0  0  0  0  0  0  0  0  0  0  0  0
   -3.5705    1.8138   -0.4421 C   0  0  0  0  0  0  0  0  0  0  0  0
   -8.3618    2.1185   -0.4682 C   0  0  0  0  0  0  0  0  0  0  0  0
  -10.5871   -1.8880   -1.4773 H   0  0  0  0  0  0  0  0  0  0  0  0
  -11.6824   -1.6184   -2.8542 H   0  0  0  0  0  0  0  0  0  0  0  0
  -10.6901   -0.2786   -2.2308 H   0  0  0  0  0  0  0  0  0  0  0  0
  -15.2291    0.3464    1.3040 H   0  0  0  0  0  0  0  0  0  0  0  0
  -14.8652    0.7110   -0.4033 H   0  0  0  0  0  0  0  0  0  0  0  0
  -14.0039   -1.8599    1.0016 H   0  0  0  0  0  0  0  0  0  0  0  0
  -15.4892   -1.7154    0.0252 H   0  0  0  0  0  0  0  0  0  0  0  0
  -14.2296   -1.1606   -1.9592 H   0  0  0  0  0  0  0  0  0  0  0  0
  -13.4611   -2.5955   -1.2451 H   0  0  0  0  0  0  0  0  0  0  0  0
  -11.7862    0.4029    2.5446 H   0  0  0  0  0  0  0  0  0  0  0  0
  -13.5099    0.3989    2.9888 H   0  0  0  0  0  0  0  0  0  0  0  0
  -12.7893   -1.0279    2.2057 H   0  0  0  0  0  0  0  0  0  0  0  0
  -13.4318    2.5765   -0.0048 H   0  0  0  0  0  0  0  0  0  0  0  0
  -13.7863    2.5011    1.7378 H   0  0  0  0  0  0  0  0  0  0  0  0
  -12.0986    2.5014    1.1722 H   0  0  0  0  0  0  0  0  0  0  0  0
  -10.7838    1.8648   -0.2847 H   0  0  0  0  0  0  0  0  0  0  0  0
   -9.8043   -0.9973    0.2504 H   0  0  0  0  0  0  0  0  0  0  0  0
   -7.4092   -1.1443    0.2623 H   0  0  0  0  0  0  0  0  0  0  0  0
   -5.9999    1.5544   -0.3616 H   0  0  0  0  0  0  0  0  0  0  0  0
   -5.0079   -1.2996    0.2759 H   0  0  0  0  0  0  0  0  0  0  0  0
   -2.6072   -1.4561    0.2898 H   0  0  0  0  0  0  0  0  0  0  0  0
   -1.1998    1.2417   -0.3338 H   0  0  0  0  0  0  0  0  0  0  0  0
   -0.2069   -1.6128    0.3038 H   0  0  0  0  0  0  0  0  0  0  0  0
    1.2008    1.0851   -0.3199 H   0  0  0  0  0  0  0  0  0  0  0  0
    2.1291   -2.7647   -0.5100 H   0  0  0  0  0  0  0  0  0  0  0  0
    3.0304   -2.4861    0.9994 H   0  0  0  0  0  0  0  0  0  0  0  0
    1.2548   -2.3623    0.9873 H   0  0  0  0  0  0  0  0  0  0  0  0
    3.6022    0.9299   -0.3063 H   0  0  0  0  0  0  0  0  0  0  0  0
    4.5844   -1.9176    0.3298 H   0  0  0  0  0  0  0  0  0  0  0  0
    5.9973    0.7829   -0.2945 H   0  0  0  0  0  0  0  0  0  0  0  0
    6.9108   -3.0571   -0.4867 H   0  0  0  0  0  0  0  0  0  0  0  0
    7.8121   -2.7785    1.0228 H   0  0  0  0  0  0  0  0  0  0  0  0
    6.0365   -2.6548    1.0106 H   0  0  0  0  0  0  0  0  0  0  0  0
    8.3981    0.6442   -0.2846 H   0  0  0  0  0  0  0  0  0  0  0  0
    9.3567   -2.1877    0.3482 H   0  0  0  0  0  0  0  0  0  0  0  0
   11.0230    2.0905    0.9481 H   0  0  0  0  0  0  0  0  0  0  0  0
   12.4434    1.7561    1.9729 H   0  0  0  0  0  0  0  0  0  0  0  0
   13.5190    0.7213   -0.1338 H   0  0  0  0  0  0  0  0  0  0  0  0
   11.2816    2.3198   -1.4521 H   0  0  0  0  0  0  0  0  0  0  0  0
   12.5790    1.4319   -2.2810 H   0  0  0  0  0  0  0  0  0  0  0  0
   10.3318    0.6180   -3.3431 H   0  0  0  0  0  0  0  0  0  0  0  0
    9.7492   -0.9149   -2.6510 H   0  0  0  0  0  0  0  0  0  0  0  0
    9.0977    0.6327   -2.0605 H   0  0  0  0  0  0  0  0  0  0  0  0
   14.0912    2.9175   -0.8840 H   0  0  0  0  0  0  0  0  0  0  0  0
   10.1070   -1.1309    2.5101 H   0  0  0  0  0  0  0  0  0  0  0  0
   10.8865    0.2548    3.3104 H   0  0  0  0  0  0  0  0  0  0  0  0
    9.5581    0.5251    2.1569 H   0  0  0  0  0  0  0  0  0  0  0  0
   13.3662   -0.8252    0.7528 H   0  0  0  0  0  0  0  0  0  0  0  0
   13.1110   -0.5340    2.4902 H   0  0  0  0  0  0  0  0  0  0  0  0
   12.3206   -1.9158    1.6939 H   0  0  0  0  0  0  0  0  0  0  0  0
   -3.5363    2.3943    0.4798 H   0  0  0  0  0  0  0  0  0  0  0  0
   -2.6620    1.9919   -1.0175 H   0  0  0  0  0  0  0  0  0  0  0  0
   -4.4376    2.1156   -1.0296 H   0  0  0  0  0  0  0  0  0  0  0  0
   -8.3276    2.6990    0.4538 H   0  0  0  0  0  0  0  0  0  0  0  0
   -7.4533    2.2966   -1.0435 H   0  0  0  0  0  0  0  0  0  0  0  0
   -9.2289    2.4203   -1.0556 H   0  0  0  0  0  0  0  0  0  0  0  0
  1  2  1  0  0  0  0
  2  3  2  0  0  0  0
  3  4  1  0  0  0  0
  4  5  1  0  0  0  0
  5  6  1  0  0  0  0
  6  7  1  0  0  0  0
  2  7  1  0  0  0  0
  4  8  1  0  0  0  0
  4  9  1  0  0  0  0
  3 10  1  0  0  0  0
 10 11  2  0  0  0  0
 11 12  1  0  0  0  0
 12 13  2  0  0  0  0
 13 14  1  0  0  0  0
 14 15  2  0  0  0  0
 15 16  1  0  0  0  0
 16 17  2  0  0  0  0
 17 18  1  0  0  0  0
 18 19  2  0  0  0  0
 19 20  1  0  0  0  0
 20 21  2  0  0  0  0
 21 22  1  0  0  0  0
 21 23  1  0  0  0  0
 23 24  2  0  0  0  0
 24 25  1  0  0  0  0
 25 26  2  0  0  0  0
 26 27  1  0  0  0  0
 26 28  1  0  0  0  0
 28 29  2  0  0  0  0
 29 30  1  0  0  0  0
 30 31  1  0  0  0  0
 31 32  1  0  0  0  0
 32 33  1  0  0  0  0
 33 34  1  0  0  0  0
 34 35  1  0  0  0  0
 30 35  1  0  0  0  0
 35 36  1  0  0  0  0
 30 36  1  0  0  0  0
 35 37  1  0  0  0  0
 33 38  1  0  0  0  0
 31 39  1  0  0  0  0
 31 40  1  0  0  0  0
 16 41  1  0  0  0  0
 12 42  1  0  0  0  0
  1 43  1  0  0  0  0
  1 44  1  0  0  0  0
  1 45  1  0  0  0  0
  5 46  1  0  0  0  0
  5 47  1  0  0  0  0
  6 48  1  0  0  0  0
  6 49  1  0  0  0  0
  7 50  1  0  0  0  0
  7 51  1  0  0  0  0
  8 52  1  0  0  0  0
  8 53  1  0  0  0  0
  8 54  1  0  0  0  0
  9 55  1  0  0  0  0
  9 56  1  0  0  0  0
  9 57  1  0  0  0  0
 10 58  1  0  0  0  0
 11 59  1  0  0  0  0
 13 60  1  0  0  0  0
 14 61  1  0  0  0  0
 15 62  1  0  0  0  0
 17 63  1  0  0  0  0
 18 64  1  0  0  0  0
 19 65  1  0  0  0  0
 20 66  1  0  0  0  0
 22 67  1  0  0  0  0
 22 68  1  0  0  0  0
 22 69  1  0  0  0  0
 23 70  1  0  0  0  0
 24 71  1  0  0  0  0
 25 72  1  0  0  0  0
 27 73  1  0  0  0  0
 27 74  1  0  0  0  0
 27 75  1  0  0  0  0
 28 76  1  0  0  0  0
 29 77  1  0  0  0  0
 32 78  1  0  0  0  0
 32 79  1  0  0  0  0
 33 80  1  0  0  0  0
 34 81  1  0  0  0  0
 34 82  1  0  0  0  0
 37 83  1  0  0  0  0
 37 84  1  0  0  0  0
 37 85  1  0  0  0  0
 38 86  1  0  0  0  0
 39 87  1  0  0  0  0
 39 88  1  0  0  0  0
 39 89  1  0  0  0  0
 40 90  1  0  0  0  0
 40 91  1  0  0  0  0
 40 92  1  0  0  0  0
 41 93  1  0  0  0  0
 41 94  1  0  0  0  0
 41 95  1  0  0  0  0
 42 96  1  0  0  0  0
 42 97  1  0  0  0  0
 42 98  1  0  0  0  0
M  END
$$$$
