C16H12O7
APtclcactv06281817443D 0   0.00000     0.00000
 
 35 37  0  0  0  0  0  0  0  0999 V2000
    3.7064    3.6397   -0.1936 C   0  0  0  0  0  0  0  0  0  0  0  0
    4.2459    2.3177   -0.1367 O   0  0  0  0  0  0  0  0  0  0  0  0
    3.3581    1.2910   -0.0841 C   0  0  0  0  0  0  0  0  0  0  0  0
    3.8230   -0.0216   -0.0272 C   0  0  0  0  0  0  0  0  0  0  0  0
    2.9247   -1.0750    0.0271 C   0  0  0  0  0  0  0  0  0  0  0  0
    1.5498   -0.8092    0.0242 C   0  0  0  0  0  0  0  0  0  0  0  0
    1.0849    0.5168   -0.0333 C   0  0  0  0  0  0  0  0  0  0  0  0
    1.9984    1.5587   -0.0819 C   0  0  0  0  0  0  0  0  0  0  0  0
   -0.2425    0.7634   -0.0365 O   0  0  0  0  0  0  0  0  0  0  0  0
   -1.1562   -0.2208    0.0137 C   0  0  0  0  0  0  0  0  0  0  0  0
   -0.8099   -1.5375    0.0720 C   0  0  0  0  0  0  0  0  0  0  0  0
    0.5620   -1.8987    0.0802 C   0  0  0  0  0  0  0  0  0  0  0  0
    0.9096   -3.0678    0.1313 O   0  0  0  0  0  0  0  0  0  0  0  0
   -1.7724   -2.4983    0.1224 O   0  0  0  0  0  0  0  0  0  0  0  0
   -2.5866    0.1373    0.0060 C   0  0  0  0  0  0  0  0  0  0  0  0
   -3.0626    1.1407    0.8550 C   0  0  0  0  0  0  0  0  0  0  0  0
   -4.3996    1.4719    0.8444 C   0  0  0  0  0  0  0  0  0  0  0  0
   -5.2748    0.8100   -0.0082 C   0  0  0  0  0  0  0  0  0  0  0  0
   -4.8061   -0.1883   -0.8535 C   0  0  0  0  0  0  0  0  0  0  0  0
   -3.4696   -0.5215   -0.8545 C   0  0  0  0  0  0  0  0  0  0  0  0
   -6.5921    1.1395   -0.0150 O   0  0  0  0  0  0  0  0  0  0  0  0
    3.3742   -2.3557    0.0823 O   0  0  0  0  0  0  0  0  0  0  0  0
    5.1619   -0.2691   -0.0253 O   0  0  0  0  0  0  0  0  0  0  0  0
    3.0877    3.7416   -1.0852 H   0  0  0  0  0  0  0  0  0  0  0  0
    3.0991    3.8228    0.6929 H   0  0  0  0  0  0  0  0  0  0  0  0
    4.5207    4.3632   -0.2318 H   0  0  0  0  0  0  0  0  0  0  0  0
    1.6498    2.5799   -0.1258 H   0  0  0  0  0  0  0  0  0  0  0  0
   -1.4261   -3.4003    0.1616 H   0  0  0  0  0  0  0  0  0  0  0  0
   -2.3833    1.6551    1.5184 H   0  0  0  0  0  0  0  0  0  0  0  0
   -4.7683    2.2469    1.4999 H   0  0  0  0  0  0  0  0  0  0  0  0
   -5.4900   -0.7006   -1.5140 H   0  0  0  0  0  0  0  0  0  0  0  0
   -3.1061   -1.2973   -1.5120 H   0  0  0  0  0  0  0  0  0  0  0  0
   -6.8196    1.8383   -0.6435 H   0  0  0  0  0  0  0  0  0  0  0  0
    3.5105   -2.6863    0.9807 H   0  0  0  0  0  0  0  0  0  0  0  0
    5.5549   -0.3001    0.8577 H   0  0  0  0  0  0  0  0  0  0  0  0
  1  2  1  0  0  0  0
  2  3  1  0  0  0  0
  3  4  2  0  0  0  0
  4  5  1  0  0  0  0
  5  6  2  0  0  0  0
  6  7  1  0  0  0  0
  7  8  2  0  0  0  0
  3  8  1  0  0  0  0
  7  9  1  0  0  0  0
  9 10  1  0  0  0  0
 10 11  2  0  0  0  0
 11 12  1  0  0  0  0
  6 12  1  0  0  0  0
 12 13  2  0  0  0  0
 11 14  1  0  0  0  0
 10 15  1  0  0  0  0
 15 16  2  0  0  0  0
 16 17  1  0  0  0  0
 17 18  2  0  0  0  0
 18 19  1  0  0  0  0
 19 20  2  0  0  0  0
 15 20  1  0  0  0  0
 18 21  1  0  0  0  0
  5 22  1  0  0  0  0
  4 23  1  0  0  0  0
  1 24  1  0  0  0  0
  1 25  1  0  0  0  0
  1 26  1  0  0  0  0
  8 27  1  0  0  0  0
 14 28  1  0  0  0  0
 16 29  1  0  0  0  0
 17 30  1  0  0  0  0
 19 31  1  0  0  0  0
 20 32  1  0  0  0  0
 21 33  1  0  0  0  0
 22 34  1  0  0  0  0
 23 35  1  0  0  0  0
M  END
$$$$
