C10H22O
APtclcactv06211806063D 0   0.00000     0.00000
 
 33 32  0  0  0  0  0  0  0  0999 V2000
    6.0648   -0.4046    0.1203 C   0  0  0  0  0  0  0  0  0  0  0  0
    4.8294    0.4069   -0.2745 C   0  0  0  0  0  0  0  0  0  0  0  0
    3.5681   -0.3318    0.1775 C   0  0  0  0  0  0  0  0  0  0  0  0
    2.3326    0.4797   -0.2173 C   0  0  0  0  0  0  0  0  0  0  0  0
    1.0713   -0.2591    0.2347 C   0  0  0  0  0  0  0  0  0  0  0  0
   -0.1642    0.5525   -0.1601 C   0  0  0  0  0  0  0  0  0  0  0  0
   -1.4254   -0.1863    0.2919 C   0  0  0  0  0  0  0  0  0  0  0  0
   -2.6609    0.6252   -0.1029 C   0  0  0  0  0  0  0  0  0  0  0  0
   -3.9222   -0.1135    0.3491 C   0  0  0  0  0  0  0  0  0  0  0  0
   -5.1503    0.7542    0.0666 C   0  0  0  0  0  0  0  0  0  0  0  0
   -4.0347   -1.3455   -0.3661 O   0  0  0  0  0  0  0  0  0  0  0  0
    6.9634    0.1217   -0.2017 H   0  0  0  0  0  0  0  0  0  0  0  0
    6.0860   -0.5308    1.2028 H   0  0  0  0  0  0  0  0  0  0  0  0
    6.0254   -1.3828   -0.3588 H   0  0  0  0  0  0  0  0  0  0  0  0
    4.8688    1.3852    0.2046 H   0  0  0  0  0  0  0  0  0  0  0  0
    4.8082    0.5331   -1.3570 H   0  0  0  0  0  0  0  0  0  0  0  0
    3.5286   -1.3101   -0.3016 H   0  0  0  0  0  0  0  0  0  0  0  0
    3.5892   -0.4580    1.2600 H   0  0  0  0  0  0  0  0  0  0  0  0
    2.3721    1.4579    0.2618 H   0  0  0  0  0  0  0  0  0  0  0  0
    2.3115    0.6059   -1.2998 H   0  0  0  0  0  0  0  0  0  0  0  0
    1.0318   -1.2373   -0.2444 H   0  0  0  0  0  0  0  0  0  0  0  0
    1.0924   -0.3853    1.3172 H   0  0  0  0  0  0  0  0  0  0  0  0
   -0.1247    1.5307    0.3190 H   0  0  0  0  0  0  0  0  0  0  0  0
   -0.1853    0.6787   -1.2426 H   0  0  0  0  0  0  0  0  0  0  0  0
   -1.4649   -1.1645   -0.1872 H   0  0  0  0  0  0  0  0  0  0  0  0
   -1.4043   -0.3125    1.3744 H   0  0  0  0  0  0  0  0  0  0  0  0
   -2.6215    1.6035    0.3762 H   0  0  0  0  0  0  0  0  0  0  0  0
   -2.6821    0.7514   -1.1854 H   0  0  0  0  0  0  0  0  0  0  0  0
   -3.8600   -0.3182    1.4179 H   0  0  0  0  0  0  0  0  0  0  0  0
   -5.2125    0.9589   -1.0022 H   0  0  0  0  0  0  0  0  0  0  0  0
   -6.0489    0.2279    0.3887 H   0  0  0  0  0  0  0  0  0  0  0  0
   -5.0645    1.6939    0.6122 H   0  0  0  0  0  0  0  0  0  0  0  0
   -4.0946   -1.2394   -1.3254 H   0  0  0  0  0  0  0  0  0  0  0  0
  1  2  1  0  0  0  0
  2  3  1  0  0  0  0
  3  4  1  0  0  0  0
  4  5  1  0  0  0  0
  5  6  1  0  0  0  0
  6  7  1  0  0  0  0
  7  8  1  0  0  0  0
  8  9  1  0  0  0  0
  9 10  1  0  0  0  0
  9 11  1  0  0  0  0
  1 12  1  0  0  0  0
  1 13  1  0  0  0  0
  1 14  1  0  0  0  0
  2 15  1  0  0  0  0
  2 16  1  0  0  0  0
  3 17  1  0  0  0  0
  3 18  1  0  0  0  0
  4 19  1  0  0  0  0
  4 20  1  0  0  0  0
  5 21  1  0  0  0  0
  5 22  1  0  0  0  0
  6 23  1  0  0  0  0
  6 24  1  0  0  0  0
  7 25  1  0  0  0  0
  7 26  1  0  0  0  0
  8 27  1  0  0  0  0
  8 28  1  0  0  0  0
  9 29  1  0  0  0  0
 10 30  1  0  0  0  0
 10 31  1  0  0  0  0
 10 32  1  0  0  0  0
 11 33  1  0  0  0  0
M  END
$$$$
