C6H8S
APtclcactv06281817443D 0   0.00000     0.00000
 
 15 15  0  0  0  0  0  0  0  0999 V2000
    2.8878    0.9204    0.0003 C   0  0  0  0  0  0  0  0  0  0  0  0
    1.5516    0.2236    0.0010 C   0  0  0  0  0  0  0  0  0  0  0  0
    0.3759    0.8358   -0.0000 C   0  0  0  0  0  0  0  0  0  0  0  0
   -0.7173   -0.0581    0.0010 C   0  0  0  0  0  0  0  0  0  0  0  0
   -2.3726    0.3789   -0.0007 S   0  0  0  0  0  0  0  0  0  0  0  0
   -0.1712   -1.4698    0.0031 C   0  0  0  0  0  0  0  0  0  0  0  0
    1.3566   -1.2738   -0.0035 C   0  0  0  0  0  0  0  0  0  0  0  0
    2.7348    1.9996   -0.0008 H   0  0  0  0  0  0  0  0  0  0  0  0
    3.4476    0.6337    0.8905 H   0  0  0  0  0  0  0  0  0  0  0  0
    3.4475    0.6319   -0.8894 H   0  0  0  0  0  0  0  0  0  0  0  0
    0.2652    1.9101   -0.0009 H   0  0  0  0  0  0  0  0  0  0  0  0
   -0.4888   -2.0017    0.8999 H   0  0  0  0  0  0  0  0  0  0  0  0
   -0.4885   -2.0042   -0.8924 H   0  0  0  0  0  0  0  0  0  0  0  0
    1.7924   -1.7165   -0.8991 H   0  0  0  0  0  0  0  0  0  0  0  0
    1.7994   -1.7112    0.8913 H   0  0  0  0  0  0  0  0  0  0  0  0
  1  2  1  0  0  0  0
  2  3  2  0  0  0  0
  3  4  1  0  0  0  0
  4  5  2  0  0  0  0
  4  6  1  0  0  0  0
  6  7  1  0  0  0  0
  2  7  1  0  0  0  0
  1  8  1  0  0  0  0
  1  9  1  0  0  0  0
  1 10  1  0  0  0  0
  3 11  1  0  0  0  0
  6 12  1  0  0  0  0
  6 13  1  0  0  0  0
  7 14  1  0  0  0  0
  7 15  1  0  0  0  0
M  END
$$$$
