C21H20O6
APtclcactv06281817443D 0   0.00000     0.00000
 
 47 49  0  0  0  0  0  0  0  0999 V2000
    3.1373   -3.4928   -1.4182 C   0  0  0  0  0  0  0  0  0  0  0  0
    3.5572   -3.1297   -0.0172 C   0  0  0  0  0  0  0  0  0  0  0  0
    3.9892   -1.9210    0.2447 C   0  0  0  0  0  0  0  0  0  0  0  0
    3.9490   -0.8586   -0.8233 C   0  0  0  0  0  0  0  0  0  0  0  0
    3.2161    0.3505   -0.3017 C   0  0  0  0  0  0  0  0  0  0  0  0
    3.9147    1.3557    0.3468 C   0  0  0  0  0  0  0  0  0  0  0  0
    3.2563    2.4802    0.8337 C   0  0  0  0  0  0  0  0  0  0  0  0
    1.8882    2.6031    0.6774 C   0  0  0  0  0  0  0  0  0  0  0  0
    1.1755    1.5869    0.0294 C   0  0  0  0  0  0  0  0  0  0  0  0
    1.8430    0.4572   -0.4772 C   0  0  0  0  0  0  0  0  0  0  0  0
    1.1602   -0.5094   -1.1199 O   0  0  0  0  0  0  0  0  0  0  0  0
   -0.1669   -0.5988   -1.0270 C   0  0  0  0  0  0  0  0  0  0  0  0
   -0.9477    0.4130   -0.5685 C   0  0  0  0  0  0  0  0  0  0  0  0
   -0.2854    1.6634   -0.1423 C   0  0  0  0  0  0  0  0  0  0  0  0
   -0.9103    2.6899    0.0630 O   0  0  0  0  0  0  0  0  0  0  0  0
   -2.4225    0.2695   -0.5033 C   0  0  0  0  0  0  0  0  0  0  0  0
   -2.9954   -0.6666    0.3557 C   0  0  0  0  0  0  0  0  0  0  0  0
   -4.3715   -0.7970    0.4139 C   0  0  0  0  0  0  0  0  0  0  0  0
   -5.1809    0.0062   -0.3850 C   0  0  0  0  0  0  0  0  0  0  0  0
   -4.6101    0.9368   -1.2396 C   0  0  0  0  0  0  0  0  0  0  0  0
   -3.2379    1.0745   -1.2968 C   0  0  0  0  0  0  0  0  0  0  0  0
   -6.5336   -0.1226   -0.3273 O   0  0  0  0  0  0  0  0  0  0  0  0
   -4.9334   -1.7098    1.2509 O   0  0  0  0  0  0  0  0  0  0  0  0
   -4.0428   -2.5003    2.0409 C   0  0  0  0  0  0  0  0  0  0  0  0
    1.2414    3.6991    1.1484 O   0  0  0  0  0  0  0  0  0  0  0  0
    5.2576    1.2418    0.5094 O   0  0  0  0  0  0  0  0  0  0  0  0
    3.4802   -4.1571    1.0827 C   0  0  0  0  0  0  0  0  0  0  0  0
    3.9521   -3.2767   -2.1092 H   0  0  0  0  0  0  0  0  0  0  0  0
    2.8961   -4.5549   -1.4615 H   0  0  0  0  0  0  0  0  0  0  0  0
    2.2599   -2.9093   -1.6972 H   0  0  0  0  0  0  0  0  0  0  0  0
    4.3743   -1.6860    1.2259 H   0  0  0  0  0  0  0  0  0  0  0  0
    4.9665   -0.5775   -1.0948 H   0  0  0  0  0  0  0  0  0  0  0  0
    3.4323   -1.2457   -1.7016 H   0  0  0  0  0  0  0  0  0  0  0  0
    3.8143    3.2576    1.3344 H   0  0  0  0  0  0  0  0  0  0  0  0
   -0.6432   -1.5192   -1.3310 H   0  0  0  0  0  0  0  0  0  0  0  0
   -2.3662   -1.2891    0.9746 H   0  0  0  0  0  0  0  0  0  0  0  0
   -5.2405    1.5582   -1.8583 H   0  0  0  0  0  0  0  0  0  0  0  0
   -2.7956    1.8004   -1.9631 H   0  0  0  0  0  0  0  0  0  0  0  0
   -6.9552    0.4472    0.3305 H   0  0  0  0  0  0  0  0  0  0  0  0
   -3.3843   -3.0702    1.3855 H   0  0  0  0  0  0  0  0  0  0  0  0
   -3.4456   -1.8477    2.6777 H   0  0  0  0  0  0  0  0  0  0  0  0
   -4.6193   -3.1858    2.6621 H   0  0  0  0  0  0  0  0  0  0  0  0
    1.1789    4.4232    0.5107 H   0  0  0  0  0  0  0  0  0  0  0  0
    5.7749    1.6180   -0.2158 H   0  0  0  0  0  0  0  0  0  0  0  0
    4.4223   -4.7025    1.1370 H   0  0  0  0  0  0  0  0  0  0  0  0
    3.2939   -3.6580    2.0336 H   0  0  0  0  0  0  0  0  0  0  0  0
    2.6686   -4.8538    0.8728 H   0  0  0  0  0  0  0  0  0  0  0  0
  1  2  1  0  0  0  0
  2  3  2  0  0  0  0
  3  4  1  0  0  0  0
  4  5  1  0  0  0  0
  5  6  2  0  0  0  0
  6  7  1  0  0  0  0
  7  8  2  0  0  0  0
  8  9  1  0  0  0  0
  9 10  2  0  0  0  0
  5 10  1  0  0  0  0
 10 11  1  0  0  0  0
 11 12  1  0  0  0  0
 12 13  2  0  0  0  0
 13 14  1  0  0  0  0
  9 14  1  0  0  0  0
 14 15  2  0  0  0  0
 13 16  1  0  0  0  0
 16 17  2  0  0  0  0
 17 18  1  0  0  0  0
 18 19  2  0  0  0  0
 19 20  1  0  0  0  0
 20 21  2  0  0  0  0
 16 21  1  0  0  0  0
 19 22  1  0  0  0  0
 18 23  1  0  0  0  0
 23 24  1  0  0  0  0
  8 25  1  0  0  0  0
  6 26  1  0  0  0  0
  2 27  1  0  0  0  0
  1 28  1  0  0  0  0
  1 29  1  0  0  0  0
  1 30  1  0  0  0  0
  3 31  1  0  0  0  0
  4 32  1  0  0  0  0
  4 33  1  0  0  0  0
  7 34  1  0  0  0  0
 12 35  1  0  0  0  0
 17 36  1  0  0  0  0
 20 37  1  0  0  0  0
 21 38  1  0  0  0  0
 22 39  1  0  0  0  0
 24 40  1  0  0  0  0
 24 41  1  0  0  0  0
 24 42  1  0  0  0  0
 25 43  1  0  0  0  0
 26 44  1  0  0  0  0
 27 45  1  0  0  0  0
 27 46  1  0  0  0  0
 27 47  1  0  0  0  0
M  END
$$$$
