C16H30O5
APtclcactv06281817443D 0   0.00000     0.00000
 
 51 50  0  0  0  0  0  0  0  0999 V2000
   -3.2013   -0.4894   -0.0999 C   0  0  0  0  0  0  0  0  0  0  0  0
   -4.4835    0.3291    0.0649 C   0  0  0  0  0  0  0  0  0  0  0  0
   -5.6964   -0.5625   -0.2088 C   0  0  0  0  0  0  0  0  0  0  0  0
   -6.9785    0.2560   -0.0440 C   0  0  0  0  0  0  0  0  0  0  0  0
   -8.1914   -0.6355   -0.3177 C   0  0  0  0  0  0  0  0  0  0  0  0
   -9.4542    0.1706   -0.1554 C   0  0  0  0  0  0  0  0  0  0  0  0
   -9.3907    1.3385    0.1480 O   0  0  0  0  0  0  0  0  0  0  0  0
  -10.6497   -0.4087   -0.3479 O   0  0  0  0  0  0  0  0  0  0  0  0
   -1.9884    0.4021    0.1738 C   0  0  0  0  0  0  0  0  0  0  0  0
   -0.7063   -0.4163    0.0090 C   0  0  0  0  0  0  0  0  0  0  0  0
    0.5066    0.4752    0.2827 C   0  0  0  0  0  0  0  0  0  0  0  0
    1.7887   -0.3433    0.1179 C   0  0  0  0  0  0  0  0  0  0  0  0
    3.0031    0.5752    0.2687 C   0  0  0  0  0  0  0  0  0  0  0  0
    4.2803   -0.2166   -0.0190 C   0  0  0  0  0  0  0  0  0  0  0  0
    5.4946    0.7019    0.1318 C   0  0  0  0  0  0  0  0  0  0  0  0
    6.7718   -0.0899   -0.1559 C   0  0  0  0  0  0  0  0  0  0  0  0
    7.9861    0.8286   -0.0051 C   0  0  0  0  0  0  0  0  0  0  0  0
    9.2441    0.0487   -0.2884 C   0  0  0  0  0  0  0  0  0  0  0  0
    9.1763   -1.1217   -0.5809 O   0  0  0  0  0  0  0  0  0  0  0  0
   10.4398    0.6542   -0.2159 O   0  0  0  0  0  0  0  0  0  0  0  0
    1.8352   -1.3623    1.1186 O   0  0  0  0  0  0  0  0  0  0  0  0
   -3.2078   -1.3206    0.6053 H   0  0  0  0  0  0  0  0  0  0  0  0
   -3.1456   -0.8765   -1.1173 H   0  0  0  0  0  0  0  0  0  0  0  0
   -4.5392    0.7162    1.0823 H   0  0  0  0  0  0  0  0  0  0  0  0
   -4.4770    1.1603   -0.6403 H   0  0  0  0  0  0  0  0  0  0  0  0
   -5.6406   -0.9496   -1.2262 H   0  0  0  0  0  0  0  0  0  0  0  0
   -5.7028   -1.3937    0.4964 H   0  0  0  0  0  0  0  0  0  0  0  0
   -7.0342    0.6431    0.9734 H   0  0  0  0  0  0  0  0  0  0  0  0
   -6.9721    1.0872   -0.7492 H   0  0  0  0  0  0  0  0  0  0  0  0
   -8.1357   -1.0226   -1.3351 H   0  0  0  0  0  0  0  0  0  0  0  0
   -8.1978   -1.4667    0.3875 H   0  0  0  0  0  0  0  0  0  0  0  0
  -11.4314    0.1488   -0.2324 H   0  0  0  0  0  0  0  0  0  0  0  0
   -1.9820    1.2333   -0.5314 H   0  0  0  0  0  0  0  0  0  0  0  0
   -2.0442    0.7892    1.1912 H   0  0  0  0  0  0  0  0  0  0  0  0
   -0.7127   -1.2475    0.7142 H   0  0  0  0  0  0  0  0  0  0  0  0
   -0.6505   -0.8034   -1.0084 H   0  0  0  0  0  0  0  0  0  0  0  0
    0.5131    1.3064   -0.4225 H   0  0  0  0  0  0  0  0  0  0  0  0
    0.4509    0.8623    1.3001 H   0  0  0  0  0  0  0  0  0  0  0  0
    1.8016   -0.8034   -0.8701 H   0  0  0  0  0  0  0  0  0  0  0  0
    2.9223    1.4029   -0.4360 H   0  0  0  0  0  0  0  0  0  0  0  0
    3.0391    0.9660    1.2856 H   0  0  0  0  0  0  0  0  0  0  0  0
    4.3611   -1.0443    0.6857 H   0  0  0  0  0  0  0  0  0  0  0  0
    4.2442   -0.6074   -1.0359 H   0  0  0  0  0  0  0  0  0  0  0  0
    5.4138    1.5296   -0.5729 H   0  0  0  0  0  0  0  0  0  0  0  0
    5.5306    1.0927    1.1487 H   0  0  0  0  0  0  0  0  0  0  0  0
    6.8526   -0.9176    0.5488 H   0  0  0  0  0  0  0  0  0  0  0  0
    6.7358   -0.4807   -1.1728 H   0  0  0  0  0  0  0  0  0  0  0  0
    7.9053    1.6563   -0.7098 H   0  0  0  0  0  0  0  0  0  0  0  0
    8.0221    1.2193    1.0118 H   0  0  0  0  0  0  0  0  0  0  0  0
   11.2183    0.1130   -0.4061 H   0  0  0  0  0  0  0  0  0  0  0  0
    1.8267   -1.0246    2.0247 H   0  0  0  0  0  0  0  0  0  0  0  0
  1  2  1  0  0  0  0
  2  3  1  0  0  0  0
  3  4  1  0  0  0  0
  4  5  1  0  0  0  0
  5  6  1  0  0  0  0
  6  7  2  0  0  0  0
  6  8  1  0  0  0  0
  1  9  1  0  0  0  0
  9 10  1  0  0  0  0
 10 11  1  0  0  0  0
 11 12  1  0  0  0  0
 12 13  1  0  0  0  0
 13 14  1  0  0  0  0
 14 15  1  0  0  0  0
 15 16  1  0  0  0  0
 16 17  1  0  0  0  0
 17 18  1  0  0  0  0
 18 19  2  0  0  0  0
 18 20  1  0  0  0  0
 12 21  1  0  0  0  0
  1 22  1  0  0  0  0
  1 23  1  0  0  0  0
  2 24  1  0  0  0  0
  2 25  1  0  0  0  0
  3 26  1  0  0  0  0
  3 27  1  0  0  0  0
  4 28  1  0  0  0  0
  4 29  1  0  0  0  0
  5 30  1  0  0  0  0
  5 31  1  0  0  0  0
  8 32  1  0  0  0  0
  9 33  1  0  0  0  0
  9 34  1  0  0  0  0
 10 35  1  0  0  0  0
 10 36  1  0  0  0  0
 11 37  1  0  0  0  0
 11 38  1  0  0  0  0
 12 39  1  0  0  0  0
 13 40  1  0  0  0  0
 13 41  1  0  0  0  0
 14 42  1  0  0  0  0
 14 43  1  0  0  0  0
 15 44  1  0  0  0  0
 15 45  1  0  0  0  0
 16 46  1  0  0  0  0
 16 47  1  0  0  0  0
 17 48  1  0  0  0  0
 17 49  1  0  0  0  0
 20 50  1  0  0  0  0
 21 51  1  0  0  0  0
M  END
$$$$
