C16H12O4
APtclcactv06281817443D 0   0.00000     0.00000
 
 32 34  0  0  0  0  0  0  0  0999 V2000
    5.1099    1.6797    0.0657 C   0  0  0  0  0  0  0  0  0  0  0  0
    3.9225    0.7524    0.0280 C   0  0  0  0  0  0  0  0  0  0  0  0
    2.6423    1.2717    0.1022 C   0  0  0  0  0  0  0  0  0  0  0  0
    1.5439    0.4172    0.0676 C   0  0  0  0  0  0  0  0  0  0  0  0
    1.7443   -0.9701   -0.0428 C   0  0  0  0  0  0  0  0  0  0  0  0
    3.0392   -1.4757   -0.1163 C   0  0  0  0  0  0  0  0  0  0  0  0
    4.1195   -0.6118   -0.0862 C   0  0  0  0  0  0  0  0  0  0  0  0
    0.5840   -1.8849   -0.0797 C   0  0  0  0  0  0  0  0  0  0  0  0
    0.7575   -3.0843   -0.1747 O   0  0  0  0  0  0  0  0  0  0  0  0
   -0.7843   -1.3407   -0.0008 C   0  0  0  0  0  0  0  0  0  0  0  0
   -0.9846    0.0504    0.1098 C   0  0  0  0  0  0  0  0  0  0  0  0
    0.1724    0.9628    0.1467 C   0  0  0  0  0  0  0  0  0  0  0  0
   -0.0010    2.1622    0.2425 O   0  0  0  0  0  0  0  0  0  0  0  0
   -2.2826    0.5573    0.1836 C   0  0  0  0  0  0  0  0  0  0  0  0
   -3.3723   -0.3204    0.1470 C   0  0  0  0  0  0  0  0  0  0  0  0
   -3.1650   -1.6854    0.0381 C   0  0  0  0  0  0  0  0  0  0  0  0
   -1.8819   -2.1971   -0.0356 C   0  0  0  0  0  0  0  0  0  0  0  0
   -4.6368    0.1681    0.2188 O   0  0  0  0  0  0  0  0  0  0  0  0
   -2.4872    1.8937    0.2906 O   0  0  0  0  0  0  0  0  0  0  0  0
   -2.6195    2.6293   -0.9273 C   0  0  0  0  0  0  0  0  0  0  0  0
    5.4241    1.8259    1.0991 H   0  0  0  0  0  0  0  0  0  0  0  0
    5.9297    1.2437   -0.5051 H   0  0  0  0  0  0  0  0  0  0  0  0
    4.8346    2.6403   -0.3697 H   0  0  0  0  0  0  0  0  0  0  0  0
    2.4953    2.3383    0.1871 H   0  0  0  0  0  0  0  0  0  0  0  0
    3.2002   -2.5403   -0.2008 H   0  0  0  0  0  0  0  0  0  0  0  0
    5.1234   -1.0059   -0.1434 H   0  0  0  0  0  0  0  0  0  0  0  0
   -4.0115   -2.3555    0.0106 H   0  0  0  0  0  0  0  0  0  0  0  0
   -1.7310   -3.2631   -0.1206 H   0  0  0  0  0  0  0  0  0  0  0  0
   -5.0274    0.3764   -0.6409 H   0  0  0  0  0  0  0  0  0  0  0  0
   -3.4699    2.2472   -1.4921 H   0  0  0  0  0  0  0  0  0  0  0  0
   -2.7787    3.6834   -0.6997 H   0  0  0  0  0  0  0  0  0  0  0  0
   -1.7109    2.5187   -1.5192 H   0  0  0  0  0  0  0  0  0  0  0  0
  1  2  1  0  0  0  0
  2  3  2  0  0  0  0
  3  4  1  0  0  0  0
  4  5  2  0  0  0  0
  5  6  1  0  0  0  0
  6  7  2  0  0  0  0
  2  7  1  0  0  0  0
  5  8  1  0  0  0  0
  8  9  2  0  0  0  0
  8 10  1  0  0  0  0
 10 11  2  0  0  0  0
 11 12  1  0  0  0  0
  4 12  1  0  0  0  0
 12 13  2  0  0  0  0
 11 14  1  0  0  0  0
 14 15  2  0  0  0  0
 15 16  1  0  0  0  0
 16 17  2  0  0  0  0
 10 17  1  0  0  0  0
 15 18  1  0  0  0  0
 14 19  1  0  0  0  0
 19 20  1  0  0  0  0
  1 21  1  0  0  0  0
  1 22  1  0  0  0  0
  1 23  1  0  0  0  0
  3 24  1  0  0  0  0
  6 25  1  0  0  0  0
  7 26  1  0  0  0  0
 16 27  1  0  0  0  0
 17 28  1  0  0  0  0
 18 29  1  0  0  0  0
 20 30  1  0  0  0  0
 20 31  1  0  0  0  0
 20 32  1  0  0  0  0
M  END
$$$$
