C21H42O2
APtclcactv06211806063D 0   0.00000     0.00000
 
 65 64  0  0  0  0  0  0  0  0999 V2000
   13.6352    0.2544    0.0000 C   0  0  0  0  0  0  0  0  0  0  0  0
   12.3674   -0.6020   -0.0000 C   0  0  0  0  0  0  0  0  0  0  0  0
   11.1373    0.3078    0.0000 C   0  0  0  0  0  0  0  0  0  0  0  0
    9.8695   -0.5486   -0.0000 C   0  0  0  0  0  0  0  0  0  0  0  0
    8.6394    0.3613    0.0000 C   0  0  0  0  0  0  0  0  0  0  0  0
    7.3716   -0.4952   -0.0000 C   0  0  0  0  0  0  0  0  0  0  0  0
    6.1415    0.4147    0.0000 C   0  0  0  0  0  0  0  0  0  0  0  0
    4.8737   -0.4417   -0.0000 C   0  0  0  0  0  0  0  0  0  0  0  0
    3.6436    0.4681    0.0000 C   0  0  0  0  0  0  0  0  0  0  0  0
    2.3757   -0.3883   -0.0000 C   0  0  0  0  0  0  0  0  0  0  0  0
    1.1457    0.5215    0.0000 C   0  0  0  0  0  0  0  0  0  0  0  0
   -0.1222   -0.3349   -0.0000 C   0  0  0  0  0  0  0  0  0  0  0  0
   -1.3522    0.5750   -0.0000 C   0  0  0  0  0  0  0  0  0  0  0  0
   -2.6201   -0.2815   -0.0000 C   0  0  0  0  0  0  0  0  0  0  0  0
   -3.8501    0.6284   -0.0000 C   0  0  0  0  0  0  0  0  0  0  0  0
   -5.1180   -0.2281   -0.0000 C   0  0  0  0  0  0  0  0  0  0  0  0
   -6.3480    0.6818   -0.0000 C   0  0  0  0  0  0  0  0  0  0  0  0
   -7.6159   -0.1746   -0.0000 C   0  0  0  0  0  0  0  0  0  0  0  0
   -8.8460    0.7352   -0.0000 C   0  0  0  0  0  0  0  0  0  0  0  0
  -10.0947   -0.1083    0.0000 C   0  0  0  0  0  0  0  0  0  0  0  0
  -10.0096   -1.3136    0.0000 O   0  0  0  0  0  0  0  0  0  0  0  0
  -11.3016    0.4793   -0.0000 O   0  0  0  0  0  0  0  0  0  0  0  0
  -12.4606   -0.3954    0.0000 C   0  0  0  0  0  0  0  0  0  0  0  0
   13.6487    0.8836    0.8900 H   0  0  0  0  0  0  0  0  0  0  0  0
   14.5115   -0.3938   -0.0000 H   0  0  0  0  0  0  0  0  0  0  0  0
   13.6487    0.8836   -0.8900 H   0  0  0  0  0  0  0  0  0  0  0  0
   12.3539   -1.2312   -0.8900 H   0  0  0  0  0  0  0  0  0  0  0  0
   12.3539   -1.2312    0.8900 H   0  0  0  0  0  0  0  0  0  0  0  0
   11.1508    0.9370    0.8900 H   0  0  0  0  0  0  0  0  0  0  0  0
   11.1508    0.9370   -0.8900 H   0  0  0  0  0  0  0  0  0  0  0  0
    9.8560   -1.1778   -0.8900 H   0  0  0  0  0  0  0  0  0  0  0  0
    9.8560   -1.1778    0.8900 H   0  0  0  0  0  0  0  0  0  0  0  0
    8.6529    0.9904    0.8900 H   0  0  0  0  0  0  0  0  0  0  0  0
    8.6529    0.9904   -0.8900 H   0  0  0  0  0  0  0  0  0  0  0  0
    7.3581   -1.1243   -0.8900 H   0  0  0  0  0  0  0  0  0  0  0  0
    7.3581   -1.1243    0.8900 H   0  0  0  0  0  0  0  0  0  0  0  0
    6.1550    1.0439    0.8900 H   0  0  0  0  0  0  0  0  0  0  0  0
    6.1550    1.0439   -0.8900 H   0  0  0  0  0  0  0  0  0  0  0  0
    4.8602   -1.0709   -0.8900 H   0  0  0  0  0  0  0  0  0  0  0  0
    4.8602   -1.0709    0.8900 H   0  0  0  0  0  0  0  0  0  0  0  0
    3.6570    1.0973    0.8900 H   0  0  0  0  0  0  0  0  0  0  0  0
    3.6570    1.0973   -0.8900 H   0  0  0  0  0  0  0  0  0  0  0  0
    2.3623   -1.0175   -0.8900 H   0  0  0  0  0  0  0  0  0  0  0  0
    2.3623   -1.0175    0.8900 H   0  0  0  0  0  0  0  0  0  0  0  0
    1.1591    1.1507    0.8900 H   0  0  0  0  0  0  0  0  0  0  0  0
    1.1591    1.1507   -0.8900 H   0  0  0  0  0  0  0  0  0  0  0  0
   -0.1356   -0.9641   -0.8900 H   0  0  0  0  0  0  0  0  0  0  0  0
   -0.1356   -0.9641    0.8900 H   0  0  0  0  0  0  0  0  0  0  0  0
   -1.3388    1.2041    0.8900 H   0  0  0  0  0  0  0  0  0  0  0  0
   -1.3388    1.2041   -0.8900 H   0  0  0  0  0  0  0  0  0  0  0  0
   -2.6335   -0.9106   -0.8900 H   0  0  0  0  0  0  0  0  0  0  0  0
   -2.6335   -0.9106    0.8900 H   0  0  0  0  0  0  0  0  0  0  0  0
   -3.8367    1.2575    0.8900 H   0  0  0  0  0  0  0  0  0  0  0  0
   -3.8367    1.2575   -0.8900 H   0  0  0  0  0  0  0  0  0  0  0  0
   -5.1314   -0.8572   -0.8900 H   0  0  0  0  0  0  0  0  0  0  0  0
   -5.1314   -0.8572    0.8900 H   0  0  0  0  0  0  0  0  0  0  0  0
   -6.3346    1.3110    0.8900 H   0  0  0  0  0  0  0  0  0  0  0  0
   -6.3346    1.3110   -0.8900 H   0  0  0  0  0  0  0  0  0  0  0  0
   -7.6293   -0.8038   -0.8900 H   0  0  0  0  0  0  0  0  0  0  0  0
   -7.6293   -0.8038    0.8900 H   0  0  0  0  0  0  0  0  0  0  0  0
   -8.8325    1.3644    0.8900 H   0  0  0  0  0  0  0  0  0  0  0  0
   -8.8325    1.3644   -0.8900 H   0  0  0  0  0  0  0  0  0  0  0  0
  -12.4411   -1.0244   -0.8900 H   0  0  0  0  0  0  0  0  0  0  0  0
  -12.4411   -1.0244    0.8900 H   0  0  0  0  0  0  0  0  0  0  0  0
  -13.3696    0.2061    0.0000 H   0  0  0  0  0  0  0  0  0  0  0  0
  1  2  1  0  0  0  0
  2  3  1  0  0  0  0
  3  4  1  0  0  0  0
  4  5  1  0  0  0  0
  5  6  1  0  0  0  0
  6  7  1  0  0  0  0
  7  8  1  0  0  0  0
  8  9  1  0  0  0  0
  9 10  1  0  0  0  0
 10 11  1  0  0  0  0
 11 12  1  0  0  0  0
 12 13  1  0  0  0  0
 13 14  1  0  0  0  0
 14 15  1  0  0  0  0
 15 16  1  0  0  0  0
 16 17  1  0  0  0  0
 17 18  1  0  0  0  0
 18 19  1  0  0  0  0
 19 20  1  0  0  0  0
 20 21  2  0  0  0  0
 20 22  1  0  0  0  0
 22 23  1  0  0  0  0
  1 24  1  0  0  0  0
  1 25  1  0  0  0  0
  1 26  1  0  0  0  0
  2 27  1  0  0  0  0
  2 28  1  0  0  0  0
  3 29  1  0  0  0  0
  3 30  1  0  0  0  0
  4 31  1  0  0  0  0
  4 32  1  0  0  0  0
  5 33  1  0  0  0  0
  5 34  1  0  0  0  0
  6 35  1  0  0  0  0
  6 36  1  0  0  0  0
  7 37  1  0  0  0  0
  7 38  1  0  0  0  0
  8 39  1  0  0  0  0
  8 40  1  0  0  0  0
  9 41  1  0  0  0  0
  9 42  1  0  0  0  0
 10 43  1  0  0  0  0
 10 44  1  0  0  0  0
 11 45  1  0  0  0  0
 11 46  1  0  0  0  0
 12 47  1  0  0  0  0
 12 48  1  0  0  0  0
 13 49  1  0  0  0  0
 13 50  1  0  0  0  0
 14 51  1  0  0  0  0
 14 52  1  0  0  0  0
 15 53  1  0  0  0  0
 15 54  1  0  0  0  0
 16 55  1  0  0  0  0
 16 56  1  0  0  0  0
 17 57  1  0  0  0  0
 17 58  1  0  0  0  0
 18 59  1  0  0  0  0
 18 60  1  0  0  0  0
 19 61  1  0  0  0  0
 19 62  1  0  0  0  0
 23 63  1  0  0  0  0
 23 64  1  0  0  0  0
 23 65  1  0  0  0  0
M  END
$$$$
