C20H30O2
APtclcactv06281817443D 0   0.00000     0.00000
 
 52 56  0  0  0  0  0  0  0  0999 V2000
   -1.0504    0.7574   -1.9169 C   0  0  0  0  0  0  0  0  0  0  0  0
   -0.3333    0.6360   -0.5595 C   0  0  0  0  0  0  0  0  0  0  0  0
   -0.4230    1.9866    0.1513 C   0  0  0  0  0  0  0  0  0  0  0  0
   -1.8930    2.3211    0.4136 C   0  0  0  0  0  0  0  0  0  0  0  0
   -2.5378    1.2649    1.2982 C   0  0  0  0  0  0  0  0  0  0  0  0
   -2.4020   -0.1489    0.7285 C   0  0  0  0  0  0  0  0  0  0  0  0
   -0.9696   -0.4326    0.3174 C   0  0  0  0  0  0  0  0  0  0  0  0
   -0.7505   -1.8284   -0.2386 C   0  0  0  0  0  0  0  0  0  0  0  0
    0.7422   -2.1618   -0.3379 C   0  0  0  0  0  0  0  0  0  0  0  0
    1.6196   -0.9495   -0.1402 C   0  0  0  0  0  0  0  0  0  0  0  0
    1.0933    0.2630   -0.8887 C   0  0  0  0  0  0  0  0  0  0  0  0
    2.1170    1.3662   -0.9878 C   0  0  0  0  0  0  0  0  0  0  0  0
    3.1504    1.2949    0.1424 C   0  0  0  0  0  0  0  0  0  0  0  0
    3.0395    0.3362    1.3126 C   0  0  0  0  0  0  0  0  0  0  0  0
    1.8084   -0.6020    1.3518 C   0  0  0  0  0  0  0  0  0  0  0  0
    3.8819   -0.0819    0.1047 C   0  0  0  0  0  0  0  0  0  0  0  0
    3.0781   -1.2170   -0.5919 C   0  0  0  0  0  0  0  0  0  0  0  0
    5.4095   -0.1594    0.1193 C   0  0  0  0  0  0  0  0  0  0  0  0
   -2.7582   -1.1123    1.8914 C   0  0  0  0  0  0  0  0  0  0  0  0
   -3.4101   -0.3870   -0.3561 C   0  0  0  0  0  0  0  0  0  0  0  0
   -3.0417   -0.6636   -1.4731 O   0  0  0  0  0  0  0  0  0  0  0  0
   -4.7215   -0.2929   -0.0858 O   0  0  0  0  0  0  0  0  0  0  0  0
   -0.5663    1.5286   -2.5159 H   0  0  0  0  0  0  0  0  0  0  0  0
   -0.9985   -0.1965   -2.4418 H   0  0  0  0  0  0  0  0  0  0  0  0
   -2.0942    1.0259   -1.7536 H   0  0  0  0  0  0  0  0  0  0  0  0
    0.1168    1.9396    1.0960 H   0  0  0  0  0  0  0  0  0  0  0  0
    0.0077    2.7641   -0.4802 H   0  0  0  0  0  0  0  0  0  0  0  0
   -1.9329    3.2878    0.9391 H   0  0  0  0  0  0  0  0  0  0  0  0
   -2.4412    2.4337   -0.5158 H   0  0  0  0  0  0  0  0  0  0  0  0
   -2.0702    1.2902    2.2889 H   0  0  0  0  0  0  0  0  0  0  0  0
   -3.6009    1.4955    1.4217 H   0  0  0  0  0  0  0  0  0  0  0  0
   -0.4252   -0.4213    1.2903 H   0  0  0  0  0  0  0  0  0  0  0  0
   -1.2307   -2.5768    0.3987 H   0  0  0  0  0  0  0  0  0  0  0  0
   -1.1969   -1.9111   -1.2354 H   0  0  0  0  0  0  0  0  0  0  0  0
    0.9932   -2.9122    0.4233 H   0  0  0  0  0  0  0  0  0  0  0  0
    0.9511   -2.6020   -1.3202 H   0  0  0  0  0  0  0  0  0  0  0  0
    1.0176   -0.1026   -1.9473 H   0  0  0  0  0  0  0  0  0  0  0  0
    2.6440    1.2693   -1.9423 H   0  0  0  0  0  0  0  0  0  0  0  0
    1.6306    2.3366   -0.9646 H   0  0  0  0  0  0  0  0  0  0  0  0
    3.7658    2.1855    0.2711 H   0  0  0  0  0  0  0  0  0  0  0  0
    3.4997    0.5944    2.2641 H   0  0  0  0  0  0  0  0  0  0  0  0
    0.9804   -0.0554    1.7908 H   0  0  0  0  0  0  0  0  0  0  0  0
    2.0307   -1.4962    1.9405 H   0  0  0  0  0  0  0  0  0  0  0  0
    3.3981   -2.1963   -0.2415 H   0  0  0  0  0  0  0  0  0  0  0  0
    3.1493   -1.1429   -1.6746 H   0  0  0  0  0  0  0  0  0  0  0  0
    5.7297   -0.8756    0.8760 H   0  0  0  0  0  0  0  0  0  0  0  0
    5.7663   -0.4806   -0.8592 H   0  0  0  0  0  0  0  0  0  0  0  0
    5.8209    0.8229    0.3517 H   0  0  0  0  0  0  0  0  0  0  0  0
   -3.7774   -0.9178    2.2252 H   0  0  0  0  0  0  0  0  0  0  0  0
   -2.6795   -2.1432    1.5462 H   0  0  0  0  0  0  0  0  0  0  0  0
   -2.0679   -0.9528    2.7198 H   0  0  0  0  0  0  0  0  0  0  0  0
   -5.3332   -0.4549   -0.8171 H   0  0  0  0  0  0  0  0  0  0  0  0
  1  2  1  0  0  0  0
  2  3  1  0  0  0  0
  3  4  1  0  0  0  0
  4  5  1  0  0  0  0
  5  6  1  0  0  0  0
  6  7  1  0  0  0  0
  2  7  1  0  0  0  0
  7  8  1  0  0  0  0
  8  9  1  0  0  0  0
  9 10  1  0  0  0  0
 10 11  1  0  0  0  0
  2 11  1  0  0  0  0
 11 12  1  0  0  0  0
 12 13  1  0  0  0  0
 13 14  1  0  0  0  0
 14 15  1  0  0  0  0
 10 15  1  0  0  0  0
 14 16  1  0  0  0  0
 13 16  1  0  0  0  0
 16 17  1  0  0  0  0
 10 17  1  0  0  0  0
 16 18  1  0  0  0  0
  6 19  1  0  0  0  0
  6 20  1  0  0  0  0
 20 21  2  0  0  0  0
 20 22  1  0  0  0  0
  1 23  1  0  0  0  0
  1 24  1  0  0  0  0
  1 25  1  0  0  0  0
  3 26  1  0  0  0  0
  3 27  1  0  0  0  0
  4 28  1  0  0  0  0
  4 29  1  0  0  0  0
  5 30  1  0  0  0  0
  5 31  1  0  0  0  0
  7 32  1  0  0  0  0
  8 33  1  0  0  0  0
  8 34  1  0  0  0  0
  9 35  1  0  0  0  0
  9 36  1  0  0  0  0
 11 37  1  0  0  0  0
 12 38  1  0  0  0  0
 12 39  1  0  0  0  0
 13 40  1  0  0  0  0
 14 41  1  0  0  0  0
 15 42  1  0  0  0  0
 15 43  1  0  0  0  0
 17 44  1  0  0  0  0
 17 45  1  0  0  0  0
 18 46  1  0  0  0  0
 18 47  1  0  0  0  0
 18 48  1  0  0  0  0
 19 49  1  0  0  0  0
 19 50  1  0  0  0  0
 19 51  1  0  0  0  0
 22 52  1  0  0  0  0
M  END
$$$$
