C20H18O14
APtclcactv06281817443D 0   0.00000     0.00000
 
 52 55  0  0  0  0  0  0  0  0999 V2000
   -2.4890   -1.7474   -1.7804 C   0  0  0  0  0  0  0  0  0  0  0  0
   -3.5635   -1.4580   -0.7196 C   0  0  0  0  0  0  0  0  0  0  0  0
   -2.8538   -0.7825    0.4673 C   0  0  0  0  0  0  0  0  0  0  0  0
   -2.7085    0.6936    0.0578 C   0  0  0  0  0  0  0  0  0  0  0  0
   -4.0703    1.3626    0.1623 C   0  0  0  0  0  0  0  0  0  0  0  0
   -5.1142    0.4240   -0.4579 C   0  0  0  0  0  0  0  0  0  0  0  0
   -4.5086   -0.5545   -1.2846 O   0  0  0  0  0  0  0  0  0  0  0  0
   -5.8853   -0.2041    0.5667 O   0  0  0  0  0  0  0  0  0  0  0  0
   -4.3864    1.6317    1.5287 O   0  0  0  0  0  0  0  0  0  0  0  0
   -1.6792    1.3347    0.8274 O   0  0  0  0  0  0  0  0  0  0  0  0
   -0.4691    0.7531    0.8261 C   0  0  0  0  0  0  0  0  0  0  0  0
   -0.2842   -0.3783    1.2092 O   0  0  0  0  0  0  0  0  0  0  0  0
    0.7068    1.5129    0.3755 C   0  0  0  0  0  0  0  0  0  0  0  0
    0.6443    2.9066    0.3567 C   0  0  0  0  0  0  0  0  0  0  0  0
    1.7394    3.6441   -0.0500 C   0  0  0  0  0  0  0  0  0  0  0  0
    2.8983    2.9946   -0.4648 C   0  0  0  0  0  0  0  0  0  0  0  0
    2.9534    1.6075   -0.4792 C   0  0  0  0  0  0  0  0  0  0  0  0
    1.8692    0.8393   -0.0515 C   0  0  0  0  0  0  0  0  0  0  0  0
    1.9982   -0.6247   -0.0442 C   0  0  0  0  0  0  0  0  0  0  0  0
    3.1361   -1.1588    0.5799 C   0  0  0  0  0  0  0  0  0  0  0  0
    3.3662   -2.5265    0.6179 C   0  0  0  0  0  0  0  0  0  0  0  0
    2.4439   -3.3987    0.0465 C   0  0  0  0  0  0  0  0  0  0  0  0
    1.3109   -2.8968   -0.5568 C   0  0  0  0  0  0  0  0  0  0  0  0
    1.0761   -1.5119   -0.6168 C   0  0  0  0  0  0  0  0  0  0  0  0
   -0.1837   -1.1120   -1.2858 C   0  0  0  0  0  0  0  0  0  0  0  0
   -0.3150   -0.0499   -1.8563 O   0  0  0  0  0  0  0  0  0  0  0  0
   -1.2099   -1.9948   -1.1742 O   0  0  0  0  0  0  0  0  0  0  0  0
    2.6587   -4.7403    0.0847 O   0  0  0  0  0  0  0  0  0  0  0  0
    4.4876   -3.0088    1.2149 O   0  0  0  0  0  0  0  0  0  0  0  0
    4.0296   -0.3413    1.2032 O   0  0  0  0  0  0  0  0  0  0  0  0
    4.0809    1.0108   -0.9563 O   0  0  0  0  0  0  0  0  0  0  0  0
    3.9799    3.7191   -0.8552 O   0  0  0  0  0  0  0  0  0  0  0  0
    1.6822    5.0018   -0.0390 O   0  0  0  0  0  0  0  0  0  0  0  0
   -3.6135   -0.9237    1.6715 O   0  0  0  0  0  0  0  0  0  0  0  0
   -2.7887   -2.6255   -2.3612 H   0  0  0  0  0  0  0  0  0  0  0  0
   -2.4160   -0.8940   -2.4578 H   0  0  0  0  0  0  0  0  0  0  0  0
   -4.0325   -2.3788   -0.4022 H   0  0  0  0  0  0  0  0  0  0  0  0
   -1.8754   -1.2522    0.6212 H   0  0  0  0  0  0  0  0  0  0  0  0
   -2.3989    0.7031   -1.0030 H   0  0  0  0  0  0  0  0  0  0  0  0
   -4.0478    2.3072   -0.3933 H   0  0  0  0  0  0  0  0  0  0  0  0
   -5.7968    1.0245   -1.0751 H   0  0  0  0  0  0  0  0  0  0  0  0
   -6.5620   -0.8096    0.2344 H   0  0  0  0  0  0  0  0  0  0  0  0
   -5.2445    2.0585    1.6572 H   0  0  0  0  0  0  0  0  0  0  0  0
   -0.2612    3.4100    0.6651 H   0  0  0  0  0  0  0  0  0  0  0  0
    0.5969   -3.5832   -0.9907 H   0  0  0  0  0  0  0  0  0  0  0  0
    2.2890   -5.1757    0.8649 H   0  0  0  0  0  0  0  0  0  0  0  0
    4.3806   -3.1996    2.1569 H   0  0  0  0  0  0  0  0  0  0  0  0
    3.8356   -0.1865    2.1378 H   0  0  0  0  0  0  0  0  0  0  0  0
    4.7531    0.8438   -0.2815 H   0  0  0  0  0  0  0  0  0  0  0  0
    4.5917    3.9309   -0.1368 H   0  0  0  0  0  0  0  0  0  0  0  0
    1.9695    5.4008    0.7936 H   0  0  0  0  0  0  0  0  0  0  0  0
   -3.7661   -1.8415    1.9350 H   0  0  0  0  0  0  0  0  0  0  0  0
  1  2  1  0  0  0  0
  2  3  1  0  0  0  0
  3  4  1  0  0  0  0
  4  5  1  0  0  0  0
  5  6  1  0  0  0  0
  6  7  1  0  0  0  0
  2  7  1  0  0  0  0
  6  8  1  0  0  0  0
  5  9  1  0  0  0  0
  4 10  1  0  0  0  0
 10 11  1  0  0  0  0
 11 12  2  0  0  0  0
 11 13  1  0  0  0  0
 13 14  2  0  0  0  0
 14 15  1  0  0  0  0
 15 16  2  0  0  0  0
 16 17  1  0  0  0  0
 17 18  2  0  0  0  0
 13 18  1  0  0  0  0
 18 19  1  0  0  0  0
 19 20  2  0  0  0  0
 20 21  1  0  0  0  0
 21 22  2  0  0  0  0
 22 23  1  0  0  0  0
 23 24  2  0  0  0  0
 19 24  1  0  0  0  0
 24 25  1  0  0  0  0
 25 26  2  0  0  0  0
 25 27  1  0  0  0  0
  1 27  1  0  0  0  0
 22 28  1  0  0  0  0
 21 29  1  0  0  0  0
 20 30  1  0  0  0  0
 17 31  1  0  0  0  0
 16 32  1  0  0  0  0
 15 33  1  0  0  0  0
  3 34  1  0  0  0  0
  1 35  1  0  0  0  0
  1 36  1  0  0  0  0
  2 37  1  0  0  0  0
  3 38  1  0  0  0  0
  4 39  1  0  0  0  0
  5 40  1  0  0  0  0
  6 41  1  0  0  0  0
  8 42  1  0  0  0  0
  9 43  1  0  0  0  0
 14 44  1  0  0  0  0
 23 45  1  0  0  0  0
 28 46  1  0  0  0  0
 29 47  1  0  0  0  0
 30 48  1  0  0  0  0
 31 49  1  0  0  0  0
 32 50  1  0  0  0  0
 33 51  1  0  0  0  0
 34 52  1  0  0  0  0
M  END
$$$$
