C10H18
APtclcactv06211806063D 0   0.00000     0.00000
 
 28 28  0  0  0  0  0  0  0  0999 V2000
    3.5726   -0.0000   -0.0010 C   0  0  0  0  0  0  0  0  0  0  0  0
    2.0846   -0.0000    0.3550 C   0  0  0  0  0  0  0  0  0  0  0  0
    1.4208    1.2492   -0.2278 C   0  0  0  0  0  0  0  0  0  0  0  0
   -0.0672    1.2492    0.1281 C   0  0  0  0  0  0  0  0  0  0  0  0
   -0.7310    0.0000   -0.4547 C   0  0  0  0  0  0  0  0  0  0  0  0
   -0.0672   -1.2492    0.1281 C   0  0  0  0  0  0  0  0  0  0  0  0
    1.4208   -1.2492   -0.2278 C   0  0  0  0  0  0  0  0  0  0  0  0
   -2.1967    0.0000   -0.1041 C   0  0  0  0  0  0  0  0  0  0  0  0
   -3.0977    0.0000   -1.0551 C   0  0  0  0  0  0  0  0  0  0  0  0
   -2.6259   -0.0000    1.3405 C   0  0  0  0  0  0  0  0  0  0  0  0
    4.0455    0.8900    0.4142 H   0  0  0  0  0  0  0  0  0  0  0  0
    4.0455   -0.8900    0.4142 H   0  0  0  0  0  0  0  0  0  0  0  0
    3.6869    0.0000   -1.0850 H   0  0  0  0  0  0  0  0  0  0  0  0
    1.9703   -0.0000    1.4390 H   0  0  0  0  0  0  0  0  0  0  0  0
    1.8937    2.1392    0.1874 H   0  0  0  0  0  0  0  0  0  0  0  0
    1.5351    1.2492   -1.3118 H   0  0  0  0  0  0  0  0  0  0  0  0
   -0.1815    1.2492    1.2121 H   0  0  0  0  0  0  0  0  0  0  0  0
   -0.5401    2.1392   -0.2871 H   0  0  0  0  0  0  0  0  0  0  0  0
   -0.6168    0.0000   -1.5387 H   0  0  0  0  0  0  0  0  0  0  0  0
   -0.1815   -1.2492    1.2121 H   0  0  0  0  0  0  0  0  0  0  0  0
   -0.5401   -2.1392   -0.2871 H   0  0  0  0  0  0  0  0  0  0  0  0
    1.5351   -1.2492   -1.3118 H   0  0  0  0  0  0  0  0  0  0  0  0
    1.8937   -2.1392    0.1874 H   0  0  0  0  0  0  0  0  0  0  0  0
   -4.1480    0.0000   -0.8038 H   0  0  0  0  0  0  0  0  0  0  0  0
   -2.7901    0.0000   -2.0904 H   0  0  0  0  0  0  0  0  0  0  0  0
   -1.7443   -0.0000    1.9815 H   0  0  0  0  0  0  0  0  0  0  0  0
   -3.2219    0.8900    1.5424 H   0  0  0  0  0  0  0  0  0  0  0  0
   -3.2219   -0.8900    1.5424 H   0  0  0  0  0  0  0  0  0  0  0  0
  1  2  1  0  0  0  0
  2  3  1  0  0  0  0
  3  4  1  0  0  0  0
  4  5  1  0  0  0  0
  5  6  1  0  0  0  0
  6  7  1  0  0  0  0
  2  7  1  0  0  0  0
  5  8  1  0  0  0  0
  8  9  2  0  0  0  0
  8 10  1  0  0  0  0
  1 11  1  0  0  0  0
  1 12  1  0  0  0  0
  1 13  1  0  0  0  0
  2 14  1  0  0  0  0
  3 15  1  0  0  0  0
  3 16  1  0  0  0  0
  4 17  1  0  0  0  0
  4 18  1  0  0  0  0
  5 19  1  0  0  0  0
  6 20  1  0  0  0  0
  6 21  1  0  0  0  0
  7 22  1  0  0  0  0
  7 23  1  0  0  0  0
  9 24  1  0  0  0  0
  9 25  1  0  0  0  0
 10 26  1  0  0  0  0
 10 27  1  0  0  0  0
 10 28  1  0  0  0  0
M  END
$$$$
