C45H38O18
APtclcactv06281817293D 0   0.00000     0.00000
 
101109  0  0  0  0  0  0  0  0999 V2000
   -0.9214   -1.8348    3.9750 C   0  0  0  0  0  0  0  0  0  0  0  0
   -0.9996   -3.0989    3.1154 C   0  0  0  0  0  0  0  0  0  0  0  0
   -2.0618   -2.8780    2.0306 C   0  0  0  0  0  0  0  0  0  0  0  0
   -1.6167   -1.8272    1.1719 O   0  0  0  0  0  0  0  0  0  0  0  0
   -1.1784   -0.6778    1.7487 C   0  0  0  0  0  0  0  0  0  0  0  0
   -0.8273   -0.6210    3.0855 C   0  0  0  0  0  0  0  0  0  0  0  0
   -0.3782    0.5754    3.6335 C   0  0  0  0  0  0  0  0  0  0  0  0
   -0.2843    1.7119    2.8474 C   0  0  0  0  0  0  0  0  0  0  0  0
   -0.6393    1.6563    1.5078 C   0  0  0  0  0  0  0  0  0  0  0  0
   -1.0844    0.4645    0.9604 C   0  0  0  0  0  0  0  0  0  0  0  0
   -1.4692    0.4052   -0.4954 C   0  0  0  0  0  0  0  0  0  0  0  0
   -2.8794    0.9732   -0.6730 C   0  0  0  0  0  0  0  0  0  0  0  0
   -2.8145    2.4932   -0.4756 C   0  0  0  0  0  0  0  0  0  0  0  0
   -2.0160    3.0491   -1.5211 O   0  0  0  0  0  0  0  0  0  0  0  0
   -0.8074    2.4799   -1.7683 C   0  0  0  0  0  0  0  0  0  0  0  0
    0.1246    3.1998   -2.5079 C   0  0  0  0  0  0  0  0  0  0  0  0
    1.3672    2.6545   -2.7868 C   0  0  0  0  0  0  0  0  0  0  0  0
    1.6842    1.3856   -2.3265 C   0  0  0  0  0  0  0  0  0  0  0  0
    0.7574    0.6682   -1.5875 C   0  0  0  0  0  0  0  0  0  0  0  0
   -0.4895    1.2148   -1.3067 C   0  0  0  0  0  0  0  0  0  0  0  0
    1.0683   -0.5752   -1.1359 O   0  0  0  0  0  0  0  0  0  0  0  0
    3.0338    0.7876   -2.6299 C   0  0  0  0  0  0  0  0  0  0  0  0
    4.0524    1.2800   -1.5988 C   0  0  0  0  0  0  0  0  0  0  0  0
    3.7516    0.5947   -0.2597 C   0  0  0  0  0  0  0  0  0  0  0  0
    3.9713   -0.8082   -0.4127 O   0  0  0  0  0  0  0  0  0  0  0  0
    3.4040   -1.4271   -1.4808 C   0  0  0  0  0  0  0  0  0  0  0  0
    3.2946   -2.8133   -1.4615 C   0  0  0  0  0  0  0  0  0  0  0  0
    2.7271   -3.4845   -2.5323 C   0  0  0  0  0  0  0  0  0  0  0  0
    2.2653   -2.7719   -3.6284 C   0  0  0  0  0  0  0  0  0  0  0  0
    2.3715   -1.3906   -3.6478 C   0  0  0  0  0  0  0  0  0  0  0  0
    2.9404   -0.7162   -2.5737 C   0  0  0  0  0  0  0  0  0  0  0  0
    1.9185   -0.6922   -4.7219 O   0  0  0  0  0  0  0  0  0  0  0  0
    2.6235   -4.8393   -2.5086 O   0  0  0  0  0  0  0  0  0  0  0  0
    4.6677    1.1387    0.8060 C   0  0  0  0  0  0  0  0  0  0  0  0
    4.2076    2.1009    1.6856 C   0  0  0  0  0  0  0  0  0  0  0  0
    5.0487    2.6022    2.6661 C   0  0  0  0  0  0  0  0  0  0  0  0
    6.3559    2.1349    2.7626 C   0  0  0  0  0  0  0  0  0  0  0  0
    6.8107    1.1704    1.8778 C   0  0  0  0  0  0  0  0  0  0  0  0
    5.9647    0.6704    0.9055 C   0  0  0  0  0  0  0  0  0  0  0  0
    7.1853    2.6242    3.7229 O   0  0  0  0  0  0  0  0  0  0  0  0
    4.5978    3.5491    3.5318 O   0  0  0  0  0  0  0  0  0  0  0  0
    5.3731    0.9418   -2.0270 O   0  0  0  0  0  0  0  0  0  0  0  0
    2.2738    3.3620   -3.5108 O   0  0  0  0  0  0  0  0  0  0  0  0
   -4.2044    3.0726   -0.5356 C   0  0  0  0  0  0  0  0  0  0  0  0
   -4.8739    3.3816    0.6337 C   0  0  0  0  0  0  0  0  0  0  0  0
   -6.1519    3.9144    0.5803 C   0  0  0  0  0  0  0  0  0  0  0  0
   -6.7585    4.1373   -0.6520 C   0  0  0  0  0  0  0  0  0  0  0  0
   -6.0819    3.8254   -1.8204 C   0  0  0  0  0  0  0  0  0  0  0  0
   -4.8049    3.2994   -1.7601 C   0  0  0  0  0  0  0  0  0  0  0  0
   -8.0128    4.6597   -0.7096 O   0  0  0  0  0  0  0  0  0  0  0  0
   -6.8120    4.2184    1.7298 O   0  0  0  0  0  0  0  0  0  0  0  0
   -3.3556    0.6781   -1.9876 O   0  0  0  0  0  0  0  0  0  0  0  0
   -0.5509    2.7697    0.7336 O   0  0  0  0  0  0  0  0  0  0  0  0
   -0.0304    0.6299    4.9461 O   0  0  0  0  0  0  0  0  0  0  0  0
   -2.2430   -4.1433    1.2325 C   0  0  0  0  0  0  0  0  0  0  0  0
   -3.3095   -4.9811    1.5006 C   0  0  0  0  0  0  0  0  0  0  0  0
   -3.4776   -6.1449    0.7676 C   0  0  0  0  0  0  0  0  0  0  0  0
   -2.5710   -6.4675   -0.2376 C   0  0  0  0  0  0  0  0  0  0  0  0
   -1.5042   -5.6234   -0.5012 C   0  0  0  0  0  0  0  0  0  0  0  0
   -1.3455   -4.4610    0.2300 C   0  0  0  0  0  0  0  0  0  0  0  0
   -2.7315   -7.6088   -0.9594 O   0  0  0  0  0  0  0  0  0  0  0  0
   -4.5259   -6.9703    1.0304 O   0  0  0  0  0  0  0  0  0  0  0  0
    0.2686   -3.3455    2.5047 O   0  0  0  0  0  0  0  0  0  0  0  0
   -1.8150   -1.7618    4.5949 H   0  0  0  0  0  0  0  0  0  0  0  0
   -0.0402   -1.8850    4.6145 H   0  0  0  0  0  0  0  0  0  0  0  0
   -1.2804   -3.9492    3.7369 H   0  0  0  0  0  0  0  0  0  0  0  0
   -3.0074   -2.5973    2.4945 H   0  0  0  0  0  0  0  0  0  0  0  0
    0.0650    2.6394    3.2766 H   0  0  0  0  0  0  0  0  0  0  0  0
   -1.4503   -0.6309   -0.8336 H   0  0  0  0  0  0  0  0  0  0  0  0
   -3.5481    0.5348    0.0677 H   0  0  0  0  0  0  0  0  0  0  0  0
   -2.3634    2.7191    0.4906 H   0  0  0  0  0  0  0  0  0  0  0  0
   -0.1215    4.1883   -2.8667 H   0  0  0  0  0  0  0  0  0  0  0  0
    1.4803   -0.5844   -0.2611 H   0  0  0  0  0  0  0  0  0  0  0  0
    3.3502    1.0937   -3.6270 H   0  0  0  0  0  0  0  0  0  0  0  0
    3.9676    2.3608   -1.4857 H   0  0  0  0  0  0  0  0  0  0  0  0
    2.7138    0.7754    0.0203 H   0  0  0  0  0  0  0  0  0  0  0  0
    3.6539   -3.3691   -0.6080 H   0  0  0  0  0  0  0  0  0  0  0  0
    1.8241   -3.2925   -4.4655 H   0  0  0  0  0  0  0  0  0  0  0  0
    0.9920   -0.4236   -4.6541 H   0  0  0  0  0  0  0  0  0  0  0  0
    1.7985   -5.1640   -2.1227 H   0  0  0  0  0  0  0  0  0  0  0  0
    3.1927    2.4621    1.6083 H   0  0  0  0  0  0  0  0  0  0  0  0
    7.8248    0.8061    1.9505 H   0  0  0  0  0  0  0  0  0  0  0  0
    6.3204   -0.0813    0.2165 H   0  0  0  0  0  0  0  0  0  0  0  0
    7.1576    2.1317    4.5546 H   0  0  0  0  0  0  0  0  0  0  0  0
    4.1995    3.1890    4.3361 H   0  0  0  0  0  0  0  0  0  0  0  0
    6.0687    1.2254   -1.4181 H   0  0  0  0  0  0  0  0  0  0  0  0
    2.8572    3.9173   -2.9757 H   0  0  0  0  0  0  0  0  0  0  0  0
   -4.4010    3.2073    1.5889 H   0  0  0  0  0  0  0  0  0  0  0  0
   -6.5504    3.9974   -2.7781 H   0  0  0  0  0  0  0  0  0  0  0  0
   -4.2786    3.0567   -2.6715 H   0  0  0  0  0  0  0  0  0  0  0  0
   -8.0352    5.6257   -0.7464 H   0  0  0  0  0  0  0  0  0  0  0  0
   -6.6624    5.1212    2.0423 H   0  0  0  0  0  0  0  0  0  0  0  0
   -4.2457    1.0104   -2.1673 H   0  0  0  0  0  0  0  0  0  0  0  0
    0.3005    2.8714    0.2867 H   0  0  0  0  0  0  0  0  0  0  0  0
    0.9006    0.4307    5.1149 H   0  0  0  0  0  0  0  0  0  0  0  0
   -4.0115   -4.7286    2.2815 H   0  0  0  0  0  0  0  0  0  0  0  0
   -0.7992   -5.8715   -1.2808 H   0  0  0  0  0  0  0  0  0  0  0  0
   -0.5136   -3.8039    0.0236 H   0  0  0  0  0  0  0  0  0  0  0  0
   -3.2712   -7.4990   -1.7542 H   0  0  0  0  0  0  0  0  0  0  0  0
   -5.3226   -6.7689    0.5206 H   0  0  0  0  0  0  0  0  0  0  0  0
    0.9900   -3.4760    3.1353 H   0  0  0  0  0  0  0  0  0  0  0  0
  1  2  1  0  0  0  0
  2  3  1  0  0  0  0
  3  4  1  0  0  0  0
  4  5  1  0  0  0  0
  5  6  2  0  0  0  0
  1  6  1  0  0  0  0
  6  7  1  0  0  0  0
  7  8  2  0  0  0  0
  8  9  1  0  0  0  0
  9 10  2  0  0  0  0
  5 10  1  0  0  0  0
 10 11  1  0  0  0  0
 11 12  1  0  0  0  0
 12 13  1  0  0  0  0
 13 14  1  0  0  0  0
 14 15  1  0  0  0  0
 15 16  2  0  0  0  0
 16 17  1  0  0  0  0
 17 18  2  0  0  0  0
 18 19  1  0  0  0  0
 19 20  2  0  0  0  0
 11 20  1  0  0  0  0
 15 20  1  0  0  0  0
 19 21  1  0  0  0  0
 18 22  1  0  0  0  0
 22 23  1  0  0  0  0
 23 24  1  0  0  0  0
 24 25  1  0  0  0  0
 25 26  1  0  0  0  0
 26 27  2  0  0  0  0
 27 28  1  0  0  0  0
 28 29  2  0  0  0  0
 29 30  1  0  0  0  0
 30 31  2  0  0  0  0
 22 31  1  0  0  0  0
 26 31  1  0  0  0  0
 30 32  1  0  0  0  0
 28 33  1  0  0  0  0
 24 34  1  0  0  0  0
 34 35  2  0  0  0  0
 35 36  1  0  0  0  0
 36 37  2  0  0  0  0
 37 38  1  0  0  0  0
 38 39  2  0  0  0  0
 34 39  1  0  0  0  0
 37 40  1  0  0  0  0
 36 41  1  0  0  0  0
 23 42  1  0  0  0  0
 17 43  1  0  0  0  0
 13 44  1  0  0  0  0
 44 45  2  0  0  0  0
 45 46  1  0  0  0  0
 46 47  2  0  0  0  0
 47 48  1  0  0  0  0
 48 49  2  0  0  0  0
 44 49  1  0  0  0  0
 47 50  1  0  0  0  0
 46 51  1  0  0  0  0
 12 52  1  0  0  0  0
  9 53  1  0  0  0  0
  7 54  1  0  0  0  0
  3 55  1  0  0  0  0
 55 56  2  0  0  0  0
 56 57  1  0  0  0  0
 57 58  2  0  0  0  0
 58 59  1  0  0  0  0
 59 60  2  0  0  0  0
 55 60  1  0  0  0  0
 58 61  1  0  0  0  0
 57 62  1  0  0  0  0
  2 63  1  0  0  0  0
  1 64  1  0  0  0  0
  1 65  1  0  0  0  0
  2 66  1  0  0  0  0
  3 67  1  0  0  0  0
  8 68  1  0  0  0  0
 11 69  1  0  0  0  0
 12 70  1  0  0  0  0
 13 71  1  0  0  0  0
 16 72  1  0  0  0  0
 21 73  1  0  0  0  0
 22 74  1  0  0  0  0
 23 75  1  0  0  0  0
 24 76  1  0  0  0  0
 27 77  1  0  0  0  0
 29 78  1  0  0  0  0
 32 79  1  0  0  0  0
 33 80  1  0  0  0  0
 35 81  1  0  0  0  0
 38 82  1  0  0  0  0
 39 83  1  0  0  0  0
 40 84  1  0  0  0  0
 41 85  1  0  0  0  0
 42 86  1  0  0  0  0
 43 87  1  0  0  0  0
 45 88  1  0  0  0  0
 48 89  1  0  0  0  0
 49 90  1  0  0  0  0
 50 91  1  0  0  0  0
 51 92  1  0  0  0  0
 52 93  1  0  0  0  0
 53 94  1  0  0  0  0
 54 95  1  0  0  0  0
 56 96  1  0  0  0  0
 59 97  1  0  0  0  0
 60 98  1  0  0  0  0
 61 99  1  0  0  0  0
 62100  1  0  0  0  0
 63101  1  0  0  0  0
M  END
$$$$
