C22H22O12
APtclcactv06281817443D 0   0.00000     0.00000
 
 56 59  0  0  0  0  0  0  0  0999 V2000
    4.3913    2.6541   -1.3974 C   0  0  0  0  0  0  0  0  0  0  0  0
    4.4887    2.0692   -0.0972 O   0  0  0  0  0  0  0  0  0  0  0  0
    4.2781    0.7270   -0.0059 C   0  0  0  0  0  0  0  0  0  0  0  0
    5.3438   -0.1538   -0.1354 C   0  0  0  0  0  0  0  0  0  0  0  0
    5.1428   -1.5268   -0.0443 C   0  0  0  0  0  0  0  0  0  0  0  0
    3.8751   -2.0309    0.1770 C   0  0  0  0  0  0  0  0  0  0  0  0
    2.7939   -1.1501    0.3091 C   0  0  0  0  0  0  0  0  0  0  0  0
    2.9974    0.2382    0.2227 C   0  0  0  0  0  0  0  0  0  0  0  0
    1.9497    1.0803    0.3515 O   0  0  0  0  0  0  0  0  0  0  0  0
    0.6972    0.6414    0.5627 C   0  0  0  0  0  0  0  0  0  0  0  0
    0.3941   -0.6834    0.6623 C   0  0  0  0  0  0  0  0  0  0  0  0
    1.4290   -1.6470    0.5459 C   0  0  0  0  0  0  0  0  0  0  0  0
    1.1950   -2.8422    0.6299 O   0  0  0  0  0  0  0  0  0  0  0  0
   -0.8903   -1.0789    0.8771 O   0  0  0  0  0  0  0  0  0  0  0  0
   -1.4984   -1.8854   -0.1337 C   0  0  0  0  0  0  0  0  0  0  0  0
   -2.7820   -2.5123    0.4169 C   0  0  0  0  0  0  0  0  0  0  0  0
   -3.7696   -1.3991    0.7801 C   0  0  0  0  0  0  0  0  0  0  0  0
   -4.0289   -0.5373   -0.4594 C   0  0  0  0  0  0  0  0  0  0  0  0
   -2.6971    0.0133   -0.9762 C   0  0  0  0  0  0  0  0  0  0  0  0
   -1.8145   -1.0726   -1.2658 O   0  0  0  0  0  0  0  0  0  0  0  0
   -2.9407    0.8263   -2.2492 C   0  0  0  0  0  0  0  0  0  0  0  0
   -1.7175    1.4360   -2.6664 O   0  0  0  0  0  0  0  0  0  0  0  0
   -4.6426   -1.3336   -1.4749 O   0  0  0  0  0  0  0  0  0  0  0  0
   -4.9981   -1.9768    1.2262 O   0  0  0  0  0  0  0  0  0  0  0  0
   -3.3628   -3.3609   -0.5753 O   0  0  0  0  0  0  0  0  0  0  0  0
   -0.3893    1.6299    0.6918 C   0  0  0  0  0  0  0  0  0  0  0  0
   -1.3075    1.5295    1.7410 C   0  0  0  0  0  0  0  0  0  0  0  0
   -2.3208    2.4552    1.8577 C   0  0  0  0  0  0  0  0  0  0  0  0
   -2.4314    3.4875    0.9341 C   0  0  0  0  0  0  0  0  0  0  0  0
   -1.5212    3.5910   -0.1108 C   0  0  0  0  0  0  0  0  0  0  0  0
   -0.5007    2.6737   -0.2314 C   0  0  0  0  0  0  0  0  0  0  0  0
   -3.4322    4.3975    1.0527 O   0  0  0  0  0  0  0  0  0  0  0  0
    3.6789   -3.3717    0.2655 O   0  0  0  0  0  0  0  0  0  0  0  0
    6.5943    0.3303   -0.3537 O   0  0  0  0  0  0  0  0  0  0  0  0
    5.1278    2.1965   -2.0578 H   0  0  0  0  0  0  0  0  0  0  0  0
    3.3911    2.4868   -1.7970 H   0  0  0  0  0  0  0  0  0  0  0  0
    4.5806    3.7254   -1.3289 H   0  0  0  0  0  0  0  0  0  0  0  0
    5.9799   -2.2013   -0.1473 H   0  0  0  0  0  0  0  0  0  0  0  0
   -0.8083   -2.6741   -0.4335 H   0  0  0  0  0  0  0  0  0  0  0  0
   -2.5491   -3.0972    1.3068 H   0  0  0  0  0  0  0  0  0  0  0  0
   -3.3470   -0.7809    1.5722 H   0  0  0  0  0  0  0  0  0  0  0  0
   -4.6876    0.2903   -0.1963 H   0  0  0  0  0  0  0  0  0  0  0  0
   -2.2489    0.6533   -0.2162 H   0  0  0  0  0  0  0  0  0  0  0  0
   -3.3053    0.1671   -3.0371 H   0  0  0  0  0  0  0  0  0  0  0  0
   -3.6827    1.5996   -2.0501 H   0  0  0  0  0  0  0  0  0  0  0  0
   -1.7973    1.9684   -3.4697 H   0  0  0  0  0  0  0  0  0  0  0  0
   -5.4901   -1.7192   -1.2137 H   0  0  0  0  0  0  0  0  0  0  0  0
   -4.9069   -2.5418    2.0056 H   0  0  0  0  0  0  0  0  0  0  0  0
   -2.8244   -4.1332   -0.7963 H   0  0  0  0  0  0  0  0  0  0  0  0
   -1.2227    0.7271    2.4589 H   0  0  0  0  0  0  0  0  0  0  0  0
   -3.0306    2.3784    2.6680 H   0  0  0  0  0  0  0  0  0  0  0  0
   -1.6114    4.3945   -0.8267 H   0  0  0  0  0  0  0  0  0  0  0  0
    0.2064    2.7551   -1.0436 H   0  0  0  0  0  0  0  0  0  0  0  0
   -3.2020    5.1674    1.5907 H   0  0  0  0  0  0  0  0  0  0  0  0
    3.7594   -3.7227    1.1630 H   0  0  0  0  0  0  0  0  0  0  0  0
    7.0938    0.5085    0.4550 H   0  0  0  0  0  0  0  0  0  0  0  0
  1  2  1  0  0  0  0
  2  3  1  0  0  0  0
  3  4  2  0  0  0  0
  4  5  1  0  0  0  0
  5  6  2  0  0  0  0
  6  7  1  0  0  0  0
  7  8  2  0  0  0  0
  3  8  1  0  0  0  0
  8  9  1  0  0  0  0
  9 10  1  0  0  0  0
 10 11  2  0  0  0  0
 11 12  1  0  0  0  0
  7 12  1  0  0  0  0
 12 13  2  0  0  0  0
 11 14  1  0  0  0  0
 14 15  1  0  0  0  0
 15 16  1  0  0  0  0
 16 17  1  0  0  0  0
 17 18  1  0  0  0  0
 18 19  1  0  0  0  0
 19 20  1  0  0  0  0
 15 20  1  0  0  0  0
 19 21  1  0  0  0  0
 21 22  1  0  0  0  0
 18 23  1  0  0  0  0
 17 24  1  0  0  0  0
 16 25  1  0  0  0  0
 10 26  1  0  0  0  0
 26 27  2  0  0  0  0
 27 28  1  0  0  0  0
 28 29  2  0  0  0  0
 29 30  1  0  0  0  0
 30 31  2  0  0  0  0
 26 31  1  0  0  0  0
 29 32  1  0  0  0  0
  6 33  1  0  0  0  0
  4 34  1  0  0  0  0
  1 35  1  0  0  0  0
  1 36  1  0  0  0  0
  1 37  1  0  0  0  0
  5 38  1  0  0  0  0
 15 39  1  0  0  0  0
 16 40  1  0  0  0  0
 17 41  1  0  0  0  0
 18 42  1  0  0  0  0
 19 43  1  0  0  0  0
 21 44  1  0  0  0  0
 21 45  1  0  0  0  0
 22 46  1  0  0  0  0
 23 47  1  0  0  0  0
 24 48  1  0  0  0  0
 25 49  1  0  0  0  0
 27 50  1  0  0  0  0
 28 51  1  0  0  0  0
 30 52  1  0  0  0  0
 31 53  1  0  0  0  0
 32 54  1  0  0  0  0
 33 55  1  0  0  0  0
 34 56  1  0  0  0  0
M  END
$$$$
