C21H22O5
APtclcactv06281817443D 0   0.00000     0.00000
 
 48 49  0  0  0  0  0  0  0  0999 V2000
    3.1350   -3.7283   -1.5130 C   0  0  0  0  0  0  0  0  0  0  0  0
    3.1572   -3.4197   -0.0381 C   0  0  0  0  0  0  0  0  0  0  0  0
    3.5181   -2.2308    0.3770 C   0  0  0  0  0  0  0  0  0  0  0  0
    3.7973   -1.1368   -0.6212 C   0  0  0  0  0  0  0  0  0  0  0  0
    2.9689    0.0757   -0.2825 C   0  0  0  0  0  0  0  0  0  0  0  0
    3.4771    1.0446    0.5730 C   0  0  0  0  0  0  0  0  0  0  0  0
    2.7218    2.1663    0.8913 C   0  0  0  0  0  0  0  0  0  0  0  0
    1.4565    2.3265    0.3578 C   0  0  0  0  0  0  0  0  0  0  0  0
    0.9351    1.3515   -0.5081 C   0  0  0  0  0  0  0  0  0  0  0  0
    1.7071    0.2233   -0.8288 C   0  0  0  0  0  0  0  0  0  0  0  0
    1.2125   -0.7243   -1.6644 O   0  0  0  0  0  0  0  0  0  0  0  0
   -0.4110    1.5137   -1.0802 C   0  0  0  0  0  0  0  0  0  0  0  0
   -0.5668    2.1703   -2.0947 O   0  0  0  0  0  0  0  0  0  0  0  0
   -1.5621    0.8868   -0.4308 C   0  0  0  0  0  0  0  0  0  0  0  0
   -2.7810    0.9496   -1.0095 C   0  0  0  0  0  0  0  0  0  0  0  0
   -3.9374    0.3197   -0.3571 C   0  0  0  0  0  0  0  0  0  0  0  0
   -5.2019    0.3834   -0.9547 C   0  0  0  0  0  0  0  0  0  0  0  0
   -6.2818   -0.2083   -0.3395 C   0  0  0  0  0  0  0  0  0  0  0  0
   -6.1185   -0.8682    0.8733 C   0  0  0  0  0  0  0  0  0  0  0  0
   -4.8650   -0.9339    1.4713 C   0  0  0  0  0  0  0  0  0  0  0  0
   -3.7774   -0.3510    0.8613 C   0  0  0  0  0  0  0  0  0  0  0  0
   -7.1866   -1.4499    1.4759 O   0  0  0  0  0  0  0  0  0  0  0  0
    0.7203    3.4225    0.6703 O   0  0  0  0  0  0  0  0  0  0  0  0
    4.7182    0.8945    1.1013 O   0  0  0  0  0  0  0  0  0  0  0  0
    5.1811    1.9272    1.9737 C   0  0  0  0  0  0  0  0  0  0  0  0
    2.7644   -4.4789    0.9593 C   0  0  0  0  0  0  0  0  0  0  0  0
    4.1122   -3.5113   -1.9444 H   0  0  0  0  0  0  0  0  0  0  0  0
    2.8987   -4.7821   -1.6602 H   0  0  0  0  0  0  0  0  0  0  0  0
    2.3780   -3.1145   -2.0012 H   0  0  0  0  0  0  0  0  0  0  0  0
    3.6155   -2.0345    1.4345 H   0  0  0  0  0  0  0  0  0  0  0  0
    4.8549   -0.8753   -0.5873 H   0  0  0  0  0  0  0  0  0  0  0  0
    3.5407   -1.4840   -1.6221 H   0  0  0  0  0  0  0  0  0  0  0  0
    3.1241    2.9150    1.5577 H   0  0  0  0  0  0  0  0  0  0  0  0
    1.4114   -0.5682   -2.5978 H   0  0  0  0  0  0  0  0  0  0  0  0
   -1.4373    0.3736    0.5113 H   0  0  0  0  0  0  0  0  0  0  0  0
   -2.9057    1.4627   -1.9516 H   0  0  0  0  0  0  0  0  0  0  0  0
   -5.3299    0.8961   -1.8966 H   0  0  0  0  0  0  0  0  0  0  0  0
   -7.2577   -0.1594   -0.7994 H   0  0  0  0  0  0  0  0  0  0  0  0
   -4.7436   -1.4475    2.4136 H   0  0  0  0  0  0  0  0  0  0  0  0
   -2.8041   -0.4026    1.3266 H   0  0  0  0  0  0  0  0  0  0  0  0
   -7.3299   -2.3710    1.2186 H   0  0  0  0  0  0  0  0  0  0  0  0
    0.8524    4.1692    0.0703 H   0  0  0  0  0  0  0  0  0  0  0  0
    5.2047    2.8745    1.4350 H   0  0  0  0  0  0  0  0  0  0  0  0
    4.5079    2.0111    2.8269 H   0  0  0  0  0  0  0  0  0  0  0  0
    6.1839    1.6839    2.3248 H   0  0  0  0  0  0  0  0  0  0  0  0
    3.6468   -5.0486    1.2508 H   0  0  0  0  0  0  0  0  0  0  0  0
    2.3303   -4.0056    1.8400 H   0  0  0  0  0  0  0  0  0  0  0  0
    2.0321   -5.1487    0.5086 H   0  0  0  0  0  0  0  0  0  0  0  0
  1  2  1  0  0  0  0
  2  3  2  0  0  0  0
  3  4  1  0  0  0  0
  4  5  1  0  0  0  0
  5  6  2  0  0  0  0
  6  7  1  0  0  0  0
  7  8  2  0  0  0  0
  8  9  1  0  0  0  0
  9 10  2  0  0  0  0
  5 10  1  0  0  0  0
 10 11  1  0  0  0  0
  9 12  1  0  0  0  0
 12 13  2  0  0  0  0
 12 14  1  0  0  0  0
 14 15  2  0  0  0  0
 15 16  1  0  0  0  0
 16 17  2  0  0  0  0
 17 18  1  0  0  0  0
 18 19  2  0  0  0  0
 19 20  1  0  0  0  0
 20 21  2  0  0  0  0
 16 21  1  0  0  0  0
 19 22  1  0  0  0  0
  8 23  1  0  0  0  0
  6 24  1  0  0  0  0
 24 25  1  0  0  0  0
  2 26  1  0  0  0  0
  1 27  1  0  0  0  0
  1 28  1  0  0  0  0
  1 29  1  0  0  0  0
  3 30  1  0  0  0  0
  4 31  1  0  0  0  0
  4 32  1  0  0  0  0
  7 33  1  0  0  0  0
 11 34  1  0  0  0  0
 14 35  1  0  0  0  0
 15 36  1  0  0  0  0
 17 37  1  0  0  0  0
 18 38  1  0  0  0  0
 20 39  1  0  0  0  0
 21 40  1  0  0  0  0
 22 41  1  0  0  0  0
 23 42  1  0  0  0  0
 25 43  1  0  0  0  0
 25 44  1  0  0  0  0
 25 45  1  0  0  0  0
 26 46  1  0  0  0  0
 26 47  1  0  0  0  0
 26 48  1  0  0  0  0
M  END
$$$$
