C28H32O15
APtclcactv06281817453D 0   0.00000     0.00000
 
 75 79  0  0  0  0  0  0  0  0999 V2000
    6.2235    0.7808   -2.4193 C   0  0  0  0  0  0  0  0  0  0  0  0
    6.6933    1.3099   -1.0627 C   0  0  0  0  0  0  0  0  0  0  0  0
    6.6964    2.8407   -1.0850 C   0  0  0  0  0  0  0  0  0  0  0  0
    5.2671    3.3432   -1.3102 C   0  0  0  0  0  0  0  0  0  0  0  0
    4.3604    2.7797   -0.2117 C   0  0  0  0  0  0  0  0  0  0  0  0
    4.4475    1.2513   -0.2231 C   0  0  0  0  0  0  0  0  0  0  0  0
    5.8072    0.8515   -0.0396 O   0  0  0  0  0  0  0  0  0  0  0  0
    3.6477    0.7204    0.8354 O   0  0  0  0  0  0  0  0  0  0  0  0
    3.5687   -0.7064    0.8449 C   0  0  0  0  0  0  0  0  0  0  0  0
    3.3877   -1.1995    2.2838 C   0  0  0  0  0  0  0  0  0  0  0  0
    3.2263   -2.7227    2.2733 C   0  0  0  0  0  0  0  0  0  0  0  0
    2.0424   -3.0965    1.3777 C   0  0  0  0  0  0  0  0  0  0  0  0
    2.2604   -2.5816    0.0626 O   0  0  0  0  0  0  0  0  0  0  0  0
    2.3715   -1.1581    0.0044 C   0  0  0  0  0  0  0  0  0  0  0  0
    1.1774   -0.5654    0.5189 O   0  0  0  0  0  0  0  0  0  0  0  0
    0.0324   -0.7819   -0.1775 C   0  0  0  0  0  0  0  0  0  0  0  0
    0.0655   -1.5522   -1.3346 C   0  0  0  0  0  0  0  0  0  0  0  0
   -1.0950   -1.7794   -2.0514 C   0  0  0  0  0  0  0  0  0  0  0  0
   -2.3016   -1.2282   -1.6030 C   0  0  0  0  0  0  0  0  0  0  0  0
   -2.3323   -0.4498   -0.4328 C   0  0  0  0  0  0  0  0  0  0  0  0
   -1.1599   -0.2375    0.2750 C   0  0  0  0  0  0  0  0  0  0  0  0
   -3.5002    0.0783   -0.0095 O   0  0  0  0  0  0  0  0  0  0  0  0
   -4.6538   -0.1111   -0.6696 C   0  0  0  0  0  0  0  0  0  0  0  0
   -4.7308   -0.8473   -1.8107 C   0  0  0  0  0  0  0  0  0  0  0  0
   -3.5605   -1.4446   -2.3360 C   0  0  0  0  0  0  0  0  0  0  0  0
   -3.5928   -2.1115   -3.3576 O   0  0  0  0  0  0  0  0  0  0  0  0
   -5.8850    0.5023   -0.1368 C   0  0  0  0  0  0  0  0  0  0  0  0
   -5.8380    1.2640    1.0341 C   0  0  0  0  0  0  0  0  0  0  0  0
   -6.9939    1.8367    1.5287 C   0  0  0  0  0  0  0  0  0  0  0  0
   -8.2034    1.6539    0.8604 C   0  0  0  0  0  0  0  0  0  0  0  0
   -8.2502    0.8974   -0.3025 C   0  0  0  0  0  0  0  0  0  0  0  0
   -7.1001    0.3279   -0.8047 C   0  0  0  0  0  0  0  0  0  0  0  0
   -9.3392    2.2170    1.3487 O   0  0  0  0  0  0  0  0  0  0  0  0
  -10.5437    1.9895    0.6142 C   0  0  0  0  0  0  0  0  0  0  0  0
   -6.9517    2.5785    2.6677 O   0  0  0  0  0  0  0  0  0  0  0  0
   -1.0647   -2.5306   -3.1813 O   0  0  0  0  0  0  0  0  0  0  0  0
    1.9116   -4.6196    1.3141 C   0  0  0  0  0  0  0  0  0  0  0  0
    0.7392   -4.9666    0.5745 O   0  0  0  0  0  0  0  0  0  0  0  0
    4.4183   -3.3257    1.7656 O   0  0  0  0  0  0  0  0  0  0  0  0
    4.5352   -0.8456    3.0584 O   0  0  0  0  0  0  0  0  0  0  0  0
    4.7876    3.2728    1.0597 O   0  0  0  0  0  0  0  0  0  0  0  0
    5.2488    4.7712   -1.2593 O   0  0  0  0  0  0  0  0  0  0  0  0
    7.1855    3.3354    0.1632 O   0  0  0  0  0  0  0  0  0  0  0  0
    6.8989    1.1314   -3.1997 H   0  0  0  0  0  0  0  0  0  0  0  0
    6.2213   -0.3091   -2.4033 H   0  0  0  0  0  0  0  0  0  0  0  0
    5.2155    1.1432   -2.6213 H   0  0  0  0  0  0  0  0  0  0  0  0
    7.7011    0.9472   -0.8603 H   0  0  0  0  0  0  0  0  0  0  0  0
    7.3376    3.1919   -1.8935 H   0  0  0  0  0  0  0  0  0  0  0  0
    4.9117    3.0072   -2.2843 H   0  0  0  0  0  0  0  0  0  0  0  0
    3.3310    3.0872   -0.3956 H   0  0  0  0  0  0  0  0  0  0  0  0
    4.0834    0.8736   -1.1786 H   0  0  0  0  0  0  0  0  0  0  0  0
    4.4854   -1.1247    0.4291 H   0  0  0  0  0  0  0  0  0  0  0  0
    2.4984   -0.7416    2.7169 H   0  0  0  0  0  0  0  0  0  0  0  0
    3.0417   -3.0764    3.2877 H   0  0  0  0  0  0  0  0  0  0  0  0
    1.1272   -2.6698    1.7881 H   0  0  0  0  0  0  0  0  0  0  0  0
    2.5155   -0.8467   -1.0302 H   0  0  0  0  0  0  0  0  0  0  0  0
    1.0000   -1.9737   -1.6745 H   0  0  0  0  0  0  0  0  0  0  0  0
   -1.1734    0.3591    1.1752 H   0  0  0  0  0  0  0  0  0  0  0  0
   -5.6788   -0.9762   -2.3117 H   0  0  0  0  0  0  0  0  0  0  0  0
   -4.9003    1.4043    1.5513 H   0  0  0  0  0  0  0  0  0  0  0  0
   -9.1895    0.7579   -0.8170 H   0  0  0  0  0  0  0  0  0  0  0  0
   -7.1393   -0.2601   -1.7097 H   0  0  0  0  0  0  0  0  0  0  0  0
  -11.3729    2.4932    1.1111 H   0  0  0  0  0  0  0  0  0  0  0  0
  -10.4328    2.3827   -0.3963 H   0  0  0  0  0  0  0  0  0  0  0  0
  -10.7441    0.9191    0.5676 H   0  0  0  0  0  0  0  0  0  0  0  0
   -6.7846    3.5192    2.5186 H   0  0  0  0  0  0  0  0  0  0  0  0
   -1.2095   -3.4747   -3.0299 H   0  0  0  0  0  0  0  0  0  0  0  0
    2.7891   -5.0394    0.8221 H   0  0  0  0  0  0  0  0  0  0  0  0
    1.8354   -5.0203    2.3249 H   0  0  0  0  0  0  0  0  0  0  0  0
    0.5927   -5.9190    0.4936 H   0  0  0  0  0  0  0  0  0  0  0  0
    4.3864   -4.2915    1.7308 H   0  0  0  0  0  0  0  0  0  0  0  0
    4.4884   -1.1276    3.9821 H   0  0  0  0  0  0  0  0  0  0  0  0
    4.2568    2.9556    1.8031 H   0  0  0  0  0  0  0  0  0  0  0  0
    4.3731    5.1584   -1.3943 H   0  0  0  0  0  0  0  0  0  0  0  0
    8.0857    3.0517    0.3732 H   0  0  0  0  0  0  0  0  0  0  0  0
  1  2  1  0  0  0  0
  2  3  1  0  0  0  0
  3  4  1  0  0  0  0
  4  5  1  0  0  0  0
  5  6  1  0  0  0  0
  6  7  1  0  0  0  0
  2  7  1  0  0  0  0
  6  8  1  0  0  0  0
  8  9  1  0  0  0  0
  9 10  1  0  0  0  0
 10 11  1  0  0  0  0
 11 12  1  0  0  0  0
 12 13  1  0  0  0  0
 13 14  1  0  0  0  0
  9 14  1  0  0  0  0
 14 15  1  0  0  0  0
 15 16  1  0  0  0  0
 16 17  2  0  0  0  0
 17 18  1  0  0  0  0
 18 19  2  0  0  0  0
 19 20  1  0  0  0  0
 20 21  2  0  0  0  0
 16 21  1  0  0  0  0
 20 22  1  0  0  0  0
 22 23  1  0  0  0  0
 23 24  2  0  0  0  0
 24 25  1  0  0  0  0
 19 25  1  0  0  0  0
 25 26  2  0  0  0  0
 23 27  1  0  0  0  0
 27 28  2  0  0  0  0
 28 29  1  0  0  0  0
 29 30  2  0  0  0  0
 30 31  1  0  0  0  0
 31 32  2  0  0  0  0
 27 32  1  0  0  0  0
 30 33  1  0  0  0  0
 33 34  1  0  0  0  0
 29 35  1  0  0  0  0
 18 36  1  0  0  0  0
 12 37  1  0  0  0  0
 37 38  1  0  0  0  0
 11 39  1  0  0  0  0
 10 40  1  0  0  0  0
  5 41  1  0  0  0  0
  4 42  1  0  0  0  0
  3 43  1  0  0  0  0
  1 44  1  0  0  0  0
  1 45  1  0  0  0  0
  1 46  1  0  0  0  0
  2 47  1  0  0  0  0
  3 48  1  0  0  0  0
  4 49  1  0  0  0  0
  5 50  1  0  0  0  0
  6 51  1  0  0  0  0
  9 52  1  0  0  0  0
 10 53  1  0  0  0  0
 11 54  1  0  0  0  0
 12 55  1  0  0  0  0
 14 56  1  0  0  0  0
 17 57  1  0  0  0  0
 21 58  1  0  0  0  0
 24 59  1  0  0  0  0
 28 60  1  0  0  0  0
 31 61  1  0  0  0  0
 32 62  1  0  0  0  0
 34 63  1  0  0  0  0
 34 64  1  0  0  0  0
 34 65  1  0  0  0  0
 35 66  1  0  0  0  0
 36 67  1  0  0  0  0
 37 68  1  0  0  0  0
 37 69  1  0  0  0  0
 38 70  1  0  0  0  0
 39 71  1  0  0  0  0
 40 72  1  0  0  0  0
 41 73  1  0  0  0  0
 42 74  1  0  0  0  0
 43 75  1  0  0  0  0
M  END
$$$$
