C20H30O10
APtclcactv06281817313D 0   0.00000     0.00000
 
 60 62  0  0  0  0  0  0  0  0999 V2000
    5.1908   -1.9337   -0.7493 C   0  0  0  0  0  0  0  0  0  0  0  0
    4.7256   -1.2584    0.5424 C   0  0  0  0  0  0  0  0  0  0  0  0
    5.2261    0.1881    0.5712 C   0  0  0  0  0  0  0  0  0  0  0  0
    4.6111    0.9564   -0.6026 C   0  0  0  0  0  0  0  0  0  0  0  0
    3.0846    0.8676   -0.5129 C   0  0  0  0  0  0  0  0  0  0  0  0
    2.6667   -0.6051   -0.4998 C   0  0  0  0  0  0  0  0  0  0  0  0
    3.2976   -1.2682    0.5976 O   0  0  0  0  0  0  0  0  0  0  0  0
    1.2476   -0.6966   -0.3598 O   0  0  0  0  0  0  0  0  0  0  0  0
    0.7394   -2.0292   -0.4494 C   0  0  0  0  0  0  0  0  0  0  0  0
   -0.7817   -2.0070   -0.2864 C   0  0  0  0  0  0  0  0  0  0  0  0
   -1.3393   -3.4157   -0.5061 C   0  0  0  0  0  0  0  0  0  0  0  0
   -2.8545   -3.3973   -0.2821 C   0  0  0  0  0  0  0  0  0  0  0  0
   -3.1450   -2.8703    1.1265 C   0  0  0  0  0  0  0  0  0  0  0  0
   -2.5177   -1.4827    1.2831 C   0  0  0  0  0  0  0  0  0  0  0  0
   -1.1134   -1.5651    1.0315 O   0  0  0  0  0  0  0  0  0  0  0  0
   -3.1168   -0.5808    0.3506 O   0  0  0  0  0  0  0  0  0  0  0  0
   -2.6815    0.7732    0.4898 C   0  0  0  0  0  0  0  0  0  0  0  0
   -3.3838    1.6445   -0.5536 C   0  0  0  0  0  0  0  0  0  0  0  0
   -2.9247    3.0723   -0.4068 C   0  0  0  0  0  0  0  0  0  0  0  0
   -1.8234    3.5202   -1.1120 C   0  0  0  0  0  0  0  0  0  0  0  0
   -1.4022    4.8300   -0.9774 C   0  0  0  0  0  0  0  0  0  0  0  0
   -2.0828    5.6919   -0.1379 C   0  0  0  0  0  0  0  0  0  0  0  0
   -3.1847    5.2443    0.5666 C   0  0  0  0  0  0  0  0  0  0  0  0
   -3.6084    3.9358    0.4287 C   0  0  0  0  0  0  0  0  0  0  0  0
   -4.5579   -2.7803    1.3207 O   0  0  0  0  0  0  0  0  0  0  0  0
   -3.4703   -2.5434   -1.2484 O   0  0  0  0  0  0  0  0  0  0  0  0
   -1.0592   -3.8371   -1.8425 O   0  0  0  0  0  0  0  0  0  0  0  0
    2.6391    1.5010    0.6881 O   0  0  0  0  0  0  0  0  0  0  0  0
    5.0147    2.3259   -0.5414 O   0  0  0  0  0  0  0  0  0  0  0  0
    4.8374    0.8035    1.8009 O   0  0  0  0  0  0  0  0  0  0  0  0
    6.2800   -1.9253   -0.7918 H   0  0  0  0  0  0  0  0  0  0  0  0
    4.8344   -2.9636   -0.7697 H   0  0  0  0  0  0  0  0  0  0  0  0
    4.7896   -1.3933   -1.6067 H   0  0  0  0  0  0  0  0  0  0  0  0
    5.1264   -1.7989    1.3999 H   0  0  0  0  0  0  0  0  0  0  0  0
    6.3126    0.1993    0.4847 H   0  0  0  0  0  0  0  0  0  0  0  0
    4.9473    0.5175   -1.5419 H   0  0  0  0  0  0  0  0  0  0  0  0
    2.6395    1.3649   -1.3747 H   0  0  0  0  0  0  0  0  0  0  0  0
    2.9713   -1.0776   -1.4337 H   0  0  0  0  0  0  0  0  0  0  0  0
    0.9945   -2.4508   -1.4216 H   0  0  0  0  0  0  0  0  0  0  0  0
    1.1804   -2.6399    0.3385 H   0  0  0  0  0  0  0  0  0  0  0  0
   -1.2158   -1.3260   -1.0183 H   0  0  0  0  0  0  0  0  0  0  0  0
   -0.8753   -4.1053    0.1991 H   0  0  0  0  0  0  0  0  0  0  0  0
   -3.2502   -4.4081   -0.3821 H   0  0  0  0  0  0  0  0  0  0  0  0
   -2.7174   -3.5488    1.8646 H   0  0  0  0  0  0  0  0  0  0  0  0
   -2.6845   -1.1207    2.2977 H   0  0  0  0  0  0  0  0  0  0  0  0
   -2.9276    1.1331    1.4888 H   0  0  0  0  0  0  0  0  0  0  0  0
   -1.6031    0.8253    0.3402 H   0  0  0  0  0  0  0  0  0  0  0  0
   -3.1377    1.2846   -1.5526 H   0  0  0  0  0  0  0  0  0  0  0  0
   -4.4622    1.5924   -0.4040 H   0  0  0  0  0  0  0  0  0  0  0  0
   -1.2917    2.8468   -1.7679 H   0  0  0  0  0  0  0  0  0  0  0  0
   -0.5414    5.1797   -1.5278 H   0  0  0  0  0  0  0  0  0  0  0  0
   -1.7533    6.7150   -0.0321 H   0  0  0  0  0  0  0  0  0  0  0  0
   -3.7161    5.9177    1.2228 H   0  0  0  0  0  0  0  0  0  0  0  0
   -4.4693    3.5860    0.9791 H   0  0  0  0  0  0  0  0  0  0  0  0
   -4.8148   -2.4528    2.1935 H   0  0  0  0  0  0  0  0  0  0  0  0
   -4.4319   -2.4845   -1.1653 H   0  0  0  0  0  0  0  0  0  0  0  0
   -1.3849   -4.7232   -2.0519 H   0  0  0  0  0  0  0  0  0  0  0  0
    1.6800    1.4822    0.8103 H   0  0  0  0  0  0  0  0  0  0  0  0
    4.6609    2.8725   -1.2563 H   0  0  0  0  0  0  0  0  0  0  0  0
    5.1880    0.3650    2.5882 H   0  0  0  0  0  0  0  0  0  0  0  0
  1  2  1  0  0  0  0
  2  3  1  0  0  0  0
  3  4  1  0  0  0  0
  4  5  1  0  0  0  0
  5  6  1  0  0  0  0
  6  7  1  0  0  0  0
  2  7  1  0  0  0  0
  6  8  1  0  0  0  0
  8  9  1  0  0  0  0
  9 10  1  0  0  0  0
 10 11  1  0  0  0  0
 11 12  1  0  0  0  0
 12 13  1  0  0  0  0
 13 14  1  0  0  0  0
 14 15  1  0  0  0  0
 10 15  1  0  0  0  0
 14 16  1  0  0  0  0
 16 17  1  0  0  0  0
 17 18  1  0  0  0  0
 18 19  1  0  0  0  0
 19 20  2  0  0  0  0
 20 21  1  0  0  0  0
 21 22  2  0  0  0  0
 22 23  1  0  0  0  0
 23 24  2  0  0  0  0
 19 24  1  0  0  0  0
 13 25  1  0  0  0  0
 12 26  1  0  0  0  0
 11 27  1  0  0  0  0
  5 28  1  0  0  0  0
  4 29  1  0  0  0  0
  3 30  1  0  0  0  0
  1 31  1  0  0  0  0
  1 32  1  0  0  0  0
  1 33  1  0  0  0  0
  2 34  1  0  0  0  0
  3 35  1  0  0  0  0
  4 36  1  0  0  0  0
  5 37  1  0  0  0  0
  6 38  1  0  0  0  0
  9 39  1  0  0  0  0
  9 40  1  0  0  0  0
 10 41  1  0  0  0  0
 11 42  1  0  0  0  0
 12 43  1  0  0  0  0
 13 44  1  0  0  0  0
 14 45  1  0  0  0  0
 17 46  1  0  0  0  0
 17 47  1  0  0  0  0
 18 48  1  0  0  0  0
 18 49  1  0  0  0  0
 20 50  1  0  0  0  0
 21 51  1  0  0  0  0
 22 52  1  0  0  0  0
 23 53  1  0  0  0  0
 24 54  1  0  0  0  0
 25 55  1  0  0  0  0
 26 56  1  0  0  0  0
 27 57  1  0  0  0  0
 28 58  1  0  0  0  0
 29 59  1  0  0  0  0
 30 60  1  0  0  0  0
M  END
$$$$
