C22H22O11
APtclcactv06281817453D 0   0.00000     0.00000
 
 55 58  0  0  0  0  0  0  0  0999 V2000
    5.7168    1.8387   -0.0557 C   0  0  0  0  0  0  0  0  0  0  0  0
    5.5713    0.6195   -0.9686 C   0  0  0  0  0  0  0  0  0  0  0  0
    6.6609   -0.4023   -0.6332 C   0  0  0  0  0  0  0  0  0  0  0  0
    6.4765   -0.8783    0.8110 C   0  0  0  0  0  0  0  0  0  0  0  0
    5.0675   -1.4576    0.9701 C   0  0  0  0  0  0  0  0  0  0  0  0
    4.0394   -0.3951    0.5728 C   0  0  0  0  0  0  0  0  0  0  0  0
    4.2864    0.0262   -0.7701 O   0  0  0  0  0  0  0  0  0  0  0  0
    2.7243   -0.9464    0.6651 O   0  0  0  0  0  0  0  0  0  0  0  0
    1.6848   -0.1011    0.4461 C   0  0  0  0  0  0  0  0  0  0  0  0
    1.9343    1.2341    0.1482 C   0  0  0  0  0  0  0  0  0  0  0  0
    0.8834    2.1038   -0.0771 C   0  0  0  0  0  0  0  0  0  0  0  0
   -0.4326    1.6295   -0.0029 C   0  0  0  0  0  0  0  0  0  0  0  0
   -0.6820    0.2788    0.2985 C   0  0  0  0  0  0  0  0  0  0  0  0
    0.3854   -0.5787    0.5160 C   0  0  0  0  0  0  0  0  0  0  0  0
   -1.9528   -0.1699    0.3689 O   0  0  0  0  0  0  0  0  0  0  0  0
   -3.0108    0.6323    0.1598 C   0  0  0  0  0  0  0  0  0  0  0  0
   -2.8773    1.9551   -0.1386 C   0  0  0  0  0  0  0  0  0  0  0  0
   -1.5798    2.5214   -0.2353 C   0  0  0  0  0  0  0  0  0  0  0  0
   -1.4215    3.7024   -0.5004 O   0  0  0  0  0  0  0  0  0  0  0  0
   -3.9795    2.7269   -0.3423 O   0  0  0  0  0  0  0  0  0  0  0  0
   -4.3661    0.0595    0.2565 C   0  0  0  0  0  0  0  0  0  0  0  0
   -4.6668   -1.1419   -0.3915 C   0  0  0  0  0  0  0  0  0  0  0  0
   -5.9383   -1.6744   -0.2972 C   0  0  0  0  0  0  0  0  0  0  0  0
   -6.9176   -1.0137    0.4422 C   0  0  0  0  0  0  0  0  0  0  0  0
   -6.6195    0.1796    1.0853 C   0  0  0  0  0  0  0  0  0  0  0  0
   -5.3516    0.7137    1.0010 C   0  0  0  0  0  0  0  0  0  0  0  0
   -8.1676   -1.5387    0.5334 O   0  0  0  0  0  0  0  0  0  0  0  0
   -6.2343   -2.8432   -0.9263 O   0  0  0  0  0  0  0  0  0  0  0  0
   -5.1827   -3.4659   -1.6668 C   0  0  0  0  0  0  0  0  0  0  0  0
    1.1249    3.4073   -0.3676 O   0  0  0  0  0  0  0  0  0  0  0  0
    4.9231   -2.6011    0.1254 O   0  0  0  0  0  0  0  0  0  0  0  0
    7.4444   -1.8864    1.1093 O   0  0  0  0  0  0  0  0  0  0  0  0
    6.5587   -1.5179   -1.5204 O   0  0  0  0  0  0  0  0  0  0  0  0
    6.6972    2.2905   -0.2065 H   0  0  0  0  0  0  0  0  0  0  0  0
    4.9409    2.5661   -0.2946 H   0  0  0  0  0  0  0  0  0  0  0  0
    5.6158    1.5281    0.9842 H   0  0  0  0  0  0  0  0  0  0  0  0
    5.6718    0.9300   -2.0086 H   0  0  0  0  0  0  0  0  0  0  0  0
    7.6412    0.0618   -0.7415 H   0  0  0  0  0  0  0  0  0  0  0  0
    6.6035   -0.0363    1.4915 H   0  0  0  0  0  0  0  0  0  0  0  0
    4.9083   -1.7483    2.0085 H   0  0  0  0  0  0  0  0  0  0  0  0
    4.1230    0.4602    1.2433 H   0  0  0  0  0  0  0  0  0  0  0  0
    2.9516    1.5928    0.0930 H   0  0  0  0  0  0  0  0  0  0  0  0
    0.2041   -1.6178    0.7481 H   0  0  0  0  0  0  0  0  0  0  0  0
   -3.7804    3.6505   -0.5481 H   0  0  0  0  0  0  0  0  0  0  0  0
   -3.9072   -1.6526   -0.9647 H   0  0  0  0  0  0  0  0  0  0  0  0
   -7.3816    0.6887    1.6566 H   0  0  0  0  0  0  0  0  0  0  0  0
   -5.1223    1.6422    1.5027 H   0  0  0  0  0  0  0  0  0  0  0  0
   -8.2880   -2.1401    1.2810 H   0  0  0  0  0  0  0  0  0  0  0  0
   -4.8405   -2.7899   -2.4504 H   0  0  0  0  0  0  0  0  0  0  0  0
   -4.3536   -3.6954   -0.9974 H   0  0  0  0  0  0  0  0  0  0  0  0
   -5.5517   -4.3873   -2.1173 H   0  0  0  0  0  0  0  0  0  0  0  0
    1.2173    3.5890   -1.3128 H   0  0  0  0  0  0  0  0  0  0  0  0
    4.0529   -3.0197    0.1754 H   0  0  0  0  0  0  0  0  0  0  0  0
    7.3856   -2.2339    2.0098 H   0  0  0  0  0  0  0  0  0  0  0  0
    6.6610   -1.2884   -2.4542 H   0  0  0  0  0  0  0  0  0  0  0  0
  1  2  1  0  0  0  0
  2  3  1  0  0  0  0
  3  4  1  0  0  0  0
  4  5  1  0  0  0  0
  5  6  1  0  0  0  0
  6  7  1  0  0  0  0
  2  7  1  0  0  0  0
  6  8  1  0  0  0  0
  8  9  1  0  0  0  0
  9 10  2  0  0  0  0
 10 11  1  0  0  0  0
 11 12  2  0  0  0  0
 12 13  1  0  0  0  0
 13 14  2  0  0  0  0
  9 14  1  0  0  0  0
 13 15  1  0  0  0  0
 15 16  1  0  0  0  0
 16 17  2  0  0  0  0
 17 18  1  0  0  0  0
 12 18  1  0  0  0  0
 18 19  2  0  0  0  0
 17 20  1  0  0  0  0
 16 21  1  0  0  0  0
 21 22  2  0  0  0  0
 22 23  1  0  0  0  0
 23 24  2  0  0  0  0
 24 25  1  0  0  0  0
 25 26  2  0  0  0  0
 21 26  1  0  0  0  0
 24 27  1  0  0  0  0
 23 28  1  0  0  0  0
 28 29  1  0  0  0  0
 11 30  1  0  0  0  0
  5 31  1  0  0  0  0
  4 32  1  0  0  0  0
  3 33  1  0  0  0  0
  1 34  1  0  0  0  0
  1 35  1  0  0  0  0
  1 36  1  0  0  0  0
  2 37  1  0  0  0  0
  3 38  1  0  0  0  0
  4 39  1  0  0  0  0
  5 40  1  0  0  0  0
  6 41  1  0  0  0  0
 10 42  1  0  0  0  0
 14 43  1  0  0  0  0
 20 44  1  0  0  0  0
 22 45  1  0  0  0  0
 25 46  1  0  0  0  0
 26 47  1  0  0  0  0
 27 48  1  0  0  0  0
 29 49  1  0  0  0  0
 29 50  1  0  0  0  0
 29 51  1  0  0  0  0
 30 52  1  0  0  0  0
 31 53  1  0  0  0  0
 32 54  1  0  0  0  0
 33 55  1  0  0  0  0
M  END
$$$$
