C10H12O3
APtclcactv06211806063D 0   0.00000     0.00000
 
 25 25  0  0  0  0  0  0  0  0999 V2000
    3.6164    1.4068   -0.0010 C   0  0  0  0  0  0  0  0  0  0  0  0
    2.7674    0.1617   -0.0007 C   0  0  0  0  0  0  0  0  0  0  0  0
    3.2936   -0.9312   -0.0007 O   0  0  0  0  0  0  0  0  0  0  0  0
    1.3029    0.2716   -0.0004 C   0  0  0  0  0  0  0  0  0  0  0  0
    0.5120   -0.8841   -0.0001 C   0  0  0  0  0  0  0  0  0  0  0  0
   -0.8639   -0.7743    0.0002 C   0  0  0  0  0  0  0  0  0  0  0  0
   -1.4635    0.4851   -0.0003 C   0  0  0  0  0  0  0  0  0  0  0  0
   -0.6797    1.6321   -0.0011 C   0  0  0  0  0  0  0  0  0  0  0  0
    0.6934    1.5320    0.0054 C   0  0  0  0  0  0  0  0  0  0  0  0
   -2.8169    0.5903   -0.0005 O   0  0  0  0  0  0  0  0  0  0  0  0
   -3.3650    1.9100   -0.0010 C   0  0  0  0  0  0  0  0  0  0  0  0
   -1.6352   -1.8944    0.0004 O   0  0  0  0  0  0  0  0  0  0  0  0
   -0.9545   -3.1508    0.0004 C   0  0  0  0  0  0  0  0  0  0  0  0
    4.6702    1.1280   -0.0012 H   0  0  0  0  0  0  0  0  0  0  0  0
    3.3964    1.9964   -0.8910 H   0  0  0  0  0  0  0  0  0  0  0  0
    3.3968    1.9966    0.8890 H   0  0  0  0  0  0  0  0  0  0  0  0
    0.9774   -1.8587   -0.0004 H   0  0  0  0  0  0  0  0  0  0  0  0
   -1.1488    2.6049   -0.0018 H   0  0  0  0  0  0  0  0  0  0  0  0
    1.3002    2.4255    0.0052 H   0  0  0  0  0  0  0  0  0  0  0  0
   -3.0300    2.4429    0.8888 H   0  0  0  0  0  0  0  0  0  0  0  0
   -3.0298    2.4424   -0.8911 H   0  0  0  0  0  0  0  0  0  0  0  0
   -4.4534    1.8513   -0.0011 H   0  0  0  0  0  0  0  0  0  0  0  0
   -1.6850   -3.9598    0.0007 H   0  0  0  0  0  0  0  0  0  0  0  0
   -0.3298   -3.2256   -0.8897 H   0  0  0  0  0  0  0  0  0  0  0  0
   -0.3295   -3.2254    0.8903 H   0  0  0  0  0  0  0  0  0  0  0  0
  1  2  1  0  0  0  0
  2  3  2  0  0  0  0
  2  4  1  0  0  0  0
  4  5  2  0  0  0  0
  5  6  1  0  0  0  0
  6  7  2  0  0  0  0
  7  8  1  0  0  0  0
  8  9  2  0  0  0  0
  4  9  1  0  0  0  0
  7 10  1  0  0  0  0
 10 11  1  0  0  0  0
  6 12  1  0  0  0  0
 12 13  1  0  0  0  0
  1 14  1  0  0  0  0
  1 15  1  0  0  0  0
  1 16  1  0  0  0  0
  5 17  1  0  0  0  0
  8 18  1  0  0  0  0
  9 19  1  0  0  0  0
 11 20  1  0  0  0  0
 11 21  1  0  0  0  0
 11 22  1  0  0  0  0
 13 23  1  0  0  0  0
 13 24  1  0  0  0  0
 13 25  1  0  0  0  0
M  END
$$$$
