C22H24O9
APtclcactv06281817453D 0   0.00000     0.00000
 
 55 57  0  0  0  0  0  0  0  0999 V2000
   -1.9912    3.6690    0.2890 C   0  0  0  0  0  0  0  0  0  0  0  0
   -3.2751    3.0498    0.1872 O   0  0  0  0  0  0  0  0  0  0  0  0
   -3.3026    1.6907    0.1302 C   0  0  0  0  0  0  0  0  0  0  0  0
   -4.5233    1.0238    0.0302 C   0  0  0  0  0  0  0  0  0  0  0  0
   -4.5602   -0.3644   -0.0286 C   0  0  0  0  0  0  0  0  0  0  0  0
   -3.3803   -1.0930    0.0125 C   0  0  0  0  0  0  0  0  0  0  0  0
   -2.1498   -0.4234    0.1132 C   0  0  0  0  0  0  0  0  0  0  0  0
   -2.1225    0.9770    0.1658 C   0  0  0  0  0  0  0  0  0  0  0  0
   -0.8980   -1.1865    0.1577 C   0  0  0  0  0  0  0  0  0  0  0  0
    0.2859   -0.5388    0.2547 C   0  0  0  0  0  0  0  0  0  0  0  0
    1.4963   -1.2765    0.2978 C   0  0  0  0  0  0  0  0  0  0  0  0
    1.4666   -2.4942    0.3383 O   0  0  0  0  0  0  0  0  0  0  0  0
    2.7885   -0.5715    0.2935 C   0  0  0  0  0  0  0  0  0  0  0  0
    3.4375   -0.2804    1.5036 C   0  0  0  0  0  0  0  0  0  0  0  0
    4.6508    0.3822    1.4926 C   0  0  0  0  0  0  0  0  0  0  0  0
    5.2314    0.7621    0.2893 C   0  0  0  0  0  0  0  0  0  0  0  0
    4.5945    0.4772   -0.9170 C   0  0  0  0  0  0  0  0  0  0  0  0
    3.3811   -0.1917   -0.9210 C   0  0  0  0  0  0  0  0  0  0  0  0
    2.7608   -0.4689   -2.0967 O   0  0  0  0  0  0  0  0  0  0  0  0
    3.0786   -1.7150   -2.7198 C   0  0  0  0  0  0  0  0  0  0  0  0
    5.3667    0.9521   -1.9407 O   0  0  0  0  0  0  0  0  0  0  0  0
    6.6713    1.1637   -1.3696 C   0  0  0  0  0  0  0  0  0  0  0  0
    6.3991    1.4144    0.0216 O   0  0  0  0  0  0  0  0  0  0  0  0
    2.8745   -0.6485    2.6828 O   0  0  0  0  0  0  0  0  0  0  0  0
    3.5912   -0.3196    3.8745 C   0  0  0  0  0  0  0  0  0  0  0  0
   -3.4151   -2.4499   -0.0439 O   0  0  0  0  0  0  0  0  0  0  0  0
   -3.4286   -3.0450   -1.3430 C   0  0  0  0  0  0  0  0  0  0  0  0
   -5.7547   -1.0094   -0.1261 O   0  0  0  0  0  0  0  0  0  0  0  0
   -6.3992   -1.3697    1.0973 C   0  0  0  0  0  0  0  0  0  0  0  0
   -5.6814    1.7339   -0.0095 O   0  0  0  0  0  0  0  0  0  0  0  0
   -6.1613    2.1209   -1.2987 C   0  0  0  0  0  0  0  0  0  0  0  0
   -1.4942    3.3277    1.1970 H   0  0  0  0  0  0  0  0  0  0  0  0
   -1.3883    3.4000   -0.5783 H   0  0  0  0  0  0  0  0  0  0  0  0
   -2.1119    4.7517    0.3259 H   0  0  0  0  0  0  0  0  0  0  0  0
   -1.1788    1.4966    0.2428 H   0  0  0  0  0  0  0  0  0  0  0  0
   -0.9212   -2.2653    0.1131 H   0  0  0  0  0  0  0  0  0  0  0  0
    0.3091    0.5400    0.2994 H   0  0  0  0  0  0  0  0  0  0  0  0
    5.1495    0.6057    2.4241 H   0  0  0  0  0  0  0  0  0  0  0  0
    2.5161   -1.8107   -3.6486 H   0  0  0  0  0  0  0  0  0  0  0  0
    4.1463   -1.7511   -2.9363 H   0  0  0  0  0  0  0  0  0  0  0  0
    2.8158   -2.5337   -2.0499 H   0  0  0  0  0  0  0  0  0  0  0  0
    7.2889    0.2729   -1.4845 H   0  0  0  0  0  0  0  0  0  0  0  0
    7.1542    2.0273   -1.8270 H   0  0  0  0  0  0  0  0  0  0  0  0
    3.0324   -0.6692    4.7427 H   0  0  0  0  0  0  0  0  0  0  0  0
    4.5694   -0.7999    3.8545 H   0  0  0  0  0  0  0  0  0  0  0  0
    3.7183    0.7612    3.9355 H   0  0  0  0  0  0  0  0  0  0  0  0
   -2.4993   -2.8077   -1.8610 H   0  0  0  0  0  0  0  0  0  0  0  0
   -3.5246   -4.1265   -1.2463 H   0  0  0  0  0  0  0  0  0  0  0  0
   -4.2720   -2.6549   -1.9127 H   0  0  0  0  0  0  0  0  0  0  0  0
   -5.7217   -1.9739    1.7007 H   0  0  0  0  0  0  0  0  0  0  0  0
   -6.6675   -0.4670    1.6462 H   0  0  0  0  0  0  0  0  0  0  0  0
   -7.3000   -1.9430    0.8783 H   0  0  0  0  0  0  0  0  0  0  0  0
   -5.3890    2.6876   -1.8188 H   0  0  0  0  0  0  0  0  0  0  0  0
   -6.4096    1.2305   -1.8762 H   0  0  0  0  0  0  0  0  0  0  0  0
   -7.0512    2.7398   -1.1844 H   0  0  0  0  0  0  0  0  0  0  0  0
  1  2  1  0  0  0  0
  2  3  1  0  0  0  0
  3  4  2  0  0  0  0
  4  5  1  0  0  0  0
  5  6  2  0  0  0  0
  6  7  1  0  0  0  0
  7  8  2  0  0  0  0
  3  8  1  0  0  0  0
  7  9  1  0  0  0  0
  9 10  2  0  0  0  0
 10 11  1  0  0  0  0
 11 12  2  0  0  0  0
 11 13  1  0  0  0  0
 13 14  2  0  0  0  0
 14 15  1  0  0  0  0
 15 16  2  0  0  0  0
 16 17  1  0  0  0  0
 17 18  2  0  0  0  0
 13 18  1  0  0  0  0
 18 19  1  0  0  0  0
 19 20  1  0  0  0  0
 17 21  1  0  0  0  0
 21 22  1  0  0  0  0
 22 23  1  0  0  0  0
 16 23  1  0  0  0  0
 14 24  1  0  0  0  0
 24 25  1  0  0  0  0
  6 26  1  0  0  0  0
 26 27  1  0  0  0  0
  5 28  1  0  0  0  0
 28 29  1  0  0  0  0
  4 30  1  0  0  0  0
 30 31  1  0  0  0  0
  1 32  1  0  0  0  0
  1 33  1  0  0  0  0
  1 34  1  0  0  0  0
  8 35  1  0  0  0  0
  9 36  1  0  0  0  0
 10 37  1  0  0  0  0
 15 38  1  0  0  0  0
 20 39  1  0  0  0  0
 20 40  1  0  0  0  0
 20 41  1  0  0  0  0
 22 42  1  0  0  0  0
 22 43  1  0  0  0  0
 25 44  1  0  0  0  0
 25 45  1  0  0  0  0
 25 46  1  0  0  0  0
 27 47  1  0  0  0  0
 27 48  1  0  0  0  0
 27 49  1  0  0  0  0
 29 50  1  0  0  0  0
 29 51  1  0  0  0  0
 29 52  1  0  0  0  0
 31 53  1  0  0  0  0
 31 54  1  0  0  0  0
 31 55  1  0  0  0  0
M  END
$$$$
