C21H22O9
APtclcactv06281817453D 0   0.00000     0.00000
 
 52 54  0  0  0  0  0  0  0  0999 V2000
   -1.8750    3.6741    0.2650 C   0  0  0  0  0  0  0  0  0  0  0  0
   -3.1560    3.0535    0.1388 O   0  0  0  0  0  0  0  0  0  0  0  0
   -3.1840    1.6934    0.1173 C   0  0  0  0  0  0  0  0  0  0  0  0
   -4.4020    1.0250   -0.0038 C   0  0  0  0  0  0  0  0  0  0  0  0
   -4.4394   -0.3642   -0.0265 C   0  0  0  0  0  0  0  0  0  0  0  0
   -3.2627   -1.0924    0.0718 C   0  0  0  0  0  0  0  0  0  0  0  0
   -2.0350   -0.4215    0.1938 C   0  0  0  0  0  0  0  0  0  0  0  0
   -2.0069    0.9799    0.2097 C   0  0  0  0  0  0  0  0  0  0  0  0
   -0.7865   -1.1841    0.2987 C   0  0  0  0  0  0  0  0  0  0  0  0
    0.3948   -0.5351    0.4161 C   0  0  0  0  0  0  0  0  0  0  0  0
    1.6019   -1.2724    0.5176 C   0  0  0  0  0  0  0  0  0  0  0  0
    1.5689   -2.4886    0.5897 O   0  0  0  0  0  0  0  0  0  0  0  0
    2.8948   -0.5689    0.5357 C   0  0  0  0  0  0  0  0  0  0  0  0
    3.5037   -0.2430    1.7578 C   0  0  0  0  0  0  0  0  0  0  0  0
    4.7179    0.4179    1.7678 C   0  0  0  0  0  0  0  0  0  0  0  0
    5.3389    0.7620    0.5739 C   0  0  0  0  0  0  0  0  0  0  0  0
    4.7420    0.4424   -0.6441 C   0  0  0  0  0  0  0  0  0  0  0  0
    3.5282   -0.2253   -0.6689 C   0  0  0  0  0  0  0  0  0  0  0  0
    2.9469   -0.5364   -1.8561 O   0  0  0  0  0  0  0  0  0  0  0  0
    3.2830   -1.8004   -2.4316 C   0  0  0  0  0  0  0  0  0  0  0  0
    5.5487    0.8864   -1.6550 O   0  0  0  0  0  0  0  0  0  0  0  0
    6.8340    1.1137   -1.0471 C   0  0  0  0  0  0  0  0  0  0  0  0
    6.5161    1.4052    0.3263 O   0  0  0  0  0  0  0  0  0  0  0  0
    2.9011   -0.5760    2.9278 O   0  0  0  0  0  0  0  0  0  0  0  0
   -3.2980   -2.4503    0.0505 O   0  0  0  0  0  0  0  0  0  0  0  0
   -3.2710   -3.0801   -1.2319 C   0  0  0  0  0  0  0  0  0  0  0  0
   -5.6313   -1.0105   -0.1449 O   0  0  0  0  0  0  0  0  0  0  0  0
   -6.3152   -1.3373    1.0665 C   0  0  0  0  0  0  0  0  0  0  0  0
   -5.5571    1.7349   -0.0994 O   0  0  0  0  0  0  0  0  0  0  0  0
   -5.9949    2.0876   -1.4132 C   0  0  0  0  0  0  0  0  0  0  0  0
   -1.9950    4.7575    0.2690 H   0  0  0  0  0  0  0  0  0  0  0  0
   -1.4078    3.3568    1.1972 H   0  0  0  0  0  0  0  0  0  0  0  0
   -1.2452    3.3814   -0.5751 H   0  0  0  0  0  0  0  0  0  0  0  0
   -1.0653    1.5005    0.3029 H   0  0  0  0  0  0  0  0  0  0  0  0
   -0.8102   -2.2637    0.2822 H   0  0  0  0  0  0  0  0  0  0  0  0
    0.4185    0.5445    0.4326 H   0  0  0  0  0  0  0  0  0  0  0  0
    5.1857    0.6683    2.7085 H   0  0  0  0  0  0  0  0  0  0  0  0
    4.3573   -1.8438   -2.6112 H   0  0  0  0  0  0  0  0  0  0  0  0
    2.9966   -2.5989   -1.7471 H   0  0  0  0  0  0  0  0  0  0  0  0
    2.7516   -1.9228   -3.3753 H   0  0  0  0  0  0  0  0  0  0  0  0
    7.4534    0.2193   -1.1153 H   0  0  0  0  0  0  0  0  0  0  0  0
    7.3333    1.9630   -1.5133 H   0  0  0  0  0  0  0  0  0  0  0  0
    3.1486   -1.4485    3.2633 H   0  0  0  0  0  0  0  0  0  0  0  0
   -3.3720   -4.1584   -1.1094 H   0  0  0  0  0  0  0  0  0  0  0  0
   -4.0952   -2.7045   -1.8385 H   0  0  0  0  0  0  0  0  0  0  0  0
   -2.3254   -2.8575   -1.7262 H   0  0  0  0  0  0  0  0  0  0  0  0
   -6.5993   -0.4201    1.5822 H   0  0  0  0  0  0  0  0  0  0  0  0
   -7.2095   -1.9155    0.8342 H   0  0  0  0  0  0  0  0  0  0  0  0
   -5.6583   -1.9258    1.7071 H   0  0  0  0  0  0  0  0  0  0  0  0
   -5.2054    2.6395   -1.9234 H   0  0  0  0  0  0  0  0  0  0  0  0
   -6.2262    1.1822   -1.9744 H   0  0  0  0  0  0  0  0  0  0  0  0
   -6.8870    2.7101   -1.3440 H   0  0  0  0  0  0  0  0  0  0  0  0
  1  2  1  0  0  0  0
  2  3  1  0  0  0  0
  3  4  2  0  0  0  0
  4  5  1  0  0  0  0
  5  6  2  0  0  0  0
  6  7  1  0  0  0  0
  7  8  2  0  0  0  0
  3  8  1  0  0  0  0
  7  9  1  0  0  0  0
  9 10  2  0  0  0  0
 10 11  1  0  0  0  0
 11 12  2  0  0  0  0
 11 13  1  0  0  0  0
 13 14  2  0  0  0  0
 14 15  1  0  0  0  0
 15 16  2  0  0  0  0
 16 17  1  0  0  0  0
 17 18  2  0  0  0  0
 13 18  1  0  0  0  0
 18 19  1  0  0  0  0
 19 20  1  0  0  0  0
 17 21  1  0  0  0  0
 21 22  1  0  0  0  0
 22 23  1  0  0  0  0
 16 23  1  0  0  0  0
 14 24  1  0  0  0  0
  6 25  1  0  0  0  0
 25 26  1  0  0  0  0
  5 27  1  0  0  0  0
 27 28  1  0  0  0  0
  4 29  1  0  0  0  0
 29 30  1  0  0  0  0
  1 31  1  0  0  0  0
  1 32  1  0  0  0  0
  1 33  1  0  0  0  0
  8 34  1  0  0  0  0
  9 35  1  0  0  0  0
 10 36  1  0  0  0  0
 15 37  1  0  0  0  0
 20 38  1  0  0  0  0
 20 39  1  0  0  0  0
 20 40  1  0  0  0  0
 22 41  1  0  0  0  0
 22 42  1  0  0  0  0
 24 43  1  0  0  0  0
 26 44  1  0  0  0  0
 26 45  1  0  0  0  0
 26 46  1  0  0  0  0
 28 47  1  0  0  0  0
 28 48  1  0  0  0  0
 28 49  1  0  0  0  0
 30 50  1  0  0  0  0
 30 51  1  0  0  0  0
 30 52  1  0  0  0  0
M  END
$$$$
