C17H14O4
APtclcactv06281817453D 0   0.00000     0.00000
 
 35 37  0  0  0  0  0  0  0  0999 V2000
   -5.3016    1.8753   -0.1385 C   0  0  0  0  0  0  0  0  0  0  0  0
   -4.5778    0.6582    0.0537 O   0  0  0  0  0  0  0  0  0  0  0  0
   -3.2199    0.7340    0.0131 C   0  0  0  0  0  0  0  0  0  0  0  0
   -2.4561   -0.4118    0.1923 C   0  0  0  0  0  0  0  0  0  0  0  0
   -1.0617   -0.3211    0.1479 C   0  0  0  0  0  0  0  0  0  0  0  0
   -0.4414    0.9193   -0.0761 C   0  0  0  0  0  0  0  0  0  0  0  0
   -1.2241    2.0517   -0.2531 C   0  0  0  0  0  0  0  0  0  0  0  0
   -2.6006    1.9557   -0.2132 C   0  0  0  0  0  0  0  0  0  0  0  0
    0.9061    0.9973   -0.1164 O   0  0  0  0  0  0  0  0  0  0  0  0
    1.6920   -0.0773    0.0512 C   0  0  0  0  0  0  0  0  0  0  0  0
    1.1918   -1.3219    0.2735 C   0  0  0  0  0  0  0  0  0  0  0  0
   -0.2099   -1.5100    0.3332 C   0  0  0  0  0  0  0  0  0  0  0  0
   -0.6939   -2.6123    0.5313 O   0  0  0  0  0  0  0  0  0  0  0  0
    3.1570    0.0985   -0.0087 C   0  0  0  0  0  0  0  0  0  0  0  0
    3.7536    1.2180    0.5756 C   0  0  0  0  0  0  0  0  0  0  0  0
    5.1226    1.3757    0.5163 C   0  0  0  0  0  0  0  0  0  0  0  0
    5.9046    0.4279   -0.1201 C   0  0  0  0  0  0  0  0  0  0  0  0
    5.3201   -0.6834   -0.7015 C   0  0  0  0  0  0  0  0  0  0  0  0
    3.9528   -0.8567   -0.6448 C   0  0  0  0  0  0  0  0  0  0  0  0
   -3.0583   -1.6097    0.4092 O   0  0  0  0  0  0  0  0  0  0  0  0
   -3.3724   -2.3959   -0.7421 C   0  0  0  0  0  0  0  0  0  0  0  0
   -5.0605    2.2907   -1.1170 H   0  0  0  0  0  0  0  0  0  0  0  0
   -6.3714    1.6745   -0.0825 H   0  0  0  0  0  0  0  0  0  0  0  0
   -5.0247    2.5890    0.6374 H   0  0  0  0  0  0  0  0  0  0  0  0
   -0.7554    3.0093   -0.4259 H   0  0  0  0  0  0  0  0  0  0  0  0
   -3.2022    2.8418   -0.3519 H   0  0  0  0  0  0  0  0  0  0  0  0
    1.8591   -2.1611    0.4033 H   0  0  0  0  0  0  0  0  0  0  0  0
    3.1444    1.9586    1.0723 H   0  0  0  0  0  0  0  0  0  0  0  0
    5.5853    2.2410    0.9674 H   0  0  0  0  0  0  0  0  0  0  0  0
    6.9760    0.5563   -0.1635 H   0  0  0  0  0  0  0  0  0  0  0  0
    5.9363   -1.4191   -1.1970 H   0  0  0  0  0  0  0  0  0  0  0  0
    3.4979   -1.7246   -1.0989 H   0  0  0  0  0  0  0  0  0  0  0  0
   -3.8485   -3.3249   -0.4288 H   0  0  0  0  0  0  0  0  0  0  0  0
   -4.0516   -1.8393   -1.3878 H   0  0  0  0  0  0  0  0  0  0  0  0
   -2.4566   -2.6230   -1.2878 H   0  0  0  0  0  0  0  0  0  0  0  0
  1  2  1  0  0  0  0
  2  3  1  0  0  0  0
  3  4  2  0  0  0  0
  4  5  1  0  0  0  0
  5  6  2  0  0  0  0
  6  7  1  0  0  0  0
  7  8  2  0  0  0  0
  3  8  1  0  0  0  0
  6  9  1  0  0  0  0
  9 10  1  0  0  0  0
 10 11  2  0  0  0  0
 11 12  1  0  0  0  0
  5 12  1  0  0  0  0
 12 13  2  0  0  0  0
 10 14  1  0  0  0  0
 14 15  2  0  0  0  0
 15 16  1  0  0  0  0
 16 17  2  0  0  0  0
 17 18  1  0  0  0  0
 18 19  2  0  0  0  0
 14 19  1  0  0  0  0
  4 20  1  0  0  0  0
 20 21  1  0  0  0  0
  1 22  1  0  0  0  0
  1 23  1  0  0  0  0
  1 24  1  0  0  0  0
  7 25  1  0  0  0  0
  8 26  1  0  0  0  0
 11 27  1  0  0  0  0
 15 28  1  0  0  0  0
 16 29  1  0  0  0  0
 17 30  1  0  0  0  0
 18 31  1  0  0  0  0
 19 32  1  0  0  0  0
 21 33  1  0  0  0  0
 21 34  1  0  0  0  0
 21 35  1  0  0  0  0
M  END
$$$$
