C18H16O6
APtclcactv06281817453D 0   0.00000     0.00000
 
 40 42  0  0  0  0  0  0  0  0999 V2000
    7.2165   -0.0557   -0.6146 C   0  0  0  0  0  0  0  0  0  0  0  0
    6.3087   -0.9170    0.0755 O   0  0  0  0  0  0  0  0  0  0  0  0
    4.9989   -0.5601    0.0742 C   0  0  0  0  0  0  0  0  0  0  0  0
    4.0637   -1.3542    0.7271 C   0  0  0  0  0  0  0  0  0  0  0  0
    2.7339   -0.9958    0.7282 C   0  0  0  0  0  0  0  0  0  0  0  0
    2.3254    0.1684    0.0715 C   0  0  0  0  0  0  0  0  0  0  0  0
    3.2693    0.9641   -0.5839 C   0  0  0  0  0  0  0  0  0  0  0  0
    4.5979    0.6013   -0.5752 C   0  0  0  0  0  0  0  0  0  0  0  0
    0.9021    0.5559    0.0696 C   0  0  0  0  0  0  0  0  0  0  0  0
    0.5818    1.8704    0.2119 C   0  0  0  0  0  0  0  0  0  0  0  0
   -0.7781    2.2612    0.2126 C   0  0  0  0  0  0  0  0  0  0  0  0
   -1.1013    3.4314    0.3375 O   0  0  0  0  0  0  0  0  0  0  0  0
   -1.7883    1.2008    0.0560 C   0  0  0  0  0  0  0  0  0  0  0  0
   -1.3500   -0.1271   -0.0840 C   0  0  0  0  0  0  0  0  0  0  0  0
   -0.0274   -0.4012   -0.0778 O   0  0  0  0  0  0  0  0  0  0  0  0
   -2.2864   -1.1426   -0.2328 C   0  0  0  0  0  0  0  0  0  0  0  0
   -3.6419   -0.8401   -0.2422 C   0  0  0  0  0  0  0  0  0  0  0  0
   -4.0749    0.4737   -0.1038 C   0  0  0  0  0  0  0  0  0  0  0  0
   -3.1569    1.4965    0.0458 C   0  0  0  0  0  0  0  0  0  0  0  0
   -3.5798    2.7798    0.1815 O   0  0  0  0  0  0  0  0  0  0  0  0
   -4.5530   -1.8372   -0.3886 O   0  0  0  0  0  0  0  0  0  0  0  0
   -5.9317   -1.4612   -0.3902 C   0  0  0  0  0  0  0  0  0  0  0  0
   -1.8754   -2.4335   -0.3698 O   0  0  0  0  0  0  0  0  0  0  0  0
   -1.7208   -3.1958    0.8289 C   0  0  0  0  0  0  0  0  0  0  0  0
    8.2275   -0.4556   -0.5361 H   0  0  0  0  0  0  0  0  0  0  0  0
    6.9310    0.0066   -1.6647 H   0  0  0  0  0  0  0  0  0  0  0  0
    7.1834    0.9387   -0.1694 H   0  0  0  0  0  0  0  0  0  0  0  0
    4.3802   -2.2538    1.2340 H   0  0  0  0  0  0  0  0  0  0  0  0
    2.0078   -1.6137    1.2355 H   0  0  0  0  0  0  0  0  0  0  0  0
    2.9579    1.8645   -1.0925 H   0  0  0  0  0  0  0  0  0  0  0  0
    5.3279    1.2156   -1.0813 H   0  0  0  0  0  0  0  0  0  0  0  0
    1.3602    2.6106    0.3240 H   0  0  0  0  0  0  0  0  0  0  0  0
   -5.1317    0.6961   -0.1130 H   0  0  0  0  0  0  0  0  0  0  0  0
   -3.7312    3.0493    1.0978 H   0  0  0  0  0  0  0  0  0  0  0  0
   -6.5505   -2.3498   -0.5142 H   0  0  0  0  0  0  0  0  0  0  0  0
   -6.1772   -0.9765    0.5547 H   0  0  0  0  0  0  0  0  0  0  0  0
   -6.1189   -0.7704   -1.2123 H   0  0  0  0  0  0  0  0  0  0  0  0
   -1.3900   -4.2038    0.5784 H   0  0  0  0  0  0  0  0  0  0  0  0
   -0.9792   -2.7188    1.4697 H   0  0  0  0  0  0  0  0  0  0  0  0
   -2.6752   -3.2464    1.3530 H   0  0  0  0  0  0  0  0  0  0  0  0
  1  2  1  0  0  0  0
  2  3  1  0  0  0  0
  3  4  2  0  0  0  0
  4  5  1  0  0  0  0
  5  6  2  0  0  0  0
  6  7  1  0  0  0  0
  7  8  2  0  0  0  0
  3  8  1  0  0  0  0
  6  9  1  0  0  0  0
  9 10  2  0  0  0  0
 10 11  1  0  0  0  0
 11 12  2  0  0  0  0
 11 13  1  0  0  0  0
 13 14  2  0  0  0  0
 14 15  1  0  0  0  0
  9 15  1  0  0  0  0
 14 16  1  0  0  0  0
 16 17  2  0  0  0  0
 17 18  1  0  0  0  0
 18 19  2  0  0  0  0
 13 19  1  0  0  0  0
 19 20  1  0  0  0  0
 17 21  1  0  0  0  0
 21 22  1  0  0  0  0
 16 23  1  0  0  0  0
 23 24  1  0  0  0  0
  1 25  1  0  0  0  0
  1 26  1  0  0  0  0
  1 27  1  0  0  0  0
  4 28  1  0  0  0  0
  5 29  1  0  0  0  0
  7 30  1  0  0  0  0
  8 31  1  0  0  0  0
 10 32  1  0  0  0  0
 18 33  1  0  0  0  0
 20 34  1  0  0  0  0
 22 35  1  0  0  0  0
 22 36  1  0  0  0  0
 22 37  1  0  0  0  0
 24 38  1  0  0  0  0
 24 39  1  0  0  0  0
 24 40  1  0  0  0  0
M  END
$$$$
