C18H14O7
APtclcactv06281817453D 0   0.00000     0.00000
 
 39 42  0  0  0  0  0  0  0  0999 V2000
    5.4820    1.5517   -1.2568 C   0  0  0  0  0  0  0  0  0  0  0  0
    5.0511    1.0837    0.0228 O   0  0  0  0  0  0  0  0  0  0  0  0
    3.9959    0.2236    0.0432 C   0  0  0  0  0  0  0  0  0  0  0  0
    4.2152   -1.1507   -0.0320 C   0  0  0  0  0  0  0  0  0  0  0  0
    3.1530   -2.0395   -0.0083 C   0  0  0  0  0  0  0  0  0  0  0  0
    1.8509   -1.5686    0.0896 C   0  0  0  0  0  0  0  0  0  0  0  0
    1.6279   -0.1809    0.1554 C   0  0  0  0  0  0  0  0  0  0  0  0
    2.7036    0.7139    0.1446 C   0  0  0  0  0  0  0  0  0  0  0  0
    2.4826    2.0518    0.2219 O   0  0  0  0  0  0  0  0  0  0  0  0
    2.4420    2.6281    1.5289 C   0  0  0  0  0  0  0  0  0  0  0  0
    0.2358    0.2940    0.2344 C   0  0  0  0  0  0  0  0  0  0  0  0
   -0.0400    1.4482    0.5145 O   0  0  0  0  0  0  0  0  0  0  0  0
   -0.8045   -0.7147   -0.0473 C   0  0  0  0  0  0  0  0  0  0  0  0
   -0.4343   -2.0206   -0.0889 C   0  0  0  0  0  0  0  0  0  0  0  0
    0.8157   -2.4300    0.1287 O   0  0  0  0  0  0  0  0  0  0  0  0
   -2.2138   -0.3135   -0.2777 C   0  0  0  0  0  0  0  0  0  0  0  0
   -3.2065   -0.7050    0.6184 C   0  0  0  0  0  0  0  0  0  0  0  0
   -4.5201   -0.3294    0.4008 C   0  0  0  0  0  0  0  0  0  0  0  0
   -4.8483    0.4399   -0.7141 C   0  0  0  0  0  0  0  0  0  0  0  0
   -3.8592    0.8279   -1.6050 C   0  0  0  0  0  0  0  0  0  0  0  0
   -2.5467    0.4606   -1.3879 C   0  0  0  0  0  0  0  0  0  0  0  0
   -6.1935    0.6744   -0.7007 O   0  0  0  0  0  0  0  0  0  0  0  0
   -6.6200    0.3901    0.6448 C   0  0  0  0  0  0  0  0  0  0  0  0
   -5.6596   -0.5757    1.1114 O   0  0  0  0  0  0  0  0  0  0  0  0
    5.4846   -1.6238   -0.1302 O   0  0  0  0  0  0  0  0  0  0  0  0
    6.3275    2.2278   -1.1305 H   0  0  0  0  0  0  0  0  0  0  0  0
    5.7837    0.7034   -1.8711 H   0  0  0  0  0  0  0  0  0  0  0  0
    4.6634    2.0807   -1.7447 H   0  0  0  0  0  0  0  0  0  0  0  0
    3.3384   -3.1019   -0.0665 H   0  0  0  0  0  0  0  0  0  0  0  0
    1.6411    2.1652    2.1054 H   0  0  0  0  0  0  0  0  0  0  0  0
    3.3950    2.4592    2.0302 H   0  0  0  0  0  0  0  0  0  0  0  0
    2.2589    3.6996    1.4480 H   0  0  0  0  0  0  0  0  0  0  0  0
   -1.1879   -2.7624   -0.3082 H   0  0  0  0  0  0  0  0  0  0  0  0
   -2.9508   -1.3014    1.4817 H   0  0  0  0  0  0  0  0  0  0  0  0
   -4.1158    1.4240   -2.4682 H   0  0  0  0  0  0  0  0  0  0  0  0
   -1.7788    0.7649   -2.0837 H   0  0  0  0  0  0  0  0  0  0  0  0
   -6.5846    1.2917    1.2563 H   0  0  0  0  0  0  0  0  0  0  0  0
   -7.6233   -0.0358    0.6465 H   0  0  0  0  0  0  0  0  0  0  0  0
    5.9055   -1.8006    0.7223 H   0  0  0  0  0  0  0  0  0  0  0  0
  1  2  1  0  0  0  0
  2  3  1  0  0  0  0
  3  4  2  0  0  0  0
  4  5  1  0  0  0  0
  5  6  2  0  0  0  0
  6  7  1  0  0  0  0
  7  8  2  0  0  0  0
  3  8  1  0  0  0  0
  8  9  1  0  0  0  0
  9 10  1  0  0  0  0
  7 11  1  0  0  0  0
 11 12  2  0  0  0  0
 11 13  1  0  0  0  0
 13 14  2  0  0  0  0
 14 15  1  0  0  0  0
  6 15  1  0  0  0  0
 13 16  1  0  0  0  0
 16 17  2  0  0  0  0
 17 18  1  0  0  0  0
 18 19  2  0  0  0  0
 19 20  1  0  0  0  0
 20 21  2  0  0  0  0
 16 21  1  0  0  0  0
 19 22  1  0  0  0  0
 22 23  1  0  0  0  0
 23 24  1  0  0  0  0
 18 24  1  0  0  0  0
  4 25  1  0  0  0  0
  1 26  1  0  0  0  0
  1 27  1  0  0  0  0
  1 28  1  0  0  0  0
  5 29  1  0  0  0  0
 10 30  1  0  0  0  0
 10 31  1  0  0  0  0
 10 32  1  0  0  0  0
 14 33  1  0  0  0  0
 17 34  1  0  0  0  0
 20 35  1  0  0  0  0
 21 36  1  0  0  0  0
 23 37  1  0  0  0  0
 23 38  1  0  0  0  0
 25 39  1  0  0  0  0
M  END
$$$$
