C35H42O20
APtclcactv06281817453D 0   0.00000     0.00000
 
 97102  0  0  0  0  0  0  0  0999 V2000
   -4.2551   -4.0760   -2.6300 C   0  0  0  0  0  0  0  0  0  0  0  0
   -5.3444   -4.0779   -1.5556 C   0  0  0  0  0  0  0  0  0  0  0  0
   -5.1906   -5.3204   -0.6747 C   0  0  0  0  0  0  0  0  0  0  0  0
   -3.8354   -5.2673    0.0375 C   0  0  0  0  0  0  0  0  0  0  0  0
   -3.7455   -3.9681    0.8440 C   0  0  0  0  0  0  0  0  0  0  0  0
   -3.9551   -2.7778   -0.0956 C   0  0  0  0  0  0  0  0  0  0  0  0
   -5.2198   -2.9051   -0.7486 O   0  0  0  0  0  0  0  0  0  0  0  0
   -3.9284   -1.5646    0.6590 O   0  0  0  0  0  0  0  0  0  0  0  0
   -4.0026   -0.3817   -0.1394 C   0  0  0  0  0  0  0  0  0  0  0  0
   -4.6949    0.7297    0.6554 C   0  0  0  0  0  0  0  0  0  0  0  0
   -4.6990    2.0134   -0.1805 C   0  0  0  0  0  0  0  0  0  0  0  0
   -3.2587    2.3756   -0.5523 C   0  0  0  0  0  0  0  0  0  0  0  0
   -2.6634    1.2875   -1.2621 O   0  0  0  0  0  0  0  0  0  0  0  0
   -2.5893    0.0730   -0.5128 C   0  0  0  0  0  0  0  0  0  0  0  0
   -1.8294    0.2928    0.6773 O   0  0  0  0  0  0  0  0  0  0  0  0
   -0.4852    0.4486    0.5321 C   0  0  0  0  0  0  0  0  0  0  0  0
    0.1159    1.6120    0.9085 C   0  0  0  0  0  0  0  0  0  0  0  0
    1.4392    1.8126    0.7852 O   0  0  0  0  0  0  0  0  0  0  0  0
    2.2671    0.8746    0.2793 C   0  0  0  0  0  0  0  0  0  0  0  0
    3.6277    1.1159    0.1673 C   0  0  0  0  0  0  0  0  0  0  0  0
    4.4648    0.1420   -0.3546 C   0  0  0  0  0  0  0  0  0  0  0  0
    3.9545   -1.0829   -0.7706 C   0  0  0  0  0  0  0  0  0  0  0  0
    2.6006   -1.3427   -0.6666 C   0  0  0  0  0  0  0  0  0  0  0  0
    1.7485   -0.3633   -0.1401 C   0  0  0  0  0  0  0  0  0  0  0  0
    0.3024   -0.6013   -0.0070 C   0  0  0  0  0  0  0  0  0  0  0  0
   -0.2005   -1.6592   -0.3506 O   0  0  0  0  0  0  0  0  0  0  0  0
    2.1005   -2.5373   -1.0725 O   0  0  0  0  0  0  0  0  0  0  0  0
    5.7959    0.3866   -0.4612 O   0  0  0  0  0  0  0  0  0  0  0  0
    6.6056   -0.6568   -1.0069 C   0  0  0  0  0  0  0  0  0  0  0  0
    8.0442   -0.1574   -1.1642 C   0  0  0  0  0  0  0  0  0  0  0  0
    8.6079    0.1949    0.2158 C   0  0  0  0  0  0  0  0  0  0  0  0
    8.5159   -1.0364    1.1223 C   0  0  0  0  0  0  0  0  0  0  0  0
    7.0591   -1.5019    1.1913 C   0  0  0  0  0  0  0  0  0  0  0  0
    6.5873   -1.7834   -0.1279 O   0  0  0  0  0  0  0  0  0  0  0  0
    6.9677   -2.7672    2.0467 C   0  0  0  0  0  0  0  0  0  0  0  0
    9.3273   -2.0844    0.5880 O   0  0  0  0  0  0  0  0  0  0  0  0
    9.9744    0.5925    0.0868 O   0  0  0  0  0  0  0  0  0  0  0  0
    8.8431   -1.1821   -1.7590 O   0  0  0  0  0  0  0  0  0  0  0  0
   -0.7162    2.6912    1.4717 C   0  0  0  0  0  0  0  0  0  0  0  0
   -1.6410    2.4091    2.4813 C   0  0  0  0  0  0  0  0  0  0  0  0
   -2.4162    3.4204    3.0044 C   0  0  0  0  0  0  0  0  0  0  0  0
   -2.2804    4.7193    2.5297 C   0  0  0  0  0  0  0  0  0  0  0  0
   -1.3627    5.0042    1.5260 C   0  0  0  0  0  0  0  0  0  0  0  0
   -0.5785    4.0005    1.0017 C   0  0  0  0  0  0  0  0  0  0  0  0
   -3.0470    5.7130    3.0480 O   0  0  0  0  0  0  0  0  0  0  0  0
   -3.2588    3.6234   -1.4377 C   0  0  0  0  0  0  0  0  0  0  0  0
   -1.8901    4.0358   -1.6928 O   0  0  0  0  0  0  0  0  0  0  0  0
   -1.7143    5.1233   -2.4597 C   0  0  0  0  0  0  0  0  0  0  0  0
   -2.6723    5.7112   -2.9031 O   0  0  0  0  0  0  0  0  0  0  0  0
   -0.3221    5.6111   -2.7676 C   0  0  0  0  0  0  0  0  0  0  0  0
   -5.4617    1.8057   -1.3709 O   0  0  0  0  0  0  0  0  0  0  0  0
   -6.0399    0.3437    0.9451 O   0  0  0  0  0  0  0  0  0  0  0  0
   -4.7558   -3.9625    1.8546 O   0  0  0  0  0  0  0  0  0  0  0  0
   -3.7140   -6.3861    0.9181 O   0  0  0  0  0  0  0  0  0  0  0  0
   -6.2391   -5.3506    0.2957 O   0  0  0  0  0  0  0  0  0  0  0  0
   -4.3496   -4.9711   -3.2448 H   0  0  0  0  0  0  0  0  0  0  0  0
   -4.3647   -3.1913   -3.2571 H   0  0  0  0  0  0  0  0  0  0  0  0
   -3.2748   -4.0644   -2.1535 H   0  0  0  0  0  0  0  0  0  0  0  0
   -6.3247   -4.0891   -2.0320 H   0  0  0  0  0  0  0  0  0  0  0  0
   -5.2412   -6.2153   -1.2950 H   0  0  0  0  0  0  0  0  0  0  0  0
   -3.0341   -5.2942   -0.7010 H   0  0  0  0  0  0  0  0  0  0  0  0
   -2.7627   -3.8959    1.3097 H   0  0  0  0  0  0  0  0  0  0  0  0
   -3.1609   -2.7595   -0.8419 H   0  0  0  0  0  0  0  0  0  0  0  0
   -4.5709   -0.5893   -1.0461 H   0  0  0  0  0  0  0  0  0  0  0  0
   -4.1552    0.9026    1.5864 H   0  0  0  0  0  0  0  0  0  0  0  0
   -5.1404    2.8241    0.3992 H   0  0  0  0  0  0  0  0  0  0  0  0
   -2.6879    2.5734    0.3550 H   0  0  0  0  0  0  0  0  0  0  0  0
   -2.1070   -0.6969   -1.1152 H   0  0  0  0  0  0  0  0  0  0  0  0
    4.0357    2.0635    0.4867 H   0  0  0  0  0  0  0  0  0  0  0  0
    4.6174   -1.8329   -1.1761 H   0  0  0  0  0  0  0  0  0  0  0  0
    2.0808   -3.2114   -0.3793 H   0  0  0  0  0  0  0  0  0  0  0  0
    6.2137   -0.9492   -1.9811 H   0  0  0  0  0  0  0  0  0  0  0  0
    8.0548    0.7286   -1.7990 H   0  0  0  0  0  0  0  0  0  0  0  0
    8.0288    1.0106    0.6489 H   0  0  0  0  0  0  0  0  0  0  0  0
    8.8638   -0.7791    2.1227 H   0  0  0  0  0  0  0  0  0  0  0  0
    6.4474   -0.7171    1.6363 H   0  0  0  0  0  0  0  0  0  0  0  0
    7.3285   -2.5526    3.0526 H   0  0  0  0  0  0  0  0  0  0  0  0
    5.9304   -3.0985    2.0957 H   0  0  0  0  0  0  0  0  0  0  0  0
    7.5790   -3.5519    1.6011 H   0  0  0  0  0  0  0  0  0  0  0  0
    9.3164   -2.8966    1.1127 H   0  0  0  0  0  0  0  0  0  0  0  0
   10.1076    1.3641   -0.4806 H   0  0  0  0  0  0  0  0  0  0  0  0
    8.5401   -1.4584   -2.6348 H   0  0  0  0  0  0  0  0  0  0  0  0
   -1.7478    1.3997    2.8503 H   0  0  0  0  0  0  0  0  0  0  0  0
   -3.1310    3.2034    3.7844 H   0  0  0  0  0  0  0  0  0  0  0  0
   -1.2610    6.0151    1.1596 H   0  0  0  0  0  0  0  0  0  0  0  0
    0.1347    4.2229    0.2218 H   0  0  0  0  0  0  0  0  0  0  0  0
   -2.6508    6.1594    3.8089 H   0  0  0  0  0  0  0  0  0  0  0  0
   -3.7526    3.3981   -2.3829 H   0  0  0  0  0  0  0  0  0  0  0  0
   -3.7923    4.4279   -0.9316 H   0  0  0  0  0  0  0  0  0  0  0  0
    0.4063    4.9593   -2.2852 H   0  0  0  0  0  0  0  0  0  0  0  0
   -0.1629    5.5985   -3.8459 H   0  0  0  0  0  0  0  0  0  0  0  0
   -0.2027    6.6283   -2.3946 H   0  0  0  0  0  0  0  0  0  0  0  0
   -5.5069    2.5795   -1.9491 H   0  0  0  0  0  0  0  0  0  0  0  0
   -6.5386    1.0023    1.4476 H   0  0  0  0  0  0  0  0  0  0  0  0
   -4.7574   -3.1673    2.4047 H   0  0  0  0  0  0  0  0  0  0  0  0
   -2.8779   -6.4160    1.4031 H   0  0  0  0  0  0  0  0  0  0  0  0
   -7.1272   -5.3800   -0.0857 H   0  0  0  0  0  0  0  0  0  0  0  0
  1  2  1  0  0  0  0
  2  3  1  0  0  0  0
  3  4  1  0  0  0  0
  4  5  1  0  0  0  0
  5  6  1  0  0  0  0
  6  7  1  0  0  0  0
  2  7  1  0  0  0  0
  6  8  1  0  0  0  0
  8  9  1  0  0  0  0
  9 10  1  0  0  0  0
 10 11  1  0  0  0  0
 11 12  1  0  0  0  0
 12 13  1  0  0  0  0
 13 14  1  0  0  0  0
  9 14  1  0  0  0  0
 14 15  1  0  0  0  0
 15 16  1  0  0  0  0
 16 17  2  0  0  0  0
 17 18  1  0  0  0  0
 18 19  1  0  0  0  0
 19 20  2  0  0  0  0
 20 21  1  0  0  0  0
 21 22  2  0  0  0  0
 22 23  1  0  0  0  0
 23 24  2  0  0  0  0
 19 24  1  0  0  0  0
 24 25  1  0  0  0  0
 16 25  1  0  0  0  0
 25 26  2  0  0  0  0
 23 27  1  0  0  0  0
 21 28  1  0  0  0  0
 28 29  1  0  0  0  0
 29 30  1  0  0  0  0
 30 31  1  0  0  0  0
 31 32  1  0  0  0  0
 32 33  1  0  0  0  0
 33 34  1  0  0  0  0
 29 34  1  0  0  0  0
 33 35  1  0  0  0  0
 32 36  1  0  0  0  0
 31 37  1  0  0  0  0
 30 38  1  0  0  0  0
 17 39  1  0  0  0  0
 39 40  2  0  0  0  0
 40 41  1  0  0  0  0
 41 42  2  0  0  0  0
 42 43  1  0  0  0  0
 43 44  2  0  0  0  0
 39 44  1  0  0  0  0
 42 45  1  0  0  0  0
 12 46  1  0  0  0  0
 46 47  1  0  0  0  0
 47 48  1  0  0  0  0
 48 49  2  0  0  0  0
 48 50  1  0  0  0  0
 11 51  1  0  0  0  0
 10 52  1  0  0  0  0
  5 53  1  0  0  0  0
  4 54  1  0  0  0  0
  3 55  1  0  0  0  0
  1 56  1  0  0  0  0
  1 57  1  0  0  0  0
  1 58  1  0  0  0  0
  2 59  1  0  0  0  0
  3 60  1  0  0  0  0
  4 61  1  0  0  0  0
  5 62  1  0  0  0  0
  6 63  1  0  0  0  0
  9 64  1  0  0  0  0
 10 65  1  0  0  0  0
 11 66  1  0  0  0  0
 12 67  1  0  0  0  0
 14 68  1  0  0  0  0
 20 69  1  0  0  0  0
 22 70  1  0  0  0  0
 27 71  1  0  0  0  0
 29 72  1  0  0  0  0
 30 73  1  0  0  0  0
 31 74  1  0  0  0  0
 32 75  1  0  0  0  0
 33 76  1  0  0  0  0
 35 77  1  0  0  0  0
 35 78  1  0  0  0  0
 35 79  1  0  0  0  0
 36 80  1  0  0  0  0
 37 81  1  0  0  0  0
 38 82  1  0  0  0  0
 40 83  1  0  0  0  0
 41 84  1  0  0  0  0
 43 85  1  0  0  0  0
 44 86  1  0  0  0  0
 45 87  1  0  0  0  0
 46 88  1  0  0  0  0
 46 89  1  0  0  0  0
 50 90  1  0  0  0  0
 50 91  1  0  0  0  0
 50 92  1  0  0  0  0
 51 93  1  0  0  0  0
 52 94  1  0  0  0  0
 53 95  1  0  0  0  0
 54 96  1  0  0  0  0
 55 97  1  0  0  0  0
M  END
$$$$
