C12H13NO4
APtclcactv06281817453D 0   0.00000     0.00000
 
 30 32  0  0  0  0  0  0  0  0999 V2000
    4.4987   -0.0952    0.0177 C   0  0  0  0  0  0  0  0  0  0  0  0
    3.0695    0.2001    0.1458 N   0  0  0  0  0  0  0  0  0  0  0  0
    2.6481    1.5281    0.5837 C   0  0  0  0  0  0  0  0  0  0  0  0
    1.3927    1.9778   -0.1603 C   0  0  0  0  0  0  0  0  0  0  0  0
    0.3370    0.9070   -0.0787 C   0  0  0  0  0  0  0  0  0  0  0  0
   -1.0017    1.2362   -0.0122 C   0  0  0  0  0  0  0  0  0  0  0  0
   -1.9619    0.2273    0.0633 C   0  0  0  0  0  0  0  0  0  0  0  0
   -1.5728   -1.1097    0.0710 C   0  0  0  0  0  0  0  0  0  0  0  0
   -0.2319   -1.4438    0.0042 C   0  0  0  0  0  0  0  0  0  0  0  0
    0.7276   -0.4362   -0.0713 C   0  0  0  0  0  0  0  0  0  0  0  0
    2.1669   -0.7570   -0.1481 C   0  0  0  0  0  0  0  0  0  0  0  0
    2.5333   -1.8713   -0.4679 O   0  0  0  0  0  0  0  0  0  0  0  0
   -2.5132   -2.0894    0.1449 O   0  0  0  0  0  0  0  0  0  0  0  0
   -2.0447   -3.4394    0.1485 C   0  0  0  0  0  0  0  0  0  0  0  0
   -3.1968    0.8054    0.1188 O   0  0  0  0  0  0  0  0  0  0  0  0
   -3.0097    2.1582   -0.3368 C   0  0  0  0  0  0  0  0  0  0  0  0
   -1.6382    2.4443   -0.0049 O   0  0  0  0  0  0  0  0  0  0  0  0
    4.8756   -0.4838    0.9638 H   0  0  0  0  0  0  0  0  0  0  0  0
    4.6473   -0.8386   -0.7655 H   0  0  0  0  0  0  0  0  0  0  0  0
    5.0365    0.8170   -0.2405 H   0  0  0  0  0  0  0  0  0  0  0  0
    2.4404    1.5029    1.6534 H   0  0  0  0  0  0  0  0  0  0  0  0
    3.4514    2.2396    0.3926 H   0  0  0  0  0  0  0  0  0  0  0  0
    1.0137    2.8949    0.2906 H   0  0  0  0  0  0  0  0  0  0  0  0
    1.6388    2.1647   -1.2056 H   0  0  0  0  0  0  0  0  0  0  0  0
    0.0697   -2.4808    0.0106 H   0  0  0  0  0  0  0  0  0  0  0  0
   -2.8947   -4.1188    0.2107 H   0  0  0  0  0  0  0  0  0  0  0  0
   -1.4904   -3.6341   -0.7696 H   0  0  0  0  0  0  0  0  0  0  0  0
   -1.3915   -3.5950    1.0071 H   0  0  0  0  0  0  0  0  0  0  0  0
   -3.1650    2.2246   -1.4136 H   0  0  0  0  0  0  0  0  0  0  0  0
   -3.6808    2.8362    0.1905 H   0  0  0  0  0  0  0  0  0  0  0  0
  1  2  1  0  0  0  0
  2  3  1  0  0  0  0
  3  4  1  0  0  0  0
  4  5  1  0  0  0  0
  5  6  2  0  0  0  0
  6  7  1  0  0  0  0
  7  8  2  0  0  0  0
  8  9  1  0  0  0  0
  9 10  2  0  0  0  0
  5 10  1  0  0  0  0
 10 11  1  0  0  0  0
  2 11  1  0  0  0  0
 11 12  2  0  0  0  0
  8 13  1  0  0  0  0
 13 14  1  0  0  0  0
  7 15  1  0  0  0  0
 15 16  1  0  0  0  0
 16 17  1  0  0  0  0
  6 17  1  0  0  0  0
  1 18  1  0  0  0  0
  1 19  1  0  0  0  0
  1 20  1  0  0  0  0
  3 21  1  0  0  0  0
  3 22  1  0  0  0  0
  4 23  1  0  0  0  0
  4 24  1  0  0  0  0
  9 25  1  0  0  0  0
 14 26  1  0  0  0  0
 14 27  1  0  0  0  0
 14 28  1  0  0  0  0
 16 29  1  0  0  0  0
 16 30  1  0  0  0  0
M  END
$$$$
