C16H10O6
APtclcactv06281817463D 0   0.00000     0.00000
 
 32 34  0  0  0  0  0  0  0  0999 V2000
   -1.6137    2.3237    0.1230 C   0  0  0  0  0  0  0  0  0  0  0  0
   -1.4987    0.8217    0.0808 C   0  0  0  0  0  0  0  0  0  0  0  0
   -0.2505    0.2165    0.1542 C   0  0  0  0  0  0  0  0  0  0  0  0
   -0.1454   -1.1895    0.1153 C   0  0  0  0  0  0  0  0  0  0  0  0
   -1.2873   -1.9688    0.0033 C   0  0  0  0  0  0  0  0  0  0  0  0
   -2.5384   -1.3625   -0.0707 C   0  0  0  0  0  0  0  0  0  0  0  0
   -2.6468    0.0346   -0.0263 C   0  0  0  0  0  0  0  0  0  0  0  0
   -3.9747    0.6741   -0.1040 C   0  0  0  0  0  0  0  0  0  0  0  0
   -4.6016    0.8977    0.9123 O   0  0  0  0  0  0  0  0  0  0  0  0
   -4.4917    1.0098   -1.3020 O   0  0  0  0  0  0  0  0  0  0  0  0
   -3.6534   -2.1239   -0.1805 O   0  0  0  0  0  0  0  0  0  0  0  0
    1.1911   -1.8252    0.1944 C   0  0  0  0  0  0  0  0  0  0  0  0
    1.2940   -3.0157    0.4135 O   0  0  0  0  0  0  0  0  0  0  0  0
    2.3975   -0.9922    0.0030 C   0  0  0  0  0  0  0  0  0  0  0  0
    2.2882    0.4115    0.0408 C   0  0  0  0  0  0  0  0  0  0  0  0
    0.9724    1.0376    0.2720 C   0  0  0  0  0  0  0  0  0  0  0  0
    0.8950    2.2173    0.5562 O   0  0  0  0  0  0  0  0  0  0  0  0
    3.4278    1.1984   -0.1415 C   0  0  0  0  0  0  0  0  0  0  0  0
    4.6599    0.5865   -0.3582 C   0  0  0  0  0  0  0  0  0  0  0  0
    4.7598   -0.7892   -0.3932 C   0  0  0  0  0  0  0  0  0  0  0  0
    3.6373   -1.5824   -0.2143 C   0  0  0  0  0  0  0  0  0  0  0  0
    3.3349    2.5507   -0.1082 O   0  0  0  0  0  0  0  0  0  0  0  0
   -1.4376    2.7297   -0.8731 H   0  0  0  0  0  0  0  0  0  0  0  0
   -2.6130    2.6024    0.4575 H   0  0  0  0  0  0  0  0  0  0  0  0
   -0.8737    2.7255    0.8151 H   0  0  0  0  0  0  0  0  0  0  0  0
   -1.2059   -3.0453   -0.0269 H   0  0  0  0  0  0  0  0  0  0  0  0
   -5.3644    1.4263   -1.3024 H   0  0  0  0  0  0  0  0  0  0  0  0
   -4.0435   -2.3747    0.6680 H   0  0  0  0  0  0  0  0  0  0  0  0
    5.5426    1.1925   -0.5000 H   0  0  0  0  0  0  0  0  0  0  0  0
    5.7209   -1.2521   -0.5616 H   0  0  0  0  0  0  0  0  0  0  0  0
    3.7258   -2.6584   -0.2431 H   0  0  0  0  0  0  0  0  0  0  0  0
    3.4551    2.9316    0.7725 H   0  0  0  0  0  0  0  0  0  0  0  0
  1  2  1  0  0  0  0
  2  3  2  0  0  0  0
  3  4  1  0  0  0  0
  4  5  2  0  0  0  0
  5  6  1  0  0  0  0
  6  7  2  0  0  0  0
  2  7  1  0  0  0  0
  7  8  1  0  0  0  0
  8  9  2  0  0  0  0
  8 10  1  0  0  0  0
  6 11  1  0  0  0  0
  4 12  1  0  0  0  0
 12 13  2  0  0  0  0
 12 14  1  0  0  0  0
 14 15  2  0  0  0  0
 15 16  1  0  0  0  0
  3 16  1  0  0  0  0
 16 17  2  0  0  0  0
 15 18  1  0  0  0  0
 18 19  2  0  0  0  0
 19 20  1  0  0  0  0
 20 21  2  0  0  0  0
 14 21  1  0  0  0  0
 18 22  1  0  0  0  0
  1 23  1  0  0  0  0
  1 24  1  0  0  0  0
  1 25  1  0  0  0  0
  5 26  1  0  0  0  0
 10 27  1  0  0  0  0
 11 28  1  0  0  0  0
 19 29  1  0  0  0  0
 20 30  1  0  0  0  0
 21 31  1  0  0  0  0
 22 32  1  0  0  0  0
M  END
$$$$
