C17H12O6
APtclcactv06211806063D 0   0.00000     0.00000
 
 35 39  0  0  0  0  0  0  0  0999 V2000
   -0.0990    4.3288   -0.0827 C   0  0  0  0  0  0  0  0  0  0  0  0
   -0.7638    3.0648   -0.1308 O   0  0  0  0  0  0  0  0  0  0  0  0
   -0.0029    1.9609    0.0725 C   0  0  0  0  0  0  0  0  0  0  0  0
   -0.5886    0.6848    0.0395 C   0  0  0  0  0  0  0  0  0  0  0  0
   -1.9743    0.4977   -0.1149 C   0  0  0  0  0  0  0  0  0  0  0  0
   -2.5119   -0.7898    0.0199 C   0  0  0  0  0  0  0  0  0  0  0  0
   -3.9424   -0.7817   -0.1835 C   0  0  0  0  0  0  0  0  0  0  0  0
   -4.6756   -1.7478   -0.1330 O   0  0  0  0  0  0  0  0  0  0  0  0
   -4.3668    0.6439   -0.4702 C   0  0  0  0  0  0  0  0  0  0  0  0
   -3.0677    1.4697   -0.4189 C   0  0  0  0  0  0  0  0  0  0  0  0
   -1.6057   -1.9107    0.3396 C   0  0  0  0  0  0  0  0  0  0  0  0
   -2.0053   -2.9436    0.8434 O   0  0  0  0  0  0  0  0  0  0  0  0
   -0.2979   -1.7140    0.0345 O   0  0  0  0  0  0  0  0  0  0  0  0
    0.2218   -0.4712    0.1671 C   0  0  0  0  0  0  0  0  0  0  0  0
    1.5708   -0.3119    0.4217 C   0  0  0  0  0  0  0  0  0  0  0  0
    2.6812   -1.3252    0.6220 C   0  0  0  0  0  0  0  0  0  0  0  0
    2.7665   -2.2115   -0.6082 C   0  0  0  0  0  0  0  0  0  0  0  0
    3.6352   -1.6669   -1.4312 C   0  0  0  0  0  0  0  0  0  0  0  0
    4.1724   -0.5160   -0.9689 O   0  0  0  0  0  0  0  0  0  0  0  0
    3.9539   -0.4377    0.4513 C   0  0  0  0  0  0  0  0  0  0  0  0
    3.4710    0.8706    0.7878 O   0  0  0  0  0  0  0  0  0  0  0  0
    2.1418    0.9516    0.5121 C   0  0  0  0  0  0  0  0  0  0  0  0
    1.3504    2.0862    0.3068 C   0  0  0  0  0  0  0  0  0  0  0  0
    0.6752    4.3616   -0.8492 H   0  0  0  0  0  0  0  0  0  0  0  0
   -0.8208    5.1259   -0.2610 H   0  0  0  0  0  0  0  0  0  0  0  0
    0.3556    4.4631    0.8988 H   0  0  0  0  0  0  0  0  0  0  0  0
   -4.8193    0.7120   -1.4595 H   0  0  0  0  0  0  0  0  0  0  0  0
   -5.0657    0.9908    0.2909 H   0  0  0  0  0  0  0  0  0  0  0  0
   -3.1314    2.2214    0.3678 H   0  0  0  0  0  0  0  0  0  0  0  0
   -2.8882    1.9476   -1.3820 H   0  0  0  0  0  0  0  0  0  0  0  0
    2.6172   -1.8742    1.5615 H   0  0  0  0  0  0  0  0  0  0  0  0
    2.2140   -3.1240   -0.7764 H   0  0  0  0  0  0  0  0  0  0  0  0
    3.8952   -2.0986   -2.3864 H   0  0  0  0  0  0  0  0  0  0  0  0
    4.8072   -0.7677    1.0438 H   0  0  0  0  0  0  0  0  0  0  0  0
    1.8014    3.0671    0.3347 H   0  0  0  0  0  0  0  0  0  0  0  0
  1  2  1  0  0  0  0
  2  3  1  0  0  0  0
  3  4  2  0  0  0  0
  4  5  1  0  0  0  0
  5  6  2  0  0  0  0
  6  7  1  0  0  0  0
  7  8  2  0  0  0  0
  7  9  1  0  0  0  0
  9 10  1  0  0  0  0
  5 10  1  0  0  0  0
  6 11  1  0  0  0  0
 11 12  2  0  0  0  0
 11 13  1  0  0  0  0
 13 14  1  0  0  0  0
  4 14  1  0  0  0  0
 14 15  2  0  0  0  0
 15 16  1  0  0  0  0
 16 17  1  0  0  0  0
 17 18  2  0  0  0  0
 18 19  1  0  0  0  0
 19 20  1  0  0  0  0
 16 20  1  0  0  0  0
 20 21  1  0  0  0  0
 21 22  1  0  0  0  0
 15 22  1  0  0  0  0
 22 23  2  0  0  0  0
  3 23  1  0  0  0  0
  1 24  1  0  0  0  0
  1 25  1  0  0  0  0
  1 26  1  0  0  0  0
  9 27  1  0  0  0  0
  9 28  1  0  0  0  0
 10 29  1  0  0  0  0
 10 30  1  0  0  0  0
 16 31  1  0  0  0  0
 17 32  1  0  0  0  0
 18 33  1  0  0  0  0
 20 34  1  0  0  0  0
 23 35  1  0  0  0  0
M  END
$$$$
