C30H48O2
APtclcactv06281817463D 0   0.00000     0.00000
 
 80 84  0  0  0  0  0  0  0  0999 V2000
    6.1944   -2.1302   -0.6692 C   0  0  0  0  0  0  0  0  0  0  0  0
    5.2059   -1.5104    0.3280 C   0  0  0  0  0  0  0  0  0  0  0  0
    5.7374   -0.1610    0.7806 C   0  0  0  0  0  0  0  0  0  0  0  0
    4.7277    0.6566    1.5863 C   0  0  0  0  0  0  0  0  0  0  0  0
    3.4699    0.8523    0.7232 C   0  0  0  0  0  0  0  0  0  0  0  0
    2.3950    1.6572    1.4441 C   0  0  0  0  0  0  0  0  0  0  0  0
    1.1847    1.9177    0.5437 C   0  0  0  0  0  0  0  0  0  0  0  0
    0.7931    0.7312   -0.3116 C   0  0  0  0  0  0  0  0  0  0  0  0
    1.4524   -0.5287    0.1606 C   0  0  0  0  0  0  0  0  0  0  0  0
    0.8025   -1.6268    0.4500 C   0  0  0  0  0  0  0  0  0  0  0  0
   -0.6956   -1.7293    0.4711 C   0  0  0  0  0  0  0  0  0  0  0  0
   -1.2451   -0.3148    0.6645 C   0  0  0  0  0  0  0  0  0  0  0  0
   -0.7373    0.5779   -0.4512 C   0  0  0  0  0  0  0  0  0  0  0  0
   -1.3979    1.9471   -0.4057 C   0  0  0  0  0  0  0  0  0  0  0  0
   -2.9240    1.8831   -0.3489 C   0  0  0  0  0  0  0  0  0  0  0  0
   -3.4511    0.4617   -0.2625 C   0  0  0  0  0  0  0  0  0  0  0  0
   -2.7607   -0.3104    0.8460 C   0  0  0  0  0  0  0  0  0  0  0  0
   -3.2795   -1.7511    0.8762 C   0  0  0  0  0  0  0  0  0  0  0  0
   -4.7951   -1.7530    1.0690 C   0  0  0  0  0  0  0  0  0  0  0  0
   -5.4772   -1.0257   -0.0821 C   0  0  0  0  0  0  0  0  0  0  0  0
   -4.9719    0.4092   -0.2340 C   0  0  0  0  0  0  0  0  0  0  0  0
   -5.5968    1.3052    0.8284 C   0  0  0  0  0  0  0  0  0  0  0  0
   -5.4845    0.9077   -1.6085 C   0  0  0  0  0  0  0  0  0  0  0  0
   -5.2462   -1.7372   -1.3032 O   0  0  0  0  0  0  0  0  0  0  0  0
   -3.0227    0.3266    2.2230 C   0  0  0  0  0  0  0  0  0  0  0  0
   -0.9294   -0.0501   -1.8410 C   0  0  0  0  0  0  0  0  0  0  0  0
    2.9250   -0.5402    0.4638 C   0  0  0  0  0  0  0  0  0  0  0  0
    3.8193   -1.4504   -0.3243 C   0  0  0  0  0  0  0  0  0  0  0  0
    3.9131   -1.1617   -1.8135 C   0  0  0  0  0  0  0  0  0  0  0  0
    1.2319    0.9926   -1.7624 C   0  0  0  0  0  0  0  0  0  0  0  0
    3.9105    1.6257   -0.4839 C   0  0  0  0  0  0  0  0  0  0  0  0
    5.0759    1.6393   -0.8000 O   0  0  0  0  0  0  0  0  0  0  0  0
    7.1632   -2.2605   -0.1870 H   0  0  0  0  0  0  0  0  0  0  0  0
    5.8190   -3.0992   -0.9982 H   0  0  0  0  0  0  0  0  0  0  0  0
    6.3029   -1.4711   -1.5305 H   0  0  0  0  0  0  0  0  0  0  0  0
    5.1480   -2.1756    1.2004 H   0  0  0  0  0  0  0  0  0  0  0  0
    6.6128   -0.3439    1.4294 H   0  0  0  0  0  0  0  0  0  0  0  0
    6.1076    0.4028   -0.0733 H   0  0  0  0  0  0  0  0  0  0  0  0
    4.4537    0.1284    2.4967 H   0  0  0  0  0  0  0  0  0  0  0  0
    5.1429    1.6336    1.8288 H   0  0  0  0  0  0  0  0  0  0  0  0
    2.0754    1.1072    2.3328 H   0  0  0  0  0  0  0  0  0  0  0  0
    2.8221    2.6127    1.7610 H   0  0  0  0  0  0  0  0  0  0  0  0
    0.3487    2.1718    1.2126 H   0  0  0  0  0  0  0  0  0  0  0  0
    1.3773    2.7865   -0.0883 H   0  0  0  0  0  0  0  0  0  0  0  0
    1.3805   -2.5044    0.6893 H   0  0  0  0  0  0  0  0  0  0  0  0
   -1.0614   -2.1925   -0.4327 H   0  0  0  0  0  0  0  0  0  0  0  0
   -0.9814   -2.3477    1.3303 H   0  0  0  0  0  0  0  0  0  0  0  0
   -0.8113    0.0700    1.6198 H   0  0  0  0  0  0  0  0  0  0  0  0
   -1.0613    2.5101    0.4677 H   0  0  0  0  0  0  0  0  0  0  0  0
   -1.1141    2.5187   -1.2981 H   0  0  0  0  0  0  0  0  0  0  0  0
   -3.2558    2.4744    0.5099 H   0  0  0  0  0  0  0  0  0  0  0  0
   -3.3110    2.3732   -1.2515 H   0  0  0  0  0  0  0  0  0  0  0  0
   -3.2091   -0.0504   -1.2229 H   0  0  0  0  0  0  0  0  0  0  0  0
   -3.0315   -2.2485   -0.0605 H   0  0  0  0  0  0  0  0  0  0  0  0
   -2.8147   -2.2851    1.7067 H   0  0  0  0  0  0  0  0  0  0  0  0
   -5.1405   -2.7974    1.0783 H   0  0  0  0  0  0  0  0  0  0  0  0
   -5.0680   -1.3077    2.0210 H   0  0  0  0  0  0  0  0  0  0  0  0
   -6.5581   -0.9991    0.1005 H   0  0  0  0  0  0  0  0  0  0  0  0
   -5.4354    0.8676    1.8135 H   0  0  0  0  0  0  0  0  0  0  0  0
   -5.1350    2.2918    0.7890 H   0  0  0  0  0  0  0  0  0  0  0  0
   -6.6668    1.3973    0.6425 H   0  0  0  0  0  0  0  0  0  0  0  0
   -6.5738    0.8729   -1.6244 H   0  0  0  0  0  0  0  0  0  0  0  0
   -5.1513    1.9328   -1.7705 H   0  0  0  0  0  0  0  0  0  0  0  0
   -5.0890    0.2681   -2.3975 H   0  0  0  0  0  0  0  0  0  0  0  0
   -5.5831   -2.6436   -1.3000 H   0  0  0  0  0  0  0  0  0  0  0  0
   -4.0752    0.2121    2.4820 H   0  0  0  0  0  0  0  0  0  0  0  0
   -2.4076   -0.1678    2.9749 H   0  0  0  0  0  0  0  0  0  0  0  0
   -2.7706    1.3864    2.1869 H   0  0  0  0  0  0  0  0  0  0  0  0
   -1.9688   -0.3556   -1.9611 H   0  0  0  0  0  0  0  0  0  0  0  0
   -0.6746    0.6808   -2.6083 H   0  0  0  0  0  0  0  0  0  0  0  0
   -0.2811   -0.9209   -1.9390 H   0  0  0  0  0  0  0  0  0  0  0  0
    2.9433   -1.0195    1.5104 H   0  0  0  0  0  0  0  0  0  0  0  0
    3.3967   -2.4849   -0.2358 H   0  0  0  0  0  0  0  0  0  0  0  0
    4.2972   -0.1529   -1.9645 H   0  0  0  0  0  0  0  0  0  0  0  0
    4.5858   -1.8805   -2.2813 H   0  0  0  0  0  0  0  0  0  0  0  0
    2.9234   -1.2447   -2.2627 H   0  0  0  0  0  0  0  0  0  0  0  0
    2.3106    1.1458   -1.7937 H   0  0  0  0  0  0  0  0  0  0  0  0
    0.9686    0.1351   -2.3817 H   0  0  0  0  0  0  0  0  0  0  0  0
    0.7274    1.8820   -2.1399 H   0  0  0  0  0  0  0  0  0  0  0  0
    3.1855    2.1704   -1.0705 H   0  0  0  0  0  0  0  0  0  0  0  0
  1  2  1  0  0  0  0
  2  3  1  0  0  0  0
  3  4  1  0  0  0  0
  4  5  1  0  0  0  0
  5  6  1  0  0  0  0
  6  7  1  0  0  0  0
  7  8  1  0  0  0  0
  8  9  1  0  0  0  0
  9 10  2  0  0  0  0
 10 11  1  0  0  0  0
 11 12  1  0  0  0  0
 12 13  1  0  0  0  0
  8 13  1  0  0  0  0
 13 14  1  0  0  0  0
 14 15  1  0  0  0  0
 15 16  1  0  0  0  0
 16 17  1  0  0  0  0
 12 17  1  0  0  0  0
 17 18  1  0  0  0  0
 18 19  1  0  0  0  0
 19 20  1  0  0  0  0
 20 21  1  0  0  0  0
 16 21  1  0  0  0  0
 21 22  1  0  0  0  0
 21 23  1  0  0  0  0
 20 24  1  0  0  0  0
 17 25  1  0  0  0  0
 13 26  1  0  0  0  0
  9 27  1  0  0  0  0
  5 27  1  0  0  0  0
 27 28  1  0  0  0  0
  2 28  1  0  0  0  0
 28 29  1  0  0  0  0
  8 30  1  0  0  0  0
  5 31  1  0  0  0  0
 31 32  2  0  0  0  0
  1 33  1  0  0  0  0
  1 34  1  0  0  0  0
  1 35  1  0  0  0  0
  2 36  1  0  0  0  0
  3 37  1  0  0  0  0
  3 38  1  0  0  0  0
  4 39  1  0  0  0  0
  4 40  1  0  0  0  0
  6 41  1  0  0  0  0
  6 42  1  0  0  0  0
  7 43  1  0  0  0  0
  7 44  1  0  0  0  0
 10 45  1  0  0  0  0
 11 46  1  0  0  0  0
 11 47  1  0  0  0  0
 12 48  1  0  0  0  0
 14 49  1  0  0  0  0
 14 50  1  0  0  0  0
 15 51  1  0  0  0  0
 15 52  1  0  0  0  0
 16 53  1  0  0  0  0
 18 54  1  0  0  0  0
 18 55  1  0  0  0  0
 19 56  1  0  0  0  0
 19 57  1  0  0  0  0
 20 58  1  0  0  0  0
 22 59  1  0  0  0  0
 22 60  1  0  0  0  0
 22 61  1  0  0  0  0
 23 62  1  0  0  0  0
 23 63  1  0  0  0  0
 23 64  1  0  0  0  0
 24 65  1  0  0  0  0
 25 66  1  0  0  0  0
 25 67  1  0  0  0  0
 25 68  1  0  0  0  0
 26 69  1  0  0  0  0
 26 70  1  0  0  0  0
 26 71  1  0  0  0  0
 27 72  1  0  0  0  0
 28 73  1  0  0  0  0
 29 74  1  0  0  0  0
 29 75  1  0  0  0  0
 29 76  1  0  0  0  0
 30 77  1  0  0  0  0
 30 78  1  0  0  0  0
 30 79  1  0  0  0  0
 31 80  1  0  0  0  0
M  END
$$$$
