C26H28O14
APtclcactv06281817463D 0   0.00000     0.00000
 
 68 72  0  0  0  0  0  0  0  0999 V2000
    4.2504   -2.8483    1.9732 C   0  0  0  0  0  0  0  0  0  0  0  0
    4.1124   -4.1191    1.1307 C   0  0  0  0  0  0  0  0  0  0  0  0
    2.7090   -4.1668    0.5187 C   0  0  0  0  0  0  0  0  0  0  0  0
    2.4796   -2.8957   -0.3047 C   0  0  0  0  0  0  0  0  0  0  0  0
    2.6806   -1.6722    0.5932 C   0  0  0  0  0  0  0  0  0  0  0  0
    3.9944   -1.7055    1.1543 O   0  0  0  0  0  0  0  0  0  0  0  0
    2.5233   -0.4817   -0.1814 O   0  0  0  0  0  0  0  0  0  0  0  0
    2.5798    0.7226    0.5858 C   0  0  0  0  0  0  0  0  0  0  0  0
    4.0288    1.2135    0.6619 C   0  0  0  0  0  0  0  0  0  0  0  0
    4.5167    1.5513   -0.7503 C   0  0  0  0  0  0  0  0  0  0  0  0
    3.5817    2.5938   -1.3690 C   0  0  0  0  0  0  0  0  0  0  0  0
    2.2460    2.0862   -1.3813 O   0  0  0  0  0  0  0  0  0  0  0  0
    1.7197    1.7971   -0.0846 C   0  0  0  0  0  0  0  0  0  0  0  0
    0.3040    1.2976   -0.2166 C   0  0  0  0  0  0  0  0  0  0  0  0
   -0.0098    0.3510   -1.1854 C   0  0  0  0  0  0  0  0  0  0  0  0
   -1.3075   -0.1187   -1.3203 C   0  0  0  0  0  0  0  0  0  0  0  0
   -2.3070    0.3551   -0.4854 C   0  0  0  0  0  0  0  0  0  0  0  0
   -1.9923    1.3119    0.4953 C   0  0  0  0  0  0  0  0  0  0  0  0
   -0.6786    1.7776    0.6297 C   0  0  0  0  0  0  0  0  0  0  0  0
   -0.3743    2.7013    1.5763 O   0  0  0  0  0  0  0  0  0  0  0  0
   -3.0705    1.8011    1.3712 C   0  0  0  0  0  0  0  0  0  0  0  0
   -2.8547    2.6315    2.2391 O   0  0  0  0  0  0  0  0  0  0  0  0
   -4.3664    1.2709    1.1668 C   0  0  0  0  0  0  0  0  0  0  0  0
   -4.5666    0.3471    0.1887 C   0  0  0  0  0  0  0  0  0  0  0  0
   -3.5756   -0.0909   -0.6039 O   0  0  0  0  0  0  0  0  0  0  0  0
   -5.9247   -0.1937   -0.0089 C   0  0  0  0  0  0  0  0  0  0  0  0
   -6.1623   -1.1443   -1.0058 C   0  0  0  0  0  0  0  0  0  0  0  0
   -7.4317   -1.6469   -1.1865 C   0  0  0  0  0  0  0  0  0  0  0  0
   -8.4756   -1.2104   -0.3796 C   0  0  0  0  0  0  0  0  0  0  0  0
   -8.2439   -0.2651    0.6124 C   0  0  0  0  0  0  0  0  0  0  0  0
   -6.9764    0.2386    0.8039 C   0  0  0  0  0  0  0  0  0  0  0  0
   -9.7254   -1.7085   -0.5612 O   0  0  0  0  0  0  0  0  0  0  0  0
    0.9635   -0.1177   -2.0074 O   0  0  0  0  0  0  0  0  0  0  0  0
    3.6314    3.8793   -0.5408 C   0  0  0  0  0  0  0  0  0  0  0  0
    2.8805    4.9004   -1.2007 O   0  0  0  0  0  0  0  0  0  0  0  0
    5.8430    2.0790   -0.6838 O   0  0  0  0  0  0  0  0  0  0  0  0
    4.0953    2.3814    1.4827 O   0  0  0  0  0  0  0  0  0  0  0  0
    3.4124   -2.8526   -1.3864 O   0  0  0  0  0  0  0  0  0  0  0  0
    2.5956   -5.3121   -0.3283 O   0  0  0  0  0  0  0  0  0  0  0  0
    5.0885   -4.1084    0.0870 O   0  0  0  0  0  0  0  0  0  0  0  0
    3.5327   -2.8761    2.7931 H   0  0  0  0  0  0  0  0  0  0  0  0
    5.2612   -2.7875    2.3765 H   0  0  0  0  0  0  0  0  0  0  0  0
    4.2638   -4.9937    1.7634 H   0  0  0  0  0  0  0  0  0  0  0  0
    1.9661   -4.2250    1.3142 H   0  0  0  0  0  0  0  0  0  0  0  0
    1.4633   -2.8954   -0.6987 H   0  0  0  0  0  0  0  0  0  0  0  0
    1.9424   -1.6845    1.3951 H   0  0  0  0  0  0  0  0  0  0  0  0
    2.2067    0.5314    1.5919 H   0  0  0  0  0  0  0  0  0  0  0  0
    4.6570    0.4310    1.0873 H   0  0  0  0  0  0  0  0  0  0  0  0
    4.5127    0.6495   -1.3624 H   0  0  0  0  0  0  0  0  0  0  0  0
    3.8992    2.8064   -2.3899 H   0  0  0  0  0  0  0  0  0  0  0  0
    1.7307    2.7025    0.5223 H   0  0  0  0  0  0  0  0  0  0  0  0
   -1.5395   -0.8538   -2.0767 H   0  0  0  0  0  0  0  0  0  0  0  0
   -0.1157    2.3219    2.4273 H   0  0  0  0  0  0  0  0  0  0  0  0
   -5.1909    1.5973    1.7834 H   0  0  0  0  0  0  0  0  0  0  0  0
   -5.3517   -1.4838   -1.6335 H   0  0  0  0  0  0  0  0  0  0  0  0
   -7.6163   -2.3812   -1.9568 H   0  0  0  0  0  0  0  0  0  0  0  0
   -9.0581    0.0719    1.2368 H   0  0  0  0  0  0  0  0  0  0  0  0
   -6.7971    0.9730    1.5752 H   0  0  0  0  0  0  0  0  0  0  0  0
   -9.9132   -2.4999   -0.0383 H   0  0  0  0  0  0  0  0  0  0  0  0
    1.4201   -0.9005   -1.6700 H   0  0  0  0  0  0  0  0  0  0  0  0
    3.2041    3.6934    0.4446 H   0  0  0  0  0  0  0  0  0  0  0  0
    4.6669    4.2021   -0.4327 H   0  0  0  0  0  0  0  0  0  0  0  0
    2.8684    5.7455   -0.7308 H   0  0  0  0  0  0  0  0  0  0  0  0
    6.2159    2.3152   -1.5442 H   0  0  0  0  0  0  0  0  0  0  0  0
    4.9858    2.7470    1.5751 H   0  0  0  0  0  0  0  0  0  0  0  0
    3.3243   -2.0725   -1.9509 H   0  0  0  0  0  0  0  0  0  0  0  0
    2.7364   -6.1535    0.1269 H   0  0  0  0  0  0  0  0  0  0  0  0
    6.0017   -4.0738    0.4029 H   0  0  0  0  0  0  0  0  0  0  0  0
  1  2  1  0  0  0  0
  2  3  1  0  0  0  0
  3  4  1  0  0  0  0
  4  5  1  0  0  0  0
  5  6  1  0  0  0  0
  1  6  1  0  0  0  0
  5  7  1  0  0  0  0
  7  8  1  0  0  0  0
  8  9  1  0  0  0  0
  9 10  1  0  0  0  0
 10 11  1  0  0  0  0
 11 12  1  0  0  0  0
 12 13  1  0  0  0  0
  8 13  1  0  0  0  0
 13 14  1  0  0  0  0
 14 15  2  0  0  0  0
 15 16  1  0  0  0  0
 16 17  2  0  0  0  0
 17 18  1  0  0  0  0
 18 19  2  0  0  0  0
 14 19  1  0  0  0  0
 19 20  1  0  0  0  0
 18 21  1  0  0  0  0
 21 22  2  0  0  0  0
 21 23  1  0  0  0  0
 23 24  2  0  0  0  0
 24 25  1  0  0  0  0
 17 25  1  0  0  0  0
 24 26  1  0  0  0  0
 26 27  2  0  0  0  0
 27 28  1  0  0  0  0
 28 29  2  0  0  0  0
 29 30  1  0  0  0  0
 30 31  2  0  0  0  0
 26 31  1  0  0  0  0
 29 32  1  0  0  0  0
 15 33  1  0  0  0  0
 11 34  1  0  0  0  0
 34 35  1  0  0  0  0
 10 36  1  0  0  0  0
  9 37  1  0  0  0  0
  4 38  1  0  0  0  0
  3 39  1  0  0  0  0
  2 40  1  0  0  0  0
  1 41  1  0  0  0  0
  1 42  1  0  0  0  0
  2 43  1  0  0  0  0
  3 44  1  0  0  0  0
  4 45  1  0  0  0  0
  5 46  1  0  0  0  0
  8 47  1  0  0  0  0
  9 48  1  0  0  0  0
 10 49  1  0  0  0  0
 11 50  1  0  0  0  0
 13 51  1  0  0  0  0
 16 52  1  0  0  0  0
 20 53  1  0  0  0  0
 23 54  1  0  0  0  0
 27 55  1  0  0  0  0
 28 56  1  0  0  0  0
 30 57  1  0  0  0  0
 31 58  1  0  0  0  0
 32 59  1  0  0  0  0
 33 60  1  0  0  0  0
 34 61  1  0  0  0  0
 34 62  1  0  0  0  0
 35 63  1  0  0  0  0
 36 64  1  0  0  0  0
 37 65  1  0  0  0  0
 38 66  1  0  0  0  0
 39 67  1  0  0  0  0
 40 68  1  0  0  0  0
M  END
$$$$
