C20H20O7
APtclcactv06281817463D 0   0.00000     0.00000
 
 47 49  0  0  0  0  0  0  0  0999 V2000
   -2.0020    4.4210    1.7883 C   0  0  0  0  0  0  0  0  0  0  0  0
   -2.0722    3.6912    0.4454 C   0  0  0  0  0  0  0  0  0  0  0  0
   -0.8141    3.9993   -0.3689 C   0  0  0  0  0  0  0  0  0  0  0  0
   -2.1658    2.1836    0.6885 C   0  0  0  0  0  0  0  0  0  0  0  0
   -2.1104    1.4465   -0.6511 C   0  0  0  0  0  0  0  0  0  0  0  0
   -2.2026   -0.0385   -0.4116 C   0  0  0  0  0  0  0  0  0  0  0  0
   -3.4410   -0.6599   -0.3845 C   0  0  0  0  0  0  0  0  0  0  0  0
   -3.5424   -2.0296   -0.1641 C   0  0  0  0  0  0  0  0  0  0  0  0
   -2.4034   -2.7879    0.0310 C   0  0  0  0  0  0  0  0  0  0  0  0
   -1.1477   -2.1666    0.0044 C   0  0  0  0  0  0  0  0  0  0  0  0
   -1.0478   -0.7831   -0.2241 C   0  0  0  0  0  0  0  0  0  0  0  0
    0.1654   -0.1925   -0.2490 O   0  0  0  0  0  0  0  0  0  0  0  0
    1.3040   -0.8815   -0.0615 C   0  0  0  0  0  0  0  0  0  0  0  0
    1.3162   -2.2247    0.1671 C   0  0  0  0  0  0  0  0  0  0  0  0
    0.0896   -2.9370    0.2069 C   0  0  0  0  0  0  0  0  0  0  0  0
    0.0614   -4.1405    0.4093 O   0  0  0  0  0  0  0  0  0  0  0  0
    2.4955   -2.8786    0.3512 O   0  0  0  0  0  0  0  0  0  0  0  0
    2.5876   -0.1571   -0.1054 C   0  0  0  0  0  0  0  0  0  0  0  0
    2.8525    0.7374   -1.1465 C   0  0  0  0  0  0  0  0  0  0  0  0
    4.0530    1.4119   -1.1835 C   0  0  0  0  0  0  0  0  0  0  0  0
    4.9999    1.2042   -0.1880 C   0  0  0  0  0  0  0  0  0  0  0  0
    4.7411    0.3157    0.8485 C   0  0  0  0  0  0  0  0  0  0  0  0
    3.5409   -0.3585    0.8970 C   0  0  0  0  0  0  0  0  0  0  0  0
    6.1820    1.8713   -0.2284 O   0  0  0  0  0  0  0  0  0  0  0  0
   -2.5005   -4.1242    0.2470 O   0  0  0  0  0  0  0  0  0  0  0  0
   -4.5663    0.0754   -0.5745 O   0  0  0  0  0  0  0  0  0  0  0  0
   -3.2254    4.1299   -0.2755 O   0  0  0  0  0  0  0  0  0  0  0  0
   -1.9353    5.4951    1.6150 H   0  0  0  0  0  0  0  0  0  0  0  0
   -2.8983    4.2015    2.3684 H   0  0  0  0  0  0  0  0  0  0  0  0
   -1.1224    4.0863    2.3381 H   0  0  0  0  0  0  0  0  0  0  0  0
    0.0656    3.6647    0.1809 H   0  0  0  0  0  0  0  0  0  0  0  0
   -0.8641    3.4794   -1.3256 H   0  0  0  0  0  0  0  0  0  0  0  0
   -0.7474    5.0734   -0.5421 H   0  0  0  0  0  0  0  0  0  0  0  0
   -1.3322    1.8639    1.3138 H   0  0  0  0  0  0  0  0  0  0  0  0
   -3.1056    1.9542    1.1908 H   0  0  0  0  0  0  0  0  0  0  0  0
   -2.9440    1.7661   -1.2764 H   0  0  0  0  0  0  0  0  0  0  0  0
   -1.1706    1.6759   -1.1534 H   0  0  0  0  0  0  0  0  0  0  0  0
   -4.5136   -2.5017   -0.1450 H   0  0  0  0  0  0  0  0  0  0  0  0
    2.3987   -3.8281    0.5063 H   0  0  0  0  0  0  0  0  0  0  0  0
    2.1172    0.8992   -1.9208 H   0  0  0  0  0  0  0  0  0  0  0  0
    4.2586    2.1029   -1.9876 H   0  0  0  0  0  0  0  0  0  0  0  0
    5.4803    0.1568    1.6197 H   0  0  0  0  0  0  0  0  0  0  0  0
    3.3406   -1.0490    1.7029 H   0  0  0  0  0  0  0  0  0  0  0  0
    6.1703    2.7207    0.2336 H   0  0  0  0  0  0  0  0  0  0  0  0
   -2.4758   -4.6560   -0.5602 H   0  0  0  0  0  0  0  0  0  0  0  0
   -4.8392    0.1448   -1.4996 H   0  0  0  0  0  0  0  0  0  0  0  0
   -4.0613    3.9661    0.1823 H   0  0  0  0  0  0  0  0  0  0  0  0
  1  2  1  0  0  0  0
  2  3  1  0  0  0  0
  2  4  1  0  0  0  0
  4  5  1  0  0  0  0
  5  6  1  0  0  0  0
  6  7  2  0  0  0  0
  7  8  1  0  0  0  0
  8  9  2  0  0  0  0
  9 10  1  0  0  0  0
 10 11  2  0  0  0  0
  6 11  1  0  0  0  0
 11 12  1  0  0  0  0
 12 13  1  0  0  0  0
 13 14  2  0  0  0  0
 14 15  1  0  0  0  0
 10 15  1  0  0  0  0
 15 16  2  0  0  0  0
 14 17  1  0  0  0  0
 13 18  1  0  0  0  0
 18 19  2  0  0  0  0
 19 20  1  0  0  0  0
 20 21  2  0  0  0  0
 21 22  1  0  0  0  0
 22 23  2  0  0  0  0
 18 23  1  0  0  0  0
 21 24  1  0  0  0  0
  9 25  1  0  0  0  0
  7 26  1  0  0  0  0
  2 27  1  0  0  0  0
  1 28  1  0  0  0  0
  1 29  1  0  0  0  0
  1 30  1  0  0  0  0
  3 31  1  0  0  0  0
  3 32  1  0  0  0  0
  3 33  1  0  0  0  0
  4 34  1  0  0  0  0
  4 35  1  0  0  0  0
  5 36  1  0  0  0  0
  5 37  1  0  0  0  0
  8 38  1  0  0  0  0
 17 39  1  0  0  0  0
 19 40  1  0  0  0  0
 20 41  1  0  0  0  0
 22 42  1  0  0  0  0
 23 43  1  0  0  0  0
 24 44  1  0  0  0  0
 25 45  1  0  0  0  0
 26 46  1  0  0  0  0
 27 47  1  0  0  0  0
M  END
$$$$
