C46H80O2
APtclcactv06281817463D 0   0.00000     0.00000
 
128132  0  0  0  0  0  0  0  0999 V2000
   20.2236   -1.2925   -0.2410 C   0  0  0  0  0  0  0  0  0  0  0  0
   18.8461   -1.8270   -0.6381 C   0  0  0  0  0  0  0  0  0  0  0  0
   17.7618   -0.8887   -0.1044 C   0  0  0  0  0  0  0  0  0  0  0  0
   16.3842   -1.4231   -0.5015 C   0  0  0  0  0  0  0  0  0  0  0  0
   15.2999   -0.4848    0.0322 C   0  0  0  0  0  0  0  0  0  0  0  0
   13.9224   -1.0193   -0.3649 C   0  0  0  0  0  0  0  0  0  0  0  0
   12.8381   -0.0809    0.1688 C   0  0  0  0  0  0  0  0  0  0  0  0
   11.4606   -0.6154   -0.2283 C   0  0  0  0  0  0  0  0  0  0  0  0
   10.3763    0.3229    0.3054 C   0  0  0  0  0  0  0  0  0  0  0  0
    8.9987   -0.2115   -0.0917 C   0  0  0  0  0  0  0  0  0  0  0  0
    7.9144    0.7268    0.4420 C   0  0  0  0  0  0  0  0  0  0  0  0
    6.5369    0.1923    0.0449 C   0  0  0  0  0  0  0  0  0  0  0  0
    5.4526    1.1307    0.5786 C   0  0  0  0  0  0  0  0  0  0  0  0
    4.0751    0.5962    0.1815 C   0  0  0  0  0  0  0  0  0  0  0  0
    2.9908    1.5345    0.7152 C   0  0  0  0  0  0  0  0  0  0  0  0
    1.6339    1.0081    0.3241 C   0  0  0  0  0  0  0  0  0  0  0  0
    1.5435   -0.0128   -0.3158 O   0  0  0  0  0  0  0  0  0  0  0  0
    0.5259    1.6734    0.6866 O   0  0  0  0  0  0  0  0  0  0  0  0
   -0.7512    1.1061    0.2738 C   0  0  0  0  0  0  0  0  0  0  0  0
   -1.2506    0.1517    1.3478 C   0  0  0  0  0  0  0  0  0  0  0  0
   -2.6234   -0.4126    0.9842 C   0  0  0  0  0  0  0  0  0  0  0  0
   -3.6285    0.7336    0.8250 C   0  0  0  0  0  0  0  0  0  0  0  0
   -5.0153    0.1713    0.5114 C   0  0  0  0  0  0  0  0  0  0  0  0
   -5.0603   -1.3459    0.5435 C   0  0  0  0  0  0  0  0  0  0  0  0
   -6.5213   -1.8144    0.4353 C   0  0  0  0  0  0  0  0  0  0  0  0
   -7.4330   -0.5945    0.3631 C   0  0  0  0  0  0  0  0  0  0  0  0
   -8.8589   -0.8286    0.6771 C   0  0  0  0  0  0  0  0  0  0  0  0
   -9.4884   -2.1534    1.0325 C   0  0  0  0  0  0  0  0  0  0  0  0
  -11.0185   -1.8714    0.9199 C   0  0  0  0  0  0  0  0  0  0  0  0
  -11.1616   -0.3771    0.5170 C   0  0  0  0  0  0  0  0  0  0  0  0
   -9.8520   -0.1425   -0.2799 C   0  0  0  0  0  0  0  0  0  0  0  0
   -9.4208    1.3004   -0.4036 C   0  0  0  0  0  0  0  0  0  0  0  0
   -8.0763    1.3885   -1.1338 C   0  0  0  0  0  0  0  0  0  0  0  0
   -7.1171    0.2491   -0.8564 C   0  0  0  0  0  0  0  0  0  0  0  0
   -5.6455    0.7388   -0.7488 C   0  0  0  0  0  0  0  0  0  0  0  0
   -5.5682    2.2553   -0.7222 C   0  0  0  0  0  0  0  0  0  0  0  0
   -4.1432    2.7821   -0.5482 C   0  0  0  0  0  0  0  0  0  0  0  0
   -3.1383    1.6933   -0.2367 C   0  0  0  0  0  0  0  0  0  0  0  0
   -1.7334    2.2366   -0.0209 C   0  0  0  0  0  0  0  0  0  0  0  0
   -1.6472    3.3299    1.0347 C   0  0  0  0  0  0  0  0  0  0  0  0
   -1.2699    2.8724   -1.3585 C   0  0  0  0  0  0  0  0  0  0  0  0
   -4.9814    0.1917   -2.0222 C   0  0  0  0  0  0  0  0  0  0  0  0
   -7.0811   -0.6443   -2.1224 C   0  0  0  0  0  0  0  0  0  0  0  0
  -10.0322   -0.7917   -1.6439 C   0  0  0  0  0  0  0  0  0  0  0  0
   -9.1184   -3.3027    0.1478 C   0  0  0  0  0  0  0  0  0  0  0  0
   -8.4592   -3.0880   -0.9636 C   0  0  0  0  0  0  0  0  0  0  0  0
   -9.5044   -4.7068    0.5357 C   0  0  0  0  0  0  0  0  0  0  0  0
   -3.7729    1.4306    2.1907 C   0  0  0  0  0  0  0  0  0  0  0  0
   20.2929   -1.2380    0.8454 H   0  0  0  0  0  0  0  0  0  0  0  0
   20.9961   -1.9610   -0.6212 H   0  0  0  0  0  0  0  0  0  0  0  0
   20.3633   -0.2979   -0.6644 H   0  0  0  0  0  0  0  0  0  0  0  0
   18.7768   -1.8816   -1.7245 H   0  0  0  0  0  0  0  0  0  0  0  0
   18.7064   -2.8216   -0.2147 H   0  0  0  0  0  0  0  0  0  0  0  0
   17.8310   -0.8341    0.9820 H   0  0  0  0  0  0  0  0  0  0  0  0
   17.9015    0.1060   -0.5278 H   0  0  0  0  0  0  0  0  0  0  0  0
   16.3150   -1.4777   -1.5879 H   0  0  0  0  0  0  0  0  0  0  0  0
   16.2446   -2.4178   -0.0781 H   0  0  0  0  0  0  0  0  0  0  0  0
   15.3692   -0.4302    1.1186 H   0  0  0  0  0  0  0  0  0  0  0  0
   15.4396    0.5098   -0.3912 H   0  0  0  0  0  0  0  0  0  0  0  0
   13.8532   -1.0738   -1.4513 H   0  0  0  0  0  0  0  0  0  0  0  0
   13.7827   -2.0139    0.0585 H   0  0  0  0  0  0  0  0  0  0  0  0
   12.9073   -0.0264    1.2552 H   0  0  0  0  0  0  0  0  0  0  0  0
   12.9778    0.9137   -0.2546 H   0  0  0  0  0  0  0  0  0  0  0  0
   11.3913   -0.6700   -1.3147 H   0  0  0  0  0  0  0  0  0  0  0  0
   11.3209   -1.6100    0.1951 H   0  0  0  0  0  0  0  0  0  0  0  0
   10.4455    0.3775    1.3918 H   0  0  0  0  0  0  0  0  0  0  0  0
   10.5160    1.3176   -0.1180 H   0  0  0  0  0  0  0  0  0  0  0  0
    8.9295   -0.2661   -1.1781 H   0  0  0  0  0  0  0  0  0  0  0  0
    8.8591   -1.2062    0.3317 H   0  0  0  0  0  0  0  0  0  0  0  0
    7.9837    0.7814    1.5284 H   0  0  0  0  0  0  0  0  0  0  0  0
    8.0541    1.7214    0.0186 H   0  0  0  0  0  0  0  0  0  0  0  0
    6.4677    0.1378   -1.0415 H   0  0  0  0  0  0  0  0  0  0  0  0
    6.3972   -0.8023    0.4683 H   0  0  0  0  0  0  0  0  0  0  0  0
    5.5218    1.1852    1.6650 H   0  0  0  0  0  0  0  0  0  0  0  0
    5.5923    2.1253    0.1552 H   0  0  0  0  0  0  0  0  0  0  0  0
    4.0058    0.5416   -0.9049 H   0  0  0  0  0  0  0  0  0  0  0  0
    3.9354   -0.3984    0.6049 H   0  0  0  0  0  0  0  0  0  0  0  0
    3.0600    1.5891    1.8016 H   0  0  0  0  0  0  0  0  0  0  0  0
    3.1305    2.5292    0.2918 H   0  0  0  0  0  0  0  0  0  0  0  0
   -0.5901    0.5404   -0.6572 H   0  0  0  0  0  0  0  0  0  0  0  0
   -0.5424   -0.6863    1.4403 H   0  0  0  0  0  0  0  0  0  0  0  0
   -1.2968    0.6534    2.3120 H   0  0  0  0  0  0  0  0  0  0  0  0
   -2.5552   -0.9625    0.0474 H   0  0  0  0  0  0  0  0  0  0  0  0
   -2.9597   -1.0831    1.7770 H   0  0  0  0  0  0  0  0  0  0  0  0
   -5.6286    0.5303    1.3769 H   0  0  0  0  0  0  0  0  0  0  0  0
   -4.4781   -1.7857   -0.2610 H   0  0  0  0  0  0  0  0  0  0  0  0
   -4.6613   -1.7073    1.4969 H   0  0  0  0  0  0  0  0  0  0  0  0
   -6.6397   -2.4757   -0.4097 H   0  0  0  0  0  0  0  0  0  0  0  0
   -6.7578   -2.3726    1.3519 H   0  0  0  0  0  0  0  0  0  0  0  0
   -7.1121    0.0337    1.2527 H   0  0  0  0  0  0  0  0  0  0  0  0
   -8.9927   -0.2302    1.6508 H   0  0  0  0  0  0  0  0  0  0  0  0
   -9.2554   -2.4107    2.0750 H   0  0  0  0  0  0  0  0  0  0  0  0
  -11.4451   -2.5148    0.1516 H   0  0  0  0  0  0  0  0  0  0  0  0
  -11.4993   -2.0615    1.8752 H   0  0  0  0  0  0  0  0  0  0  0  0
  -12.0175   -0.2487   -0.1477 H   0  0  0  0  0  0  0  0  0  0  0  0
  -11.2017    0.2761    1.3769 H   0  0  0  0  0  0  0  0  0  0  0  0
  -10.1903    1.8629   -0.9439 H   0  0  0  0  0  0  0  0  0  0  0  0
   -9.3402    1.7350    0.6001 H   0  0  0  0  0  0  0  0  0  0  0  0
   -8.2607    1.4324   -2.2217 H   0  0  0  0  0  0  0  0  0  0  0  0
   -7.6233    2.3555   -0.8870 H   0  0  0  0  0  0  0  0  0  0  0  0
   -5.9900    2.6755   -1.6359 H   0  0  0  0  0  0  0  0  0  0  0  0
   -6.1551    2.6215    0.1352 H   0  0  0  0  0  0  0  0  0  0  0  0
   -3.8586    3.3012   -1.4773 H   0  0  0  0  0  0  0  0  0  0  0  0
   -4.1487    3.5317    0.2480 H   0  0  0  0  0  0  0  0  0  0  0  0
   -3.0001    1.0909   -1.1658 H   0  0  0  0  0  0  0  0  0  0  0  0
   -1.8558    2.9044    2.0163 H   0  0  0  0  0  0  0  0  0  0  0  0
   -0.6459    3.7606    1.0308 H   0  0  0  0  0  0  0  0  0  0  0  0
   -2.3781    4.1075    0.8130 H   0  0  0  0  0  0  0  0  0  0  0  0
   -1.9518    3.6770   -1.6338 H   0  0  0  0  0  0  0  0  0  0  0  0
   -0.2633    3.2736   -1.2405 H   0  0  0  0  0  0  0  0  0  0  0  0
   -1.2692    2.1132   -2.1406 H   0  0  0  0  0  0  0  0  0  0  0  0
   -5.4994    0.5817   -2.8984 H   0  0  0  0  0  0  0  0  0  0  0  0
   -3.9369    0.5023   -2.0494 H   0  0  0  0  0  0  0  0  0  0  0  0
   -5.0369   -0.8969   -2.0220 H   0  0  0  0  0  0  0  0  0  0  0  0
   -6.7601   -0.0497   -2.9777 H   0  0  0  0  0  0  0  0  0  0  0  0
   -6.3815   -1.4657   -1.9678 H   0  0  0  0  0  0  0  0  0  0  0  0
   -8.0766   -1.0458   -2.3122 H   0  0  0  0  0  0  0  0  0  0  0  0
  -11.0395   -0.5937   -2.0103 H   0  0  0  0  0  0  0  0  0  0  0  0
   -9.3039   -0.3786   -2.3419 H   0  0  0  0  0  0  0  0  0  0  0  0
   -9.8822   -1.8678   -1.5568 H   0  0  0  0  0  0  0  0  0  0  0  0
   -8.1088   -2.0942   -1.2003 H   0  0  0  0  0  0  0  0  0  0  0  0
   -8.2660   -3.9048   -1.6433 H   0  0  0  0  0  0  0  0  0  0  0  0
  -10.4429   -4.9731    0.0495 H   0  0  0  0  0  0  0  0  0  0  0  0
   -8.7231   -5.3985    0.2210 H   0  0  0  0  0  0  0  0  0  0  0  0
   -9.6265   -4.7644    1.6173 H   0  0  0  0  0  0  0  0  0  0  0  0
   -2.7844    1.6704    2.5826 H   0  0  0  0  0  0  0  0  0  0  0  0
   -4.3487    2.3484    2.0711 H   0  0  0  0  0  0  0  0  0  0  0  0
   -4.2877    0.7665    2.8849 H   0  0  0  0  0  0  0  0  0  0  0  0
  1  2  1  0  0  0  0
  2  3  1  0  0  0  0
  3  4  1  0  0  0  0
  4  5  1  0  0  0  0
  5  6  1  0  0  0  0
  6  7  1  0  0  0  0
  7  8  1  0  0  0  0
  8  9  1  0  0  0  0
  9 10  1  0  0  0  0
 10 11  1  0  0  0  0
 11 12  1  0  0  0  0
 12 13  1  0  0  0  0
 13 14  1  0  0  0  0
 14 15  1  0  0  0  0
 15 16  1  0  0  0  0
 16 17  2  0  0  0  0
 16 18  1  0  0  0  0
 18 19  1  0  0  0  0
 19 20  1  0  0  0  0
 20 21  1  0  0  0  0
 21 22  1  0  0  0  0
 22 23  1  0  0  0  0
 23 24  1  0  0  0  0
 24 25  1  0  0  0  0
 25 26  1  0  0  0  0
 26 27  1  0  0  0  0
 27 28  1  0  0  0  0
 28 29  1  0  0  0  0
 29 30  1  0  0  0  0
 30 31  1  0  0  0  0
 27 31  1  0  0  0  0
 31 32  1  0  0  0  0
 32 33  1  0  0  0  0
 33 34  1  0  0  0  0
 26 34  1  0  0  0  0
 34 35  1  0  0  0  0
 23 35  1  0  0  0  0
 35 36  1  0  0  0  0
 36 37  1  0  0  0  0
 37 38  1  0  0  0  0
 22 38  1  0  0  0  0
 38 39  1  0  0  0  0
 19 39  1  0  0  0  0
 39 40  1  0  0  0  0
 39 41  1  0  0  0  0
 35 42  1  0  0  0  0
 34 43  1  0  0  0  0
 31 44  1  0  0  0  0
 28 45  1  0  0  0  0
 45 46  2  0  0  0  0
 45 47  1  0  0  0  0
 22 48  1  0  0  0  0
  1 49  1  0  0  0  0
  1 50  1  0  0  0  0
  1 51  1  0  0  0  0
  2 52  1  0  0  0  0
  2 53  1  0  0  0  0
  3 54  1  0  0  0  0
  3 55  1  0  0  0  0
  4 56  1  0  0  0  0
  4 57  1  0  0  0  0
  5 58  1  0  0  0  0
  5 59  1  0  0  0  0
  6 60  1  0  0  0  0
  6 61  1  0  0  0  0
  7 62  1  0  0  0  0
  7 63  1  0  0  0  0
  8 64  1  0  0  0  0
  8 65  1  0  0  0  0
  9 66  1  0  0  0  0
  9 67  1  0  0  0  0
 10 68  1  0  0  0  0
 10 69  1  0  0  0  0
 11 70  1  0  0  0  0
 11 71  1  0  0  0  0
 12 72  1  0  0  0  0
 12 73  1  0  0  0  0
 13 74  1  0  0  0  0
 13 75  1  0  0  0  0
 14 76  1  0  0  0  0
 14 77  1  0  0  0  0
 15 78  1  0  0  0  0
 15 79  1  0  0  0  0
 19 80  1  0  0  0  0
 20 81  1  0  0  0  0
 20 82  1  0  0  0  0
 21 83  1  0  0  0  0
 21 84  1  0  0  0  0
 23 85  1  0  0  0  0
 24 86  1  0  0  0  0
 24 87  1  0  0  0  0
 25 88  1  0  0  0  0
 25 89  1  0  0  0  0
 26 90  1  0  0  0  0
 27 91  1  0  0  0  0
 28 92  1  0  0  0  0
 29 93  1  0  0  0  0
 29 94  1  0  0  0  0
 30 95  1  0  0  0  0
 30 96  1  0  0  0  0
 32 97  1  0  0  0  0
 32 98  1  0  0  0  0
 33 99  1  0  0  0  0
 33100  1  0  0  0  0
 36101  1  0  0  0  0
 36102  1  0  0  0  0
 37103  1  0  0  0  0
 37104  1  0  0  0  0
 38105  1  0  0  0  0
 40106  1  0  0  0  0
 40107  1  0  0  0  0
 40108  1  0  0  0  0
 41109  1  0  0  0  0
 41110  1  0  0  0  0
 41111  1  0  0  0  0
 42112  1  0  0  0  0
 42113  1  0  0  0  0
 42114  1  0  0  0  0
 43115  1  0  0  0  0
 43116  1  0  0  0  0
 43117  1  0  0  0  0
 44118  1  0  0  0  0
 44119  1  0  0  0  0
 44120  1  0  0  0  0
 46121  1  0  0  0  0
 46122  1  0  0  0  0
 47123  1  0  0  0  0
 47124  1  0  0  0  0
 47125  1  0  0  0  0
 48126  1  0  0  0  0
 48127  1  0  0  0  0
 48128  1  0  0  0  0
M  END
$$$$
