C18H16O5
APtclcactv06281817463D 0   0.00000     0.00000
 
 39 41  0  0  0  0  0  0  0  0999 V2000
    5.8359    1.5177    0.5079 C   0  0  0  0  0  0  0  0  0  0  0  0
    5.0129    0.4192    0.1105 O   0  0  0  0  0  0  0  0  0  0  0  0
    3.6676    0.6226    0.1130 C   0  0  0  0  0  0  0  0  0  0  0  0
    2.8107   -0.4037   -0.2624 C   0  0  0  0  0  0  0  0  0  0  0  0
    1.4304   -0.1826   -0.2553 C   0  0  0  0  0  0  0  0  0  0  0  0
    0.9174    1.0675    0.1285 C   0  0  0  0  0  0  0  0  0  0  0  0
    1.7918    2.0790    0.5005 C   0  0  0  0  0  0  0  0  0  0  0  0
    3.1538    1.8539    0.4964 C   0  0  0  0  0  0  0  0  0  0  0  0
   -0.4175    1.2721    0.1315 O   0  0  0  0  0  0  0  0  0  0  0  0
   -1.2902    0.3160   -0.2228 C   0  0  0  0  0  0  0  0  0  0  0  0
   -0.8956   -0.9280   -0.6099 C   0  0  0  0  0  0  0  0  0  0  0  0
    0.4825   -1.2422   -0.6465 C   0  0  0  0  0  0  0  0  0  0  0  0
    0.8721   -2.3467   -0.9887 O   0  0  0  0  0  0  0  0  0  0  0  0
   -2.7315    0.6247   -0.1910 C   0  0  0  0  0  0  0  0  0  0  0  0
   -3.1929    1.8704   -0.6234 C   0  0  0  0  0  0  0  0  0  0  0  0
   -4.5419    2.1524   -0.5915 C   0  0  0  0  0  0  0  0  0  0  0  0
   -5.4428    1.2063   -0.1321 C   0  0  0  0  0  0  0  0  0  0  0  0
   -4.9999   -0.0293    0.2990 C   0  0  0  0  0  0  0  0  0  0  0  0
   -3.6478   -0.3324    0.2681 C   0  0  0  0  0  0  0  0  0  0  0  0
   -3.2115   -1.5458    0.6912 O   0  0  0  0  0  0  0  0  0  0  0  0
   -4.2015   -2.4651    1.1568 C   0  0  0  0  0  0  0  0  0  0  0  0
    3.3093   -1.6113   -0.6336 O   0  0  0  0  0  0  0  0  0  0  0  0
    3.4908   -2.5832    0.3982 C   0  0  0  0  0  0  0  0  0  0  0  0
    5.6659    2.3602   -0.1624 H   0  0  0  0  0  0  0  0  0  0  0  0
    5.5857    1.8088    1.5281 H   0  0  0  0  0  0  0  0  0  0  0  0
    6.8840    1.2220    0.4612 H   0  0  0  0  0  0  0  0  0  0  0  0
    1.4058    3.0432    0.7967 H   0  0  0  0  0  0  0  0  0  0  0  0
    3.8272    2.6465    0.7876 H   0  0  0  0  0  0  0  0  0  0  0  0
   -1.6300   -1.6699   -0.8867 H   0  0  0  0  0  0  0  0  0  0  0  0
   -2.4938    2.6114   -0.9819 H   0  0  0  0  0  0  0  0  0  0  0  0
   -4.8978    3.1157   -0.9261 H   0  0  0  0  0  0  0  0  0  0  0  0
   -6.4979    1.4359   -0.1102 H   0  0  0  0  0  0  0  0  0  0  0  0
   -5.7086   -0.7617    0.6562 H   0  0  0  0  0  0  0  0  0  0  0  0
   -4.7293   -2.0312    2.0061 H   0  0  0  0  0  0  0  0  0  0  0  0
   -4.9107   -2.6720    0.3554 H   0  0  0  0  0  0  0  0  0  0  0  0
   -3.7196   -3.3932    1.4642 H   0  0  0  0  0  0  0  0  0  0  0  0
    4.1854   -2.1961    1.1437 H   0  0  0  0  0  0  0  0  0  0  0  0
    2.5316   -2.7950    0.8706 H   0  0  0  0  0  0  0  0  0  0  0  0
    3.8938   -3.4996   -0.0328 H   0  0  0  0  0  0  0  0  0  0  0  0
  1  2  1  0  0  0  0
  2  3  1  0  0  0  0
  3  4  2  0  0  0  0
  4  5  1  0  0  0  0
  5  6  2  0  0  0  0
  6  7  1  0  0  0  0
  7  8  2  0  0  0  0
  3  8  1  0  0  0  0
  6  9  1  0  0  0  0
  9 10  1  0  0  0  0
 10 11  2  0  0  0  0
 11 12  1  0  0  0  0
  5 12  1  0  0  0  0
 12 13  2  0  0  0  0
 10 14  1  0  0  0  0
 14 15  2  0  0  0  0
 15 16  1  0  0  0  0
 16 17  2  0  0  0  0
 17 18  1  0  0  0  0
 18 19  2  0  0  0  0
 14 19  1  0  0  0  0
 19 20  1  0  0  0  0
 20 21  1  0  0  0  0
  4 22  1  0  0  0  0
 22 23  1  0  0  0  0
  1 24  1  0  0  0  0
  1 25  1  0  0  0  0
  1 26  1  0  0  0  0
  7 27  1  0  0  0  0
  8 28  1  0  0  0  0
 11 29  1  0  0  0  0
 15 30  1  0  0  0  0
 16 31  1  0  0  0  0
 17 32  1  0  0  0  0
 18 33  1  0  0  0  0
 21 34  1  0  0  0  0
 21 35  1  0  0  0  0
 21 36  1  0  0  0  0
 23 37  1  0  0  0  0
 23 38  1  0  0  0  0
 23 39  1  0  0  0  0
M  END
$$$$
