C26H42O4
APtclcactv06281817463D 0   0.00000     0.00000
 
 72 72  0  0  0  0  0  0  0  0999 V2000
   16.4951   -0.7387    0.0007 C   0  0  0  0  0  0  0  0  0  0  0  0
   15.2783    0.1887   -0.0038 C   0  0  0  0  0  0  0  0  0  0  0  0
   13.9982   -0.6494    0.0011 C   0  0  0  0  0  0  0  0  0  0  0  0
   12.7814    0.2781   -0.0035 C   0  0  0  0  0  0  0  0  0  0  0  0
   11.5014   -0.5600    0.0015 C   0  0  0  0  0  0  0  0  0  0  0  0
   10.2845    0.3674   -0.0031 C   0  0  0  0  0  0  0  0  0  0  0  0
    9.0045   -0.4707    0.0018 C   0  0  0  0  0  0  0  0  0  0  0  0
    7.7876    0.4567   -0.0027 C   0  0  0  0  0  0  0  0  0  0  0  0
    6.5076   -0.3814    0.0022 C   0  0  0  0  0  0  0  0  0  0  0  0
    5.2907    0.5461   -0.0024 C   0  0  0  0  0  0  0  0  0  0  0  0
    4.0107   -0.2920    0.0026 C   0  0  0  0  0  0  0  0  0  0  0  0
    2.7938    0.6354   -0.0020 C   0  0  0  0  0  0  0  0  0  0  0  0
    1.5138   -0.2027    0.0029 C   0  0  0  0  0  0  0  0  0  0  0  0
    0.2970    0.7247   -0.0016 C   0  0  0  0  0  0  0  0  0  0  0  0
   -0.9831   -0.1134    0.0033 C   0  0  0  0  0  0  0  0  0  0  0  0
   -2.1999    0.8141   -0.0012 C   0  0  0  0  0  0  0  0  0  0  0  0
   -3.3954    0.0313    0.0034 O   0  0  0  0  0  0  0  0  0  0  0  0
   -4.5665    0.7016    0.0002 C   0  0  0  0  0  0  0  0  0  0  0  0
   -4.5711    1.9180   -0.0064 O   0  0  0  0  0  0  0  0  0  0  0  0
   -5.7917   -0.0119    0.0044 C   0  0  0  0  0  0  0  0  0  0  0  0
   -6.9642    0.6592    0.0012 C   0  0  0  0  0  0  0  0  0  0  0  0
   -8.2341   -0.0804    0.0056 C   0  0  0  0  0  0  0  0  0  0  0  0
   -9.4502    0.6129    0.0023 C   0  0  0  0  0  0  0  0  0  0  0  0
  -10.6401   -0.0876    0.0060 C   0  0  0  0  0  0  0  0  0  0  0  0
  -10.6288   -1.4820    0.0134 C   0  0  0  0  0  0  0  0  0  0  0  0
   -9.4229   -2.1707    0.0172 C   0  0  0  0  0  0  0  0  0  0  0  0
   -8.2312   -1.4801    0.0073 C   0  0  0  0  0  0  0  0  0  0  0  0
  -11.8006   -2.1686    0.0175 O   0  0  0  0  0  0  0  0  0  0  0  0
  -11.8235    0.5826    0.0028 O   0  0  0  0  0  0  0  0  0  0  0  0
  -11.7605    2.0102   -0.0044 C   0  0  0  0  0  0  0  0  0  0  0  0
   16.4729   -1.3628    0.8941 H   0  0  0  0  0  0  0  0  0  0  0  0
   16.4723   -1.3724   -0.8859 H   0  0  0  0  0  0  0  0  0  0  0  0
   17.4070   -0.1416   -0.0028 H   0  0  0  0  0  0  0  0  0  0  0  0
   15.3011    0.8224    0.8827 H   0  0  0  0  0  0  0  0  0  0  0  0
   15.3005    0.8129   -0.8972 H   0  0  0  0  0  0  0  0  0  0  0  0
   13.9754   -1.2830   -0.8855 H   0  0  0  0  0  0  0  0  0  0  0  0
   13.9760   -1.2735    0.8944 H   0  0  0  0  0  0  0  0  0  0  0  0
   12.8042    0.9117    0.8831 H   0  0  0  0  0  0  0  0  0  0  0  0
   12.8036    0.9022   -0.8968 H   0  0  0  0  0  0  0  0  0  0  0  0
   11.4785   -1.1937   -0.8851 H   0  0  0  0  0  0  0  0  0  0  0  0
   11.4792   -1.1842    0.8948 H   0  0  0  0  0  0  0  0  0  0  0  0
   10.3073    1.0011    0.8835 H   0  0  0  0  0  0  0  0  0  0  0  0
   10.3067    0.9915   -0.8965 H   0  0  0  0  0  0  0  0  0  0  0  0
    8.9817   -1.1044   -0.8848 H   0  0  0  0  0  0  0  0  0  0  0  0
    8.9823   -1.0948    0.8952 H   0  0  0  0  0  0  0  0  0  0  0  0
    7.8104    1.0904    0.8839 H   0  0  0  0  0  0  0  0  0  0  0  0
    7.8098    1.0809   -0.8961 H   0  0  0  0  0  0  0  0  0  0  0  0
    6.4848   -1.0150   -0.8844 H   0  0  0  0  0  0  0  0  0  0  0  0
    6.4854   -1.0055    0.8955 H   0  0  0  0  0  0  0  0  0  0  0  0
    5.3135    1.1797    0.8842 H   0  0  0  0  0  0  0  0  0  0  0  0
    5.3129    1.1702   -0.8957 H   0  0  0  0  0  0  0  0  0  0  0  0
    3.9879   -0.9257   -0.8840 H   0  0  0  0  0  0  0  0  0  0  0  0
    3.9885   -0.9162    0.8959 H   0  0  0  0  0  0  0  0  0  0  0  0
    2.8167    1.2691    0.8846 H   0  0  0  0  0  0  0  0  0  0  0  0
    2.8160    1.2595   -0.8953 H   0  0  0  0  0  0  0  0  0  0  0  0
    1.4910   -0.8364   -0.8836 H   0  0  0  0  0  0  0  0  0  0  0  0
    1.4916   -0.8268    0.8963 H   0  0  0  0  0  0  0  0  0  0  0  0
    0.3198    1.3584    0.8850 H   0  0  0  0  0  0  0  0  0  0  0  0
    0.3192    1.3489   -0.8950 H   0  0  0  0  0  0  0  0  0  0  0  0
   -1.0059   -0.7470   -0.8833 H   0  0  0  0  0  0  0  0  0  0  0  0
   -1.0053   -0.7375    0.8967 H   0  0  0  0  0  0  0  0  0  0  0  0
   -2.1771    1.4478    0.8853 H   0  0  0  0  0  0  0  0  0  0  0  0
   -2.1777    1.4382   -0.8946 H   0  0  0  0  0  0  0  0  0  0  0  0
   -5.7876   -1.0919    0.0102 H   0  0  0  0  0  0  0  0  0  0  0  0
   -6.9682    1.7391   -0.0046 H   0  0  0  0  0  0  0  0  0  0  0  0
   -9.4577    1.6929   -0.0028 H   0  0  0  0  0  0  0  0  0  0  0  0
   -9.4195   -3.2507    0.0233 H   0  0  0  0  0  0  0  0  0  0  0  0
   -7.2949   -2.0184    0.0102 H   0  0  0  0  0  0  0  0  0  0  0  0
  -12.1403   -2.3721   -0.8647 H   0  0  0  0  0  0  0  0  0  0  0  0
  -11.2311    2.3550    0.8838 H   0  0  0  0  0  0  0  0  0  0  0  0
  -11.2313    2.3460   -0.8961 H   0  0  0  0  0  0  0  0  0  0  0  0
  -12.7712    2.4184   -0.0063 H   0  0  0  0  0  0  0  0  0  0  0  0
  1  2  1  0  0  0  0
  2  3  1  0  0  0  0
  3  4  1  0  0  0  0
  4  5  1  0  0  0  0
  5  6  1  0  0  0  0
  6  7  1  0  0  0  0
  7  8  1  0  0  0  0
  8  9  1  0  0  0  0
  9 10  1  0  0  0  0
 10 11  1  0  0  0  0
 11 12  1  0  0  0  0
 12 13  1  0  0  0  0
 13 14  1  0  0  0  0
 14 15  1  0  0  0  0
 15 16  1  0  0  0  0
 16 17  1  0  0  0  0
 17 18  1  0  0  0  0
 18 19  2  0  0  0  0
 18 20  1  0  0  0  0
 20 21  2  0  0  0  0
 21 22  1  0  0  0  0
 22 23  2  0  0  0  0
 23 24  1  0  0  0  0
 24 25  2  0  0  0  0
 25 26  1  0  0  0  0
 26 27  2  0  0  0  0
 22 27  1  0  0  0  0
 25 28  1  0  0  0  0
 24 29  1  0  0  0  0
 29 30  1  0  0  0  0
  1 31  1  0  0  0  0
  1 32  1  0  0  0  0
  1 33  1  0  0  0  0
  2 34  1  0  0  0  0
  2 35  1  0  0  0  0
  3 36  1  0  0  0  0
  3 37  1  0  0  0  0
  4 38  1  0  0  0  0
  4 39  1  0  0  0  0
  5 40  1  0  0  0  0
  5 41  1  0  0  0  0
  6 42  1  0  0  0  0
  6 43  1  0  0  0  0
  7 44  1  0  0  0  0
  7 45  1  0  0  0  0
  8 46  1  0  0  0  0
  8 47  1  0  0  0  0
  9 48  1  0  0  0  0
  9 49  1  0  0  0  0
 10 50  1  0  0  0  0
 10 51  1  0  0  0  0
 11 52  1  0  0  0  0
 11 53  1  0  0  0  0
 12 54  1  0  0  0  0
 12 55  1  0  0  0  0
 13 56  1  0  0  0  0
 13 57  1  0  0  0  0
 14 58  1  0  0  0  0
 14 59  1  0  0  0  0
 15 60  1  0  0  0  0
 15 61  1  0  0  0  0
 16 62  1  0  0  0  0
 16 63  1  0  0  0  0
 20 64  1  0  0  0  0
 21 65  1  0  0  0  0
 23 66  1  0  0  0  0
 26 67  1  0  0  0  0
 27 68  1  0  0  0  0
 28 69  1  0  0  0  0
 30 70  1  0  0  0  0
 30 71  1  0  0  0  0
 30 72  1  0  0  0  0
M  END
$$$$
