C20H18O12
APtclcactv06281817463D 0   0.00000     0.00000
 
 50 53  0  0  0  0  0  0  0  0999 V2000
    0.9948    2.4436    0.7049 C   0  0  0  0  0  0  0  0  0  0  0  0
    0.5760    1.6781   -0.3868 C   0  0  0  0  0  0  0  0  0  0  0  0
    1.3868    1.5814   -1.5210 C   0  0  0  0  0  0  0  0  0  0  0  0
    2.6004    2.2428   -1.5600 C   0  0  0  0  0  0  0  0  0  0  0  0
    3.0148    3.0045   -0.4711 C   0  0  0  0  0  0  0  0  0  0  0  0
    2.2094    3.1028    0.6600 C   0  0  0  0  0  0  0  0  0  0  0  0
    2.6174    3.8483    1.7217 O   0  0  0  0  0  0  0  0  0  0  0  0
    4.2087    3.6538   -0.5124 O   0  0  0  0  0  0  0  0  0  0  0  0
    3.3901    2.1488   -2.6632 O   0  0  0  0  0  0  0  0  0  0  0  0
   -0.7186    0.9736   -0.3419 C   0  0  0  0  0  0  0  0  0  0  0  0
   -0.7673   -0.3341   -0.7215 C   0  0  0  0  0  0  0  0  0  0  0  0
   -2.0055   -1.0262   -0.6839 C   0  0  0  0  0  0  0  0  0  0  0  0
   -2.0874   -2.1980   -1.0162 O   0  0  0  0  0  0  0  0  0  0  0  0
   -3.1869   -0.2764   -0.2282 C   0  0  0  0  0  0  0  0  0  0  0  0
   -4.4490   -0.8804   -0.1591 C   0  0  0  0  0  0  0  0  0  0  0  0
   -5.5344   -0.1420    0.2747 C   0  0  0  0  0  0  0  0  0  0  0  0
   -5.3726    1.1903    0.6389 C   0  0  0  0  0  0  0  0  0  0  0  0
   -4.1268    1.7947    0.5727 C   0  0  0  0  0  0  0  0  0  0  0  0
   -3.0261    1.0708    0.1411 C   0  0  0  0  0  0  0  0  0  0  0  0
   -1.8058    1.6435    0.0773 O   0  0  0  0  0  0  0  0  0  0  0  0
   -6.4453    1.9061    1.0630 O   0  0  0  0  0  0  0  0  0  0  0  0
   -4.6052   -2.1805   -0.5158 O   0  0  0  0  0  0  0  0  0  0  0  0
    0.3623   -0.9712   -1.1339 O   0  0  0  0  0  0  0  0  0  0  0  0
    0.8397   -2.0406   -0.3150 C   0  0  0  0  0  0  0  0  0  0  0  0
    1.9669   -2.7988   -1.0484 C   0  0  0  0  0  0  0  0  0  0  0  0
    2.9642   -3.1012    0.1032 C   0  0  0  0  0  0  0  0  0  0  0  0
    2.7866   -1.8395    0.9849 C   0  0  0  0  0  0  0  0  0  0  0  0
    1.3899   -1.5151    0.8985 O   0  0  0  0  0  0  0  0  0  0  0  0
    3.1722   -2.1454    2.4335 C   0  0  0  0  0  0  0  0  0  0  0  0
    3.1139   -0.9444    3.2057 O   0  0  0  0  0  0  0  0  0  0  0  0
    2.5879   -4.2828    0.8133 O   0  0  0  0  0  0  0  0  0  0  0  0
    1.4738   -4.0097   -1.6252 O   0  0  0  0  0  0  0  0  0  0  0  0
    0.3683    2.5239    1.5810 H   0  0  0  0  0  0  0  0  0  0  0  0
    1.0659    0.9903   -2.3660 H   0  0  0  0  0  0  0  0  0  0  0  0
    2.3375    4.7731    1.6838 H   0  0  0  0  0  0  0  0  0  0  0  0
    4.1563    4.5511   -0.8692 H   0  0  0  0  0  0  0  0  0  0  0  0
    3.2734    2.8729   -3.2933 H   0  0  0  0  0  0  0  0  0  0  0  0
   -6.5104   -0.6010    0.3306 H   0  0  0  0  0  0  0  0  0  0  0  0
   -4.0137    2.8302    0.8578 H   0  0  0  0  0  0  0  0  0  0  0  0
   -6.5922    1.8662    2.0180 H   0  0  0  0  0  0  0  0  0  0  0  0
   -4.4862   -2.8052    0.2127 H   0  0  0  0  0  0  0  0  0  0  0  0
    0.0222   -2.7243   -0.0863 H   0  0  0  0  0  0  0  0  0  0  0  0
    2.4298   -2.1671   -1.8066 H   0  0  0  0  0  0  0  0  0  0  0  0
    3.9849   -3.1783   -0.2712 H   0  0  0  0  0  0  0  0  0  0  0  0
    3.3903   -1.0189    0.5971 H   0  0  0  0  0  0  0  0  0  0  0  0
    2.4787   -2.8774    2.8473 H   0  0  0  0  0  0  0  0  0  0  0  0
    4.1850   -2.5473    2.4628 H   0  0  0  0  0  0  0  0  0  0  0  0
    3.3467   -1.0637    4.1367 H   0  0  0  0  0  0  0  0  0  0  0  0
    2.6441   -5.0924    0.2874 H   0  0  0  0  0  0  0  0  0  0  0  0
    0.7831   -3.8765   -2.2887 H   0  0  0  0  0  0  0  0  0  0  0  0
  1  2  2  0  0  0  0
  2  3  1  0  0  0  0
  3  4  2  0  0  0  0
  4  5  1  0  0  0  0
  5  6  2  0  0  0  0
  1  6  1  0  0  0  0
  6  7  1  0  0  0  0
  5  8  1  0  0  0  0
  4  9  1  0  0  0  0
  2 10  1  0  0  0  0
 10 11  2  0  0  0  0
 11 12  1  0  0  0  0
 12 13  2  0  0  0  0
 12 14  1  0  0  0  0
 14 15  2  0  0  0  0
 15 16  1  0  0  0  0
 16 17  2  0  0  0  0
 17 18  1  0  0  0  0
 18 19  2  0  0  0  0
 14 19  1  0  0  0  0
 19 20  1  0  0  0  0
 10 20  1  0  0  0  0
 17 21  1  0  0  0  0
 15 22  1  0  0  0  0
 11 23  1  0  0  0  0
 23 24  1  0  0  0  0
 24 25  1  0  0  0  0
 25 26  1  0  0  0  0
 26 27  1  0  0  0  0
 27 28  1  0  0  0  0
 24 28  1  0  0  0  0
 27 29  1  0  0  0  0
 29 30  1  0  0  0  0
 26 31  1  0  0  0  0
 25 32  1  0  0  0  0
  1 33  1  0  0  0  0
  3 34  1  0  0  0  0
  7 35  1  0  0  0  0
  8 36  1  0  0  0  0
  9 37  1  0  0  0  0
 16 38  1  0  0  0  0
 18 39  1  0  0  0  0
 21 40  1  0  0  0  0
 22 41  1  0  0  0  0
 24 42  1  0  0  0  0
 25 43  1  0  0  0  0
 26 44  1  0  0  0  0
 27 45  1  0  0  0  0
 29 46  1  0  0  0  0
 29 47  1  0  0  0  0
 30 48  1  0  0  0  0
 31 49  1  0  0  0  0
 32 50  1  0  0  0  0
M  END
$$$$
