C10H16O
APtclcactv06211806073D 0   0.00000     0.00000
 
 27 28  0  0  0  0  0  0  0  0999 V2000
   -2.0321   -0.7823    1.1740 C   0  0  0  0  0  0  0  0  0  0  0  0
   -1.1802   -0.0792    0.1153 C   0  0  0  0  0  0  0  0  0  0  0  0
   -0.5563    1.2253    0.6995 C   0  0  0  0  0  0  0  0  0  0  0  0
    0.0683    1.9414   -0.5375 C   0  0  0  0  0  0  0  0  0  0  0  0
    1.2642    1.0472   -0.9383 C   0  0  0  0  0  0  0  0  0  0  0  0
    1.2502   -0.1158    0.1002 C   0  0  0  0  0  0  0  0  0  0  0  0
    0.7338    0.6386    1.3756 C   0  0  0  0  0  0  0  0  0  0  0  0
    0.0115   -0.9453   -0.2661 C   0  0  0  0  0  0  0  0  0  0  0  0
   -0.0123   -2.0501   -0.7532 O   0  0  0  0  0  0  0  0  0  0  0  0
    2.5632   -0.8854    0.2577 C   0  0  0  0  0  0  0  0  0  0  0  0
   -2.0250    0.2414   -1.1194 C   0  0  0  0  0  0  0  0  0  0  0  0
   -2.8341   -0.1176    1.4951 H   0  0  0  0  0  0  0  0  0  0  0  0
   -2.4606   -1.6909    0.7510 H   0  0  0  0  0  0  0  0  0  0  0  0
   -1.4084   -1.0392    2.0303 H   0  0  0  0  0  0  0  0  0  0  0  0
   -1.2114    1.8323    1.3243 H   0  0  0  0  0  0  0  0  0  0  0  0
   -0.6552    1.9963   -1.3509 H   0  0  0  0  0  0  0  0  0  0  0  0
    0.4132    2.9390   -0.2658 H   0  0  0  0  0  0  0  0  0  0  0  0
    1.1266    0.6578   -1.9470 H   0  0  0  0  0  0  0  0  0  0  0  0
    2.1971    1.6068   -0.8698 H   0  0  0  0  0  0  0  0  0  0  0  0
    1.4213    1.4217    1.6951 H   0  0  0  0  0  0  0  0  0  0  0  0
    0.4948   -0.0469    2.1886 H   0  0  0  0  0  0  0  0  0  0  0  0
    3.3531   -0.1980    0.5605 H   0  0  0  0  0  0  0  0  0  0  0  0
    2.4428   -1.6578    1.0173 H   0  0  0  0  0  0  0  0  0  0  0  0
    2.8291   -1.3485   -0.6925 H   0  0  0  0  0  0  0  0  0  0  0  0
   -2.7574    1.0089   -0.8692 H   0  0  0  0  0  0  0  0  0  0  0  0
   -1.3779    0.6032   -1.9184 H   0  0  0  0  0  0  0  0  0  0  0  0
   -2.5416   -0.6597   -1.4501 H   0  0  0  0  0  0  0  0  0  0  0  0
  1  2  1  0  0  0  0
  2  3  1  0  0  0  0
  3  4  1  0  0  0  0
  4  5  1  0  0  0  0
  5  6  1  0  0  0  0
  6  7  1  0  0  0  0
  3  7  1  0  0  0  0
  6  8  1  0  0  0  0
  2  8  1  0  0  0  0
  8  9  2  0  0  0  0
  6 10  1  0  0  0  0
  2 11  1  0  0  0  0
  1 12  1  0  0  0  0
  1 13  1  0  0  0  0
  1 14  1  0  0  0  0
  3 15  1  0  0  0  0
  4 16  1  0  0  0  0
  4 17  1  0  0  0  0
  5 18  1  0  0  0  0
  5 19  1  0  0  0  0
  7 20  1  0  0  0  0
  7 21  1  0  0  0  0
 10 22  1  0  0  0  0
 10 23  1  0  0  0  0
 10 24  1  0  0  0  0
 11 25  1  0  0  0  0
 11 26  1  0  0  0  0
 11 27  1  0  0  0  0
M  END
$$$$
