C22H24O10
APtclcactv06281817463D 0   0.00000     0.00000
 
 56 58  0  0  0  0  0  0  0  0999 V2000
    3.3751    4.9914    1.4724 C   0  0  0  0  0  0  0  0  0  0  0  0
    3.2574    3.5713    1.5801 O   0  0  0  0  0  0  0  0  0  0  0  0
    2.2449    2.9832    0.8937 C   0  0  0  0  0  0  0  0  0  0  0  0
    1.3832    3.7618    0.1322 C   0  0  0  0  0  0  0  0  0  0  0  0
    0.3488    3.1705   -0.5698 C   0  0  0  0  0  0  0  0  0  0  0  0
    0.1713    1.7789   -0.5114 C   0  0  0  0  0  0  0  0  0  0  0  0
    1.0475    0.9988    0.2607 C   0  0  0  0  0  0  0  0  0  0  0  0
    2.0797    1.6051    0.9524 C   0  0  0  0  0  0  0  0  0  0  0  0
    0.8842   -0.3467    0.3241 O   0  0  0  0  0  0  0  0  0  0  0  0
    1.8129   -1.0757    1.1290 C   0  0  0  0  0  0  0  0  0  0  0  0
    1.3989   -2.5488    1.1789 C   0  0  0  0  0  0  0  0  0  0  0  0
    1.4505   -3.1338   -0.2358 C   0  0  0  0  0  0  0  0  0  0  0  0
    2.8607   -2.9452   -0.8033 C   0  0  0  0  0  0  0  0  0  0  0  0
    3.2183   -1.4569   -0.7766 C   0  0  0  0  0  0  0  0  0  0  0  0
    3.1207   -0.9688    0.5629 O   0  0  0  0  0  0  0  0  0  0  0  0
    4.6484   -1.2666   -1.2861 C   0  0  0  0  0  0  0  0  0  0  0  0
    4.9418    0.1294   -1.3714 O   0  0  0  0  0  0  0  0  0  0  0  0
    3.7970   -3.6756   -0.0083 O   0  0  0  0  0  0  0  0  0  0  0  0
    1.1365   -4.5271   -0.1887 O   0  0  0  0  0  0  0  0  0  0  0  0
    2.2964   -3.2686    2.0264 O   0  0  0  0  0  0  0  0  0  0  0  0
   -0.9270    1.1413   -1.2549 C   0  0  0  0  0  0  0  0  0  0  0  0
   -0.7758    0.8398   -2.4257 O   0  0  0  0  0  0  0  0  0  0  0  0
   -2.2003    0.8695   -0.5882 C   0  0  0  0  0  0  0  0  0  0  0  0
   -3.1712    0.1907   -1.2374 C   0  0  0  0  0  0  0  0  0  0  0  0
   -4.4504   -0.0824   -0.5677 C   0  0  0  0  0  0  0  0  0  0  0  0
   -5.4583   -0.7856   -1.2382 C   0  0  0  0  0  0  0  0  0  0  0  0
   -6.6545   -1.0392   -0.6062 C   0  0  0  0  0  0  0  0  0  0  0  0
   -6.8628   -0.5983    0.6958 C   0  0  0  0  0  0  0  0  0  0  0  0
   -5.8652    0.1005    1.3663 C   0  0  0  0  0  0  0  0  0  0  0  0
   -4.6633    0.3547    0.7452 C   0  0  0  0  0  0  0  0  0  0  0  0
   -8.0444   -0.8506    1.3145 O   0  0  0  0  0  0  0  0  0  0  0  0
   -0.4925    3.9330   -1.3126 O   0  0  0  0  0  0  0  0  0  0  0  0
    4.2223    5.3319    2.0678 H   0  0  0  0  0  0  0  0  0  0  0  0
    3.5310    5.2649    0.4289 H   0  0  0  0  0  0  0  0  0  0  0  0
    2.4619    5.4605    1.8385 H   0  0  0  0  0  0  0  0  0  0  0  0
    1.5211    4.8321    0.0883 H   0  0  0  0  0  0  0  0  0  0  0  0
    2.7546    1.0066    1.5463 H   0  0  0  0  0  0  0  0  0  0  0  0
    1.8191   -0.6655    2.1388 H   0  0  0  0  0  0  0  0  0  0  0  0
    0.3844   -2.6289    1.5694 H   0  0  0  0  0  0  0  0  0  0  0  0
    0.7301   -2.6176   -0.8703 H   0  0  0  0  0  0  0  0  0  0  0  0
    2.8917   -3.3090   -1.8303 H   0  0  0  0  0  0  0  0  0  0  0  0
    2.5283   -0.9058   -1.4155 H   0  0  0  0  0  0  0  0  0  0  0  0
    5.3460   -1.7430   -0.5972 H   0  0  0  0  0  0  0  0  0  0  0  0
    4.7459   -1.7193   -2.2728 H   0  0  0  0  0  0  0  0  0  0  0  0
    5.8342    0.3251   -1.6882 H   0  0  0  0  0  0  0  0  0  0  0  0
    3.6277   -4.6272    0.0239 H   0  0  0  0  0  0  0  0  0  0  0  0
    0.2586   -4.7206    0.1676 H   0  0  0  0  0  0  0  0  0  0  0  0
    2.3187   -2.9479    2.9384 H   0  0  0  0  0  0  0  0  0  0  0  0
   -2.3643    1.2114    0.4230 H   0  0  0  0  0  0  0  0  0  0  0  0
   -3.0073   -0.1512   -2.2486 H   0  0  0  0  0  0  0  0  0  0  0  0
   -5.2977   -1.1282   -2.2498 H   0  0  0  0  0  0  0  0  0  0  0  0
   -7.4328   -1.5813   -1.1227 H   0  0  0  0  0  0  0  0  0  0  0  0
   -6.0320    0.4408    2.3776 H   0  0  0  0  0  0  0  0  0  0  0  0
   -3.8890    0.8976    1.2669 H   0  0  0  0  0  0  0  0  0  0  0  0
   -8.0621   -1.6847    1.8033 H   0  0  0  0  0  0  0  0  0  0  0  0
   -0.2061    4.0573   -2.2278 H   0  0  0  0  0  0  0  0  0  0  0  0
  1  2  1  0  0  0  0
  2  3  1  0  0  0  0
  3  4  2  0  0  0  0
  4  5  1  0  0  0  0
  5  6  2  0  0  0  0
  6  7  1  0  0  0  0
  7  8  2  0  0  0  0
  3  8  1  0  0  0  0
  7  9  1  0  0  0  0
  9 10  1  0  0  0  0
 10 11  1  0  0  0  0
 11 12  1  0  0  0  0
 12 13  1  0  0  0  0
 13 14  1  0  0  0  0
 14 15  1  0  0  0  0
 10 15  1  0  0  0  0
 14 16  1  0  0  0  0
 16 17  1  0  0  0  0
 13 18  1  0  0  0  0
 12 19  1  0  0  0  0
 11 20  1  0  0  0  0
  6 21  1  0  0  0  0
 21 22  2  0  0  0  0
 21 23  1  0  0  0  0
 23 24  2  0  0  0  0
 24 25  1  0  0  0  0
 25 26  2  0  0  0  0
 26 27  1  0  0  0  0
 27 28  2  0  0  0  0
 28 29  1  0  0  0  0
 29 30  2  0  0  0  0
 25 30  1  0  0  0  0
 28 31  1  0  0  0  0
  5 32  1  0  0  0  0
  1 33  1  0  0  0  0
  1 34  1  0  0  0  0
  1 35  1  0  0  0  0
  4 36  1  0  0  0  0
  8 37  1  0  0  0  0
 10 38  1  0  0  0  0
 11 39  1  0  0  0  0
 12 40  1  0  0  0  0
 13 41  1  0  0  0  0
 14 42  1  0  0  0  0
 16 43  1  0  0  0  0
 16 44  1  0  0  0  0
 17 45  1  0  0  0  0
 18 46  1  0  0  0  0
 19 47  1  0  0  0  0
 20 48  1  0  0  0  0
 23 49  1  0  0  0  0
 24 50  1  0  0  0  0
 26 51  1  0  0  0  0
 27 52  1  0  0  0  0
 29 53  1  0  0  0  0
 30 54  1  0  0  0  0
 31 55  1  0  0  0  0
 32 56  1  0  0  0  0
M  END
$$$$
