C25H28O5
APtclcactv06281817473D 0   0.00000     0.00000
 
 58 59  0  0  0  0  0  0  0  0999 V2000
    5.6156   -1.4543   -2.7711 C   0  0  0  0  0  0  0  0  0  0  0  0
    6.5565   -2.3087   -1.9614 C   0  0  0  0  0  0  0  0  0  0  0  0
    6.6283   -2.1540   -0.6625 C   0  0  0  0  0  0  0  0  0  0  0  0
    5.7701   -1.1215    0.0219 C   0  0  0  0  0  0  0  0  0  0  0  0
    4.9504   -1.7910    1.1269 C   0  0  0  0  0  0  0  0  0  0  0  0
    4.0922   -0.7585    1.8113 C   0  0  0  0  0  0  0  0  0  0  0  0
    2.8515   -0.5810    1.4300 C   0  0  0  0  0  0  0  0  0  0  0  0
    1.9660    0.3861    2.1727 C   0  0  0  0  0  0  0  0  0  0  0  0
    1.3744    1.3738    1.2004 C   0  0  0  0  0  0  0  0  0  0  0  0
    2.1331    2.4559    0.7637 C   0  0  0  0  0  0  0  0  0  0  0  0
    1.5976    3.3716   -0.1313 C   0  0  0  0  0  0  0  0  0  0  0  0
    0.3042    3.2122   -0.5949 C   0  0  0  0  0  0  0  0  0  0  0  0
   -0.4645    2.1196   -0.1558 C   0  0  0  0  0  0  0  0  0  0  0  0
    0.0888    1.1993    0.7437 C   0  0  0  0  0  0  0  0  0  0  0  0
   -1.8370    1.9419   -0.6409 C   0  0  0  0  0  0  0  0  0  0  0  0
   -2.5739    0.8892   -0.2162 C   0  0  0  0  0  0  0  0  0  0  0  0
   -3.9003    0.7174   -0.6850 C   0  0  0  0  0  0  0  0  0  0  0  0
   -4.3772    1.5175   -1.4705 O   0  0  0  0  0  0  0  0  0  0  0  0
   -4.7032   -0.4296   -0.2222 C   0  0  0  0  0  0  0  0  0  0  0  0
   -6.0167   -0.6023   -0.6845 C   0  0  0  0  0  0  0  0  0  0  0  0
   -6.7635   -1.6818   -0.2450 C   0  0  0  0  0  0  0  0  0  0  0  0
   -6.2137   -2.5880    0.6496 C   0  0  0  0  0  0  0  0  0  0  0  0
   -4.9110   -2.4177    1.1095 C   0  0  0  0  0  0  0  0  0  0  0  0
   -4.1566   -1.3527    0.6749 C   0  0  0  0  0  0  0  0  0  0  0  0
   -6.9492   -3.6450    1.0787 O   0  0  0  0  0  0  0  0  0  0  0  0
   -6.5530    0.2857   -1.5589 O   0  0  0  0  0  0  0  0  0  0  0  0
   -0.2209    4.1067   -1.4696 O   0  0  0  0  0  0  0  0  0  0  0  0
    3.4027    2.6167    1.2157 O   0  0  0  0  0  0  0  0  0  0  0  0
    4.6611    0.0697    2.9344 C   0  0  0  0  0  0  0  0  0  0  0  0
    7.4148   -3.3412   -2.6458 C   0  0  0  0  0  0  0  0  0  0  0  0
    5.8790   -0.4041   -2.6452 H   0  0  0  0  0  0  0  0  0  0  0  0
    5.6941   -1.7249   -3.8241 H   0  0  0  0  0  0  0  0  0  0  0  0
    4.5931   -1.6159   -2.4297 H   0  0  0  0  0  0  0  0  0  0  0  0
    7.3026   -2.7663   -0.0822 H   0  0  0  0  0  0  0  0  0  0  0  0
    6.4063   -0.3511    0.4575 H   0  0  0  0  0  0  0  0  0  0  0  0
    5.0970   -0.6683   -0.7059 H   0  0  0  0  0  0  0  0  0  0  0  0
    4.3142   -2.5614    0.6913 H   0  0  0  0  0  0  0  0  0  0  0  0
    5.6235   -2.2442    1.8546 H   0  0  0  0  0  0  0  0  0  0  0  0
    2.4633   -1.1278    0.5834 H   0  0  0  0  0  0  0  0  0  0  0  0
    1.1640   -0.1618    2.6672 H   0  0  0  0  0  0  0  0  0  0  0  0
    2.5555    0.9192    2.9186 H   0  0  0  0  0  0  0  0  0  0  0  0
    2.1912    4.2095   -0.4658 H   0  0  0  0  0  0  0  0  0  0  0  0
   -0.4963    0.3578    1.0844 H   0  0  0  0  0  0  0  0  0  0  0  0
   -2.2597    2.6511   -1.3372 H   0  0  0  0  0  0  0  0  0  0  0  0
   -2.1511    0.1800    0.4801 H   0  0  0  0  0  0  0  0  0  0  0  0
   -7.7748   -1.8182   -0.5986 H   0  0  0  0  0  0  0  0  0  0  0  0
   -4.4895   -3.1268    1.8066 H   0  0  0  0  0  0  0  0  0  0  0  0
   -3.1463   -1.2240    1.0340 H   0  0  0  0  0  0  0  0  0  0  0  0
   -6.8610   -4.4349    0.5280 H   0  0  0  0  0  0  0  0  0  0  0  0
   -6.4071    0.0601   -2.4879 H   0  0  0  0  0  0  0  0  0  0  0  0
   -0.0715    3.8829   -2.3984 H   0  0  0  0  0  0  0  0  0  0  0  0
    4.0722    2.1796    0.6718 H   0  0  0  0  0  0  0  0  0  0  0  0
    5.0240    1.0183    2.5386 H   0  0  0  0  0  0  0  0  0  0  0  0
    3.8849    0.2586    3.6759 H   0  0  0  0  0  0  0  0  0  0  0  0
    5.4861   -0.4686    3.4010 H   0  0  0  0  0  0  0  0  0  0  0  0
    8.3641   -2.8905   -2.9353 H   0  0  0  0  0  0  0  0  0  0  0  0
    7.5995   -4.1706   -1.9631 H   0  0  0  0  0  0  0  0  0  0  0  0
    6.9015   -3.7093   -3.5342 H   0  0  0  0  0  0  0  0  0  0  0  0
  1  2  1  0  0  0  0
  2  3  2  0  0  0  0
  3  4  1  0  0  0  0
  4  5  1  0  0  0  0
  5  6  1  0  0  0  0
  6  7  2  0  0  0  0
  7  8  1  0  0  0  0
  8  9  1  0  0  0  0
  9 10  2  0  0  0  0
 10 11  1  0  0  0  0
 11 12  2  0  0  0  0
 12 13  1  0  0  0  0
 13 14  2  0  0  0  0
  9 14  1  0  0  0  0
 13 15  1  0  0  0  0
 15 16  2  0  0  0  0
 16 17  1  0  0  0  0
 17 18  2  0  0  0  0
 17 19  1  0  0  0  0
 19 20  2  0  0  0  0
 20 21  1  0  0  0  0
 21 22  2  0  0  0  0
 22 23  1  0  0  0  0
 23 24  2  0  0  0  0
 19 24  1  0  0  0  0
 22 25  1  0  0  0  0
 20 26  1  0  0  0  0
 12 27  1  0  0  0  0
 10 28  1  0  0  0  0
  6 29  1  0  0  0  0
  2 30  1  0  0  0  0
  1 31  1  0  0  0  0
  1 32  1  0  0  0  0
  1 33  1  0  0  0  0
  3 34  1  0  0  0  0
  4 35  1  0  0  0  0
  4 36  1  0  0  0  0
  5 37  1  0  0  0  0
  5 38  1  0  0  0  0
  7 39  1  0  0  0  0
  8 40  1  0  0  0  0
  8 41  1  0  0  0  0
 11 42  1  0  0  0  0
 14 43  1  0  0  0  0
 15 44  1  0  0  0  0
 16 45  1  0  0  0  0
 21 46  1  0  0  0  0
 23 47  1  0  0  0  0
 24 48  1  0  0  0  0
 25 49  1  0  0  0  0
 26 50  1  0  0  0  0
 27 51  1  0  0  0  0
 28 52  1  0  0  0  0
 29 53  1  0  0  0  0
 29 54  1  0  0  0  0
 29 55  1  0  0  0  0
 30 56  1  0  0  0  0
 30 57  1  0  0  0  0
 30 58  1  0  0  0  0
M  END
$$$$
