C30H32O7
APtclcactv06281817473D 0   0.00000     0.00000
 
 69 72  0  0  0  0  0  0  0  0999 V2000
   -1.0543    2.2490   -2.3034 C   0  0  0  0  0  0  0  0  0  0  0  0
   -0.0065    1.3467   -2.9027 C   0  0  0  0  0  0  0  0  0  0  0  0
    1.1744    1.2528   -2.3435 C   0  0  0  0  0  0  0  0  0  0  0  0
    1.4410    1.9350   -1.0265 C   0  0  0  0  0  0  0  0  0  0  0  0
    1.9680    0.9281   -0.0368 C   0  0  0  0  0  0  0  0  0  0  0  0
    3.3239    0.6383    0.0100 C   0  0  0  0  0  0  0  0  0  0  0  0
    4.2850    1.3003   -0.8996 C   0  0  0  0  0  0  0  0  0  0  0  0
    5.4913    0.7557   -1.0402 C   0  0  0  0  0  0  0  0  0  0  0  0
    5.8401   -0.5056   -0.2951 C   0  0  0  0  0  0  0  0  0  0  0  0
    5.1473   -0.5596    0.9525 O   0  0  0  0  0  0  0  0  0  0  0  0
    3.8149   -0.2987    0.9318 C   0  0  0  0  0  0  0  0  0  0  0  0
    2.9416   -0.9401    1.8009 C   0  0  0  0  0  0  0  0  0  0  0  0
    1.5889   -0.6538    1.7564 C   0  0  0  0  0  0  0  0  0  0  0  0
    1.0955    0.2843    0.8439 C   0  0  0  0  0  0  0  0  0  0  0  0
   -0.3479    0.5841    0.8025 C   0  0  0  0  0  0  0  0  0  0  0  0
   -0.7702    1.8276    1.1651 C   0  0  0  0  0  0  0  0  0  0  0  0
   -2.1559    2.1317    1.1306 C   0  0  0  0  0  0  0  0  0  0  0  0
   -2.5712    3.2349    1.4479 O   0  0  0  0  0  0  0  0  0  0  0  0
   -3.0726    1.0653    0.6971 C   0  0  0  0  0  0  0  0  0  0  0  0
   -2.5316   -0.1832    0.3442 C   0  0  0  0  0  0  0  0  0  0  0  0
   -1.1975   -0.3778    0.4033 O   0  0  0  0  0  0  0  0  0  0  0  0
   -3.3789   -1.2011   -0.0669 C   0  0  0  0  0  0  0  0  0  0  0  0
   -4.7462   -0.9836   -0.1280 C   0  0  0  0  0  0  0  0  0  0  0  0
   -5.2842    0.2511    0.2201 C   0  0  0  0  0  0  0  0  0  0  0  0
   -4.4563    1.2776    0.6337 C   0  0  0  0  0  0  0  0  0  0  0  0
   -4.9793    2.4828    0.9740 O   0  0  0  0  0  0  0  0  0  0  0  0
   -5.5687   -1.9853   -0.5319 O   0  0  0  0  0  0  0  0  0  0  0  0
   -2.8125   -2.5446   -0.4480 C   0  0  0  0  0  0  0  0  0  0  0  0
   -3.2723   -3.5972    0.5626 C   0  0  0  0  0  0  0  0  0  0  0  0
   -3.3058   -2.9285   -1.8445 C   0  0  0  0  0  0  0  0  0  0  0  0
   -1.3072   -2.4730   -0.4491 C   0  0  0  0  0  0  0  0  0  0  0  0
   -0.6139   -3.2508    0.3450 C   0  0  0  0  0  0  0  0  0  0  0  0
    0.1294    2.7703    1.5575 O   0  0  0  0  0  0  0  0  0  0  0  0
    3.4160   -1.8491    2.6945 O   0  0  0  0  0  0  0  0  0  0  0  0
    5.4479   -1.7173   -1.1430 C   0  0  0  0  0  0  0  0  0  0  0  0
    7.3478   -0.5384   -0.0368 C   0  0  0  0  0  0  0  0  0  0  0  0
   -0.3172    0.5525   -4.1452 C   0  0  0  0  0  0  0  0  0  0  0  0
   -0.6530    3.2578   -2.2068 H   0  0  0  0  0  0  0  0  0  0  0  0
   -1.9312    2.2673   -2.9506 H   0  0  0  0  0  0  0  0  0  0  0  0
   -1.3367    1.8744   -1.3195 H   0  0  0  0  0  0  0  0  0  0  0  0
    1.9571    0.6865   -2.8265 H   0  0  0  0  0  0  0  0  0  0  0  0
    2.1786    2.7248   -1.1691 H   0  0  0  0  0  0  0  0  0  0  0  0
    0.5149    2.3670   -0.6471 H   0  0  0  0  0  0  0  0  0  0  0  0
    4.0154    2.1992   -1.4341 H   0  0  0  0  0  0  0  0  0  0  0  0
    6.2201    1.2184   -1.6891 H   0  0  0  0  0  0  0  0  0  0  0  0
    0.9112   -1.1537    2.4327 H   0  0  0  0  0  0  0  0  0  0  0  0
   -6.3515    0.4077    0.1678 H   0  0  0  0  0  0  0  0  0  0  0  0
   -5.2121    2.5605    1.9094 H   0  0  0  0  0  0  0  0  0  0  0  0
   -5.9573   -2.4921    0.1942 H   0  0  0  0  0  0  0  0  0  0  0  0
   -4.3522   -3.7253    0.4879 H   0  0  0  0  0  0  0  0  0  0  0  0
   -2.7784   -4.5454    0.3498 H   0  0  0  0  0  0  0  0  0  0  0  0
   -3.0139   -3.2710    1.5700 H   0  0  0  0  0  0  0  0  0  0  0  0
   -2.9782   -2.1786   -2.5645 H   0  0  0  0  0  0  0  0  0  0  0  0
   -2.8961   -3.9002   -2.1202 H   0  0  0  0  0  0  0  0  0  0  0  0
   -4.3946   -2.9802   -1.8437 H   0  0  0  0  0  0  0  0  0  0  0  0
   -0.7999   -1.7806   -1.1045 H   0  0  0  0  0  0  0  0  0  0  0  0
   -1.1211   -3.9433    1.0004 H   0  0  0  0  0  0  0  0  0  0  0  0
    0.4649   -3.1996    0.3442 H   0  0  0  0  0  0  0  0  0  0  0  0
   -0.2731    3.5929    1.8682 H   0  0  0  0  0  0  0  0  0  0  0  0
    3.6703   -1.4678    3.5460 H   0  0  0  0  0  0  0  0  0  0  0  0
    5.9895   -1.6898   -2.0884 H   0  0  0  0  0  0  0  0  0  0  0  0
    5.6989   -2.6325   -0.6068 H   0  0  0  0  0  0  0  0  0  0  0  0
    4.3757   -1.6927   -1.3376 H   0  0  0  0  0  0  0  0  0  0  0  0
    7.6333    0.3286    0.5589 H   0  0  0  0  0  0  0  0  0  0  0  0
    7.6043   -1.4502    0.5025 H   0  0  0  0  0  0  0  0  0  0  0  0
    7.8799   -0.5169   -0.9879 H   0  0  0  0  0  0  0  0  0  0  0  0
   -0.0551    1.1386   -5.0260 H   0  0  0  0  0  0  0  0  0  0  0  0
    0.2598   -0.3722   -4.1391 H   0  0  0  0  0  0  0  0  0  0  0  0
   -1.3812    0.3168   -4.1691 H   0  0  0  0  0  0  0  0  0  0  0  0
  1  2  1  0  0  0  0
  2  3  2  0  0  0  0
  3  4  1  0  0  0  0
  4  5  1  0  0  0  0
  5  6  2  0  0  0  0
  6  7  1  0  0  0  0
  7  8  2  0  0  0  0
  8  9  1  0  0  0  0
  9 10  1  0  0  0  0
 10 11  1  0  0  0  0
  6 11  1  0  0  0  0
 11 12  2  0  0  0  0
 12 13  1  0  0  0  0
 13 14  2  0  0  0  0
  5 14  1  0  0  0  0
 14 15  1  0  0  0  0
 15 16  2  0  0  0  0
 16 17  1  0  0  0  0
 17 18  2  0  0  0  0
 17 19  1  0  0  0  0
 19 20  2  0  0  0  0
 20 21  1  0  0  0  0
 15 21  1  0  0  0  0
 20 22  1  0  0  0  0
 22 23  2  0  0  0  0
 23 24  1  0  0  0  0
 24 25  2  0  0  0  0
 19 25  1  0  0  0  0
 25 26  1  0  0  0  0
 23 27  1  0  0  0  0
 22 28  1  0  0  0  0
 28 29  1  0  0  0  0
 28 30  1  0  0  0  0
 28 31  1  0  0  0  0
 31 32  2  0  0  0  0
 16 33  1  0  0  0  0
 12 34  1  0  0  0  0
  9 35  1  0  0  0  0
  9 36  1  0  0  0  0
  2 37  1  0  0  0  0
  1 38  1  0  0  0  0
  1 39  1  0  0  0  0
  1 40  1  0  0  0  0
  3 41  1  0  0  0  0
  4 42  1  0  0  0  0
  4 43  1  0  0  0  0
  7 44  1  0  0  0  0
  8 45  1  0  0  0  0
 13 46  1  0  0  0  0
 24 47  1  0  0  0  0
 26 48  1  0  0  0  0
 27 49  1  0  0  0  0
 29 50  1  0  0  0  0
 29 51  1  0  0  0  0
 29 52  1  0  0  0  0
 30 53  1  0  0  0  0
 30 54  1  0  0  0  0
 30 55  1  0  0  0  0
 31 56  1  0  0  0  0
 32 57  1  0  0  0  0
 32 58  1  0  0  0  0
 33 59  1  0  0  0  0
 34 60  1  0  0  0  0
 35 61  1  0  0  0  0
 35 62  1  0  0  0  0
 35 63  1  0  0  0  0
 36 64  1  0  0  0  0
 36 65  1  0  0  0  0
 36 66  1  0  0  0  0
 37 67  1  0  0  0  0
 37 68  1  0  0  0  0
 37 69  1  0  0  0  0
M  END
$$$$
