C21H20O5
APtclcactv06281817473D 0   0.00000     0.00000
 
 46 48  0  0  0  0  0  0  0  0999 V2000
    1.2262   -2.6573   -1.3049 C   0  0  0  0  0  0  0  0  0  0  0  0
    2.0495   -2.7065   -0.0162 C   0  0  0  0  0  0  0  0  0  0  0  0
    3.5126   -2.5987   -0.3569 C   0  0  0  0  0  0  0  0  0  0  0  0
    4.0898   -1.4011   -0.4402 C   0  0  0  0  0  0  0  0  0  0  0  0
    3.2572   -0.2083   -0.1776 C   0  0  0  0  0  0  0  0  0  0  0  0
    2.0315   -0.3826    0.4730 C   0  0  0  0  0  0  0  0  0  0  0  0
    1.6537   -1.6318    0.8372 O   0  0  0  0  0  0  0  0  0  0  0  0
    1.2217    0.7279    0.7345 C   0  0  0  0  0  0  0  0  0  0  0  0
    1.6511    2.0073    0.3395 C   0  0  0  0  0  0  0  0  0  0  0  0
    2.8662    2.1677   -0.3034 C   0  0  0  0  0  0  0  0  0  0  0  0
    3.6731    1.0692   -0.5644 C   0  0  0  0  0  0  0  0  0  0  0  0
    4.8629    1.2345   -1.1947 O   0  0  0  0  0  0  0  0  0  0  0  0
    5.2228    2.5678   -1.5619 C   0  0  0  0  0  0  0  0  0  0  0  0
    0.8711    3.0885    0.5892 O   0  0  0  0  0  0  0  0  0  0  0  0
   -0.0708    0.5581    1.4178 C   0  0  0  0  0  0  0  0  0  0  0  0
   -0.1172    0.5286    2.6350 O   0  0  0  0  0  0  0  0  0  0  0  0
   -1.2996    0.4249    0.6357 C   0  0  0  0  0  0  0  0  0  0  0  0
   -2.4960    0.3744    1.2609 C   0  0  0  0  0  0  0  0  0  0  0  0
   -3.7306    0.2405    0.4751 C   0  0  0  0  0  0  0  0  0  0  0  0
   -4.9718    0.1879    1.1205 C   0  0  0  0  0  0  0  0  0  0  0  0
   -6.1253    0.0629    0.3797 C   0  0  0  0  0  0  0  0  0  0  0  0
   -6.0591   -0.0111   -1.0070 C   0  0  0  0  0  0  0  0  0  0  0  0
   -4.8290    0.0406   -1.6530 C   0  0  0  0  0  0  0  0  0  0  0  0
   -3.6700    0.1709   -0.9219 C   0  0  0  0  0  0  0  0  0  0  0  0
   -7.1994   -0.1348   -1.7329 O   0  0  0  0  0  0  0  0  0  0  0  0
    1.7936   -4.0362    0.6959 C   0  0  0  0  0  0  0  0  0  0  0  0
    1.5127   -3.4871   -1.9510 H   0  0  0  0  0  0  0  0  0  0  0  0
    0.1664   -2.7351   -1.0621 H   0  0  0  0  0  0  0  0  0  0  0  0
    1.4128   -1.7148   -1.8195 H   0  0  0  0  0  0  0  0  0  0  0  0
    4.0935   -3.4919   -0.5332 H   0  0  0  0  0  0  0  0  0  0  0  0
    5.1356   -1.3045   -0.6919 H   0  0  0  0  0  0  0  0  0  0  0  0
    3.1885    3.1538   -0.6037 H   0  0  0  0  0  0  0  0  0  0  0  0
    5.2762    3.1890   -0.6678 H   0  0  0  0  0  0  0  0  0  0  0  0
    6.1940    2.5588   -2.0566 H   0  0  0  0  0  0  0  0  0  0  0  0
    4.4727    2.9726   -2.2413 H   0  0  0  0  0  0  0  0  0  0  0  0
    1.0436    3.5093    1.4425 H   0  0  0  0  0  0  0  0  0  0  0  0
   -1.2504    0.3668   -0.4416 H   0  0  0  0  0  0  0  0  0  0  0  0
   -2.5452    0.4324    2.3382 H   0  0  0  0  0  0  0  0  0  0  0  0
   -5.0243    0.2449    2.1977 H   0  0  0  0  0  0  0  0  0  0  0  0
   -7.0833    0.0219    0.8766 H   0  0  0  0  0  0  0  0  0  0  0  0
   -4.7831   -0.0173   -2.7304 H   0  0  0  0  0  0  0  0  0  0  0  0
   -2.7150    0.2110   -1.4246 H   0  0  0  0  0  0  0  0  0  0  0  0
   -7.5934    0.7091   -1.9931 H   0  0  0  0  0  0  0  0  0  0  0  0
    2.0859   -4.8596    0.0442 H   0  0  0  0  0  0  0  0  0  0  0  0
    2.3787   -4.0748    1.6147 H   0  0  0  0  0  0  0  0  0  0  0  0
    0.7338   -4.1217    0.9362 H   0  0  0  0  0  0  0  0  0  0  0  0
  1  2  1  0  0  0  0
  2  3  1  0  0  0  0
  3  4  2  0  0  0  0
  4  5  1  0  0  0  0
  5  6  2  0  0  0  0
  6  7  1  0  0  0  0
  2  7  1  0  0  0  0
  6  8  1  0  0  0  0
  8  9  2  0  0  0  0
  9 10  1  0  0  0  0
 10 11  2  0  0  0  0
  5 11  1  0  0  0  0
 11 12  1  0  0  0  0
 12 13  1  0  0  0  0
  9 14  1  0  0  0  0
  8 15  1  0  0  0  0
 15 16  2  0  0  0  0
 15 17  1  0  0  0  0
 17 18  2  0  0  0  0
 18 19  1  0  0  0  0
 19 20  2  0  0  0  0
 20 21  1  0  0  0  0
 21 22  2  0  0  0  0
 22 23  1  0  0  0  0
 23 24  2  0  0  0  0
 19 24  1  0  0  0  0
 22 25  1  0  0  0  0
  2 26  1  0  0  0  0
  1 27  1  0  0  0  0
  1 28  1  0  0  0  0
  1 29  1  0  0  0  0
  3 30  1  0  0  0  0
  4 31  1  0  0  0  0
 10 32  1  0  0  0  0
 13 33  1  0  0  0  0
 13 34  1  0  0  0  0
 13 35  1  0  0  0  0
 14 36  1  0  0  0  0
 17 37  1  0  0  0  0
 18 38  1  0  0  0  0
 20 39  1  0  0  0  0
 21 40  1  0  0  0  0
 23 41  1  0  0  0  0
 24 42  1  0  0  0  0
 25 43  1  0  0  0  0
 26 44  1  0  0  0  0
 26 45  1  0  0  0  0
 26 46  1  0  0  0  0
M  END
$$$$
