C15H22O2
APtclcactv06281817473D 0   0.00000     0.00000
 
 39 40  0  0  0  0  0  0  0  0999 V2000
   -0.6847   -2.9855   -0.1882 C   0  0  0  0  0  0  0  0  0  0  0  0
   -1.4956   -1.7738    0.1929 C   0  0  0  0  0  0  0  0  0  0  0  0
   -1.2892   -0.6105   -0.4279 C   0  0  0  0  0  0  0  0  0  0  0  0
   -0.1610   -0.4070   -1.3816 C   0  0  0  0  0  0  0  0  0  0  0  0
    1.0542    0.1466   -0.6838 C   0  0  0  0  0  0  0  0  0  0  0  0
    0.6691    1.1886    0.4059 C   0  0  0  0  0  0  0  0  0  0  0  0
    2.1013    1.8154    0.5347 C   0  0  0  0  0  0  0  0  0  0  0  0
    2.9550    0.5152    0.7005 C   0  0  0  0  0  0  0  0  0  0  0  0
    2.1653   -0.6235   -0.0254 C   0  0  0  0  0  0  0  0  0  0  0  0
    1.6103   -1.6329    0.9816 C   0  0  0  0  0  0  0  0  0  0  0  0
    2.9844   -1.2733   -0.9995 O   0  0  0  0  0  0  0  0  0  0  0  0
   -0.4351    2.1001    0.2547 C   0  0  0  0  0  0  0  0  0  0  0  0
   -0.2465    3.2909   -0.2577 C   0  0  0  0  0  0  0  0  0  0  0  0
   -1.8398    1.6583    0.7020 C   0  0  0  0  0  0  0  0  0  0  0  0
   -2.1570    0.5465   -0.2233 C   0  0  0  0  0  0  0  0  0  0  0  0
   -3.1978    0.6022   -0.8443 O   0  0  0  0  0  0  0  0  0  0  0  0
   -2.5395   -1.8756    1.2750 C   0  0  0  0  0  0  0  0  0  0  0  0
    0.0776   -2.6993   -0.9129 H   0  0  0  0  0  0  0  0  0  0  0  0
   -0.2052   -3.3960    0.7005 H   0  0  0  0  0  0  0  0  0  0  0  0
   -1.3398   -3.7376   -0.6278 H   0  0  0  0  0  0  0  0  0  0  0  0
    0.0952   -1.3621   -1.8402 H   0  0  0  0  0  0  0  0  0  0  0  0
   -0.4732    0.2890   -2.1602 H   0  0  0  0  0  0  0  0  0  0  0  0
    1.5593    0.7531   -1.4355 H   0  0  0  0  0  0  0  0  0  0  0  0
    0.4935    0.6306    1.3257 H   0  0  0  0  0  0  0  0  0  0  0  0
    2.3784    2.3583   -0.3689 H   0  0  0  0  0  0  0  0  0  0  0  0
    2.1764    2.4531    1.4155 H   0  0  0  0  0  0  0  0  0  0  0  0
    3.9325    0.6474    0.2366 H   0  0  0  0  0  0  0  0  0  0  0  0
    3.0709    0.2755    1.7575 H   0  0  0  0  0  0  0  0  0  0  0  0
    0.7730   -1.1873    1.5188 H   0  0  0  0  0  0  0  0  0  0  0  0
    1.2704   -2.5237    0.4534 H   0  0  0  0  0  0  0  0  0  0  0  0
    2.3921   -1.9067    1.6901 H   0  0  0  0  0  0  0  0  0  0  0  0
    3.7679   -1.7037   -0.6306 H   0  0  0  0  0  0  0  0  0  0  0  0
    0.7420    3.5941   -0.5697 H   0  0  0  0  0  0  0  0  0  0  0  0
   -1.0794    3.9694   -0.3681 H   0  0  0  0  0  0  0  0  0  0  0  0
   -1.8232    1.3092    1.7344 H   0  0  0  0  0  0  0  0  0  0  0  0
   -2.5555    2.4716    0.5829 H   0  0  0  0  0  0  0  0  0  0  0  0
   -2.5637   -2.8944    1.6618 H   0  0  0  0  0  0  0  0  0  0  0  0
   -2.2941   -1.1860    2.0827 H   0  0  0  0  0  0  0  0  0  0  0  0
   -3.5158   -1.6201    0.8631 H   0  0  0  0  0  0  0  0  0  0  0  0
  1  2  1  0  0  0  0
  2  3  2  0  0  0  0
  3  4  1  0  0  0  0
  4  5  1  0  0  0  0
  5  6  1  0  0  0  0
  6  7  1  0  0  0  0
  7  8  1  0  0  0  0
  8  9  1  0  0  0  0
  5  9  1  0  0  0  0
  9 10  1  0  0  0  0
  9 11  1  0  0  0  0
  6 12  1  0  0  0  0
 12 13  2  0  0  0  0
 12 14  1  0  0  0  0
 14 15  1  0  0  0  0
  3 15  1  0  0  0  0
 15 16  2  0  0  0  0
  2 17  1  0  0  0  0
  1 18  1  0  0  0  0
  1 19  1  0  0  0  0
  1 20  1  0  0  0  0
  4 21  1  0  0  0  0
  4 22  1  0  0  0  0
  5 23  1  0  0  0  0
  6 24  1  0  0  0  0
  7 25  1  0  0  0  0
  7 26  1  0  0  0  0
  8 27  1  0  0  0  0
  8 28  1  0  0  0  0
 10 29  1  0  0  0  0
 10 30  1  0  0  0  0
 10 31  1  0  0  0  0
 11 32  1  0  0  0  0
 13 33  1  0  0  0  0
 13 34  1  0  0  0  0
 14 35  1  0  0  0  0
 14 36  1  0  0  0  0
 17 37  1  0  0  0  0
 17 38  1  0  0  0  0
 17 39  1  0  0  0  0
M  END
$$$$
