C40H56O3
APtclcactv06281817473D 0   0.00000     0.00000
 
 99102  0  0  0  0  0  0  0  0999 V2000
   -3.2493    2.0144   -0.2727 C   0  0  0  0  0  0  0  0  0  0  0  0
   -3.3768    0.5171   -0.1593 C   0  0  0  0  0  0  0  0  0  0  0  0
   -2.2474   -0.2673   -0.1006 C   0  0  0  0  0  0  0  0  0  0  0  0
   -0.9794    0.3262   -0.1463 C   0  0  0  0  0  0  0  0  0  0  0  0
    0.1505   -0.4586   -0.0876 C   0  0  0  0  0  0  0  0  0  0  0  0
    1.4185    0.1349   -0.1333 C   0  0  0  0  0  0  0  0  0  0  0  0
    2.5479   -0.6495   -0.0746 C   0  0  0  0  0  0  0  0  0  0  0  0
    2.4204   -2.1468    0.0388 C   0  0  0  0  0  0  0  0  0  0  0  0
    3.8172   -0.0554   -0.1203 C   0  0  0  0  0  0  0  0  0  0  0  0
    4.9370   -0.8331   -0.0622 C   0  0  0  0  0  0  0  0  0  0  0  0
    6.2098   -0.2374   -0.1080 C   0  0  0  0  0  0  0  0  0  0  0  0
    7.3249   -1.0118   -0.0501 C   0  0  0  0  0  0  0  0  0  0  0  0
    7.1974   -2.5091    0.0633 C   0  0  0  0  0  0  0  0  0  0  0  0
    8.6083   -0.4111   -0.0963 C   0  0  0  0  0  0  0  0  0  0  0  0
    9.7050   -1.1728   -0.0393 C   0  0  0  0  0  0  0  0  0  0  0  0
   11.0692   -0.5343   -0.0885 C   0  0  0  0  0  0  0  0  0  0  0  0
   11.7112   -0.2475    1.2671 C   0  0  0  0  0  0  0  0  0  0  0  0
   12.1879    1.2038    1.3273 C   0  0  0  0  0  0  0  0  0  0  0  0
   13.1127    1.4648    0.1330 C   0  0  0  0  0  0  0  0  0  0  0  0
   12.2599    1.5701   -1.1312 C   0  0  0  0  0  0  0  0  0  0  0  0
   11.3973    0.3285   -1.2970 C   0  0  0  0  0  0  0  0  0  0  0  0
   11.9645   -0.9623   -1.1268 O   0  0  0  0  0  0  0  0  0  0  0  0
   10.3067    0.4410   -2.3642 C   0  0  0  0  0  0  0  0  0  0  0  0
   13.8236    2.6878    0.3352 O   0  0  0  0  0  0  0  0  0  0  0  0
   10.6853   -0.4907    2.3758 C   0  0  0  0  0  0  0  0  0  0  0  0
   12.9051   -1.1823    1.4708 C   0  0  0  0  0  0  0  0  0  0  0  0
   -4.6461   -0.0770   -0.1136 C   0  0  0  0  0  0  0  0  0  0  0  0
   -5.7659    0.7007   -0.1718 C   0  0  0  0  0  0  0  0  0  0  0  0
   -7.0387    0.1050   -0.1259 C   0  0  0  0  0  0  0  0  0  0  0  0
   -8.1538    0.8794   -0.1839 C   0  0  0  0  0  0  0  0  0  0  0  0
   -8.0263    2.3767   -0.2972 C   0  0  0  0  0  0  0  0  0  0  0  0
   -9.4372    0.2788   -0.1376 C   0  0  0  0  0  0  0  0  0  0  0  0
  -10.5339    1.0404   -0.1946 C   0  0  0  0  0  0  0  0  0  0  0  0
  -11.8981    0.4019   -0.1455 C   0  0  0  0  0  0  0  0  0  0  0  0
  -12.5159    0.3326    1.2355 C   0  0  0  0  0  0  0  0  0  0  0  0
  -13.6963   -0.6133    1.3003 C   0  0  0  0  0  0  0  0  0  0  0  0
  -13.4179   -1.9478    0.6451 C   0  0  0  0  0  0  0  0  0  0  0  0
  -13.1358   -1.8282   -0.8378 C   0  0  0  0  0  0  0  0  0  0  0  0
  -12.1502   -0.7118   -1.1488 C   0  0  0  0  0  0  0  0  0  0  0  0
  -12.7128    0.5791   -1.2957 O   0  0  0  0  0  0  0  0  0  0  0  0
  -11.0017   -1.0891   -2.0866 C   0  0  0  0  0  0  0  0  0  0  0  0
  -11.4518   -0.1364    2.2298 C   0  0  0  0  0  0  0  0  0  0  0  0
  -12.9820    1.7328    1.6391 C   0  0  0  0  0  0  0  0  0  0  0  0
   -3.2192    2.2978   -1.3248 H   0  0  0  0  0  0  0  0  0  0  0  0
   -4.1050    2.4893    0.2072 H   0  0  0  0  0  0  0  0  0  0  0  0
   -2.3315    2.3390    0.2175 H   0  0  0  0  0  0  0  0  0  0  0  0
   -2.3388   -1.3403   -0.0194 H   0  0  0  0  0  0  0  0  0  0  0  0
   -0.8880    1.3992   -0.2276 H   0  0  0  0  0  0  0  0  0  0  0  0
    0.0591   -1.5316   -0.0064 H   0  0  0  0  0  0  0  0  0  0  0  0
    1.5099    1.2080   -0.2145 H   0  0  0  0  0  0  0  0  0  0  0  0
    2.3890   -2.5853   -0.9586 H   0  0  0  0  0  0  0  0  0  0  0  0
    3.2767   -2.5441    0.5836 H   0  0  0  0  0  0  0  0  0  0  0  0
    1.5032   -2.3939    0.5733 H   0  0  0  0  0  0  0  0  0  0  0  0
    3.9086    1.0176   -0.2016 H   0  0  0  0  0  0  0  0  0  0  0  0
    4.8456   -1.9061    0.0191 H   0  0  0  0  0  0  0  0  0  0  0  0
    6.3012    0.8357   -0.1893 H   0  0  0  0  0  0  0  0  0  0  0  0
    7.1660   -2.9476   -0.9341 H   0  0  0  0  0  0  0  0  0  0  0  0
    8.0537   -2.9065    0.6081 H   0  0  0  0  0  0  0  0  0  0  0  0
    6.2801   -2.7562    0.5978 H   0  0  0  0  0  0  0  0  0  0  0  0
    8.6997    0.6619   -0.1776 H   0  0  0  0  0  0  0  0  0  0  0  0
    9.6136   -2.2459    0.0419 H   0  0  0  0  0  0  0  0  0  0  0  0
   11.3292    1.8734    1.2782 H   0  0  0  0  0  0  0  0  0  0  0  0
   12.7333    1.3716    2.2560 H   0  0  0  0  0  0  0  0  0  0  0  0
   13.8190    0.6409    0.0303 H   0  0  0  0  0  0  0  0  0  0  0  0
   11.6179    2.4481   -1.0599 H   0  0  0  0  0  0  0  0  0  0  0  0
   12.9128    1.6722   -1.9980 H   0  0  0  0  0  0  0  0  0  0  0  0
   10.6673    1.0558   -3.1888 H   0  0  0  0  0  0  0  0  0  0  0  0
   10.0568   -0.5532   -2.7345 H   0  0  0  0  0  0  0  0  0  0  0  0
    9.4190    0.9005   -1.9295 H   0  0  0  0  0  0  0  0  0  0  0  0
   14.4285    2.9147   -0.3843 H   0  0  0  0  0  0  0  0  0  0  0  0
   10.3532   -1.5283    2.3423 H   0  0  0  0  0  0  0  0  0  0  0  0
   11.1417   -0.2865    3.3444 H   0  0  0  0  0  0  0  0  0  0  0  0
    9.8301    0.1694    2.2307 H   0  0  0  0  0  0  0  0  0  0  0  0
   13.6358   -1.0163    0.6792 H   0  0  0  0  0  0  0  0  0  0  0  0
   13.3648   -0.9791    2.4380 H   0  0  0  0  0  0  0  0  0  0  0  0
   12.5653   -2.2176    1.4404 H   0  0  0  0  0  0  0  0  0  0  0  0
   -4.7375   -1.1500   -0.0323 H   0  0  0  0  0  0  0  0  0  0  0  0
   -5.6745    1.7738   -0.2530 H   0  0  0  0  0  0  0  0  0  0  0  0
   -7.1301   -0.9681   -0.0447 H   0  0  0  0  0  0  0  0  0  0  0  0
   -7.9961    2.6602   -1.3493 H   0  0  0  0  0  0  0  0  0  0  0  0
   -8.8820    2.8516    0.1826 H   0  0  0  0  0  0  0  0  0  0  0  0
   -7.1084    2.7013    0.1930 H   0  0  0  0  0  0  0  0  0  0  0  0
   -9.5286   -0.7943   -0.0564 H   0  0  0  0  0  0  0  0  0  0  0  0
  -10.4425    2.1135   -0.2759 H   0  0  0  0  0  0  0  0  0  0  0  0
  -13.9539   -0.7823    2.3458 H   0  0  0  0  0  0  0  0  0  0  0  0
  -14.5469   -0.1480    0.8021 H   0  0  0  0  0  0  0  0  0  0  0  0
  -12.5557   -2.4046    1.1309 H   0  0  0  0  0  0  0  0  0  0  0  0
  -14.2826   -2.5960    0.7870 H   0  0  0  0  0  0  0  0  0  0  0  0
  -12.7256   -2.7721   -1.1968 H   0  0  0  0  0  0  0  0  0  0  0  0
  -14.0713   -1.6296   -1.3607 H   0  0  0  0  0  0  0  0  0  0  0  0
  -11.3558   -1.8110   -2.8225 H   0  0  0  0  0  0  0  0  0  0  0  0
  -10.6416   -0.1962   -2.5975 H   0  0  0  0  0  0  0  0  0  0  0  0
  -10.1896   -1.5290   -1.5078 H   0  0  0  0  0  0  0  0  0  0  0  0
  -10.6208    0.5689    2.2324 H   0  0  0  0  0  0  0  0  0  0  0  0
  -11.8859   -0.1901    3.2282 H   0  0  0  0  0  0  0  0  0  0  0  0
  -11.0906   -1.1224    1.9373 H   0  0  0  0  0  0  0  0  0  0  0  0
  -13.7208    2.0906    0.9219 H   0  0  0  0  0  0  0  0  0  0  0  0
  -13.4289    1.6947    2.6326 H   0  0  0  0  0  0  0  0  0  0  0  0
  -12.1286    2.4107    1.6504 H   0  0  0  0  0  0  0  0  0  0  0  0
  1  2  1  0  0  0  0
  2  3  2  0  0  0  0
  3  4  1  0  0  0  0
  4  5  2  0  0  0  0
  5  6  1  0  0  0  0
  6  7  2  0  0  0  0
  7  8  1  0  0  0  0
  7  9  1  0  0  0  0
  9 10  2  0  0  0  0
 10 11  1  0  0  0  0
 11 12  2  0  0  0  0
 12 13  1  0  0  0  0
 12 14  1  0  0  0  0
 14 15  2  0  0  0  0
 15 16  1  0  0  0  0
 16 17  1  0  0  0  0
 17 18  1  0  0  0  0
 18 19  1  0  0  0  0
 19 20  1  0  0  0  0
 20 21  1  0  0  0  0
 16 21  1  0  0  0  0
 21 22  1  0  0  0  0
 16 22  1  0  0  0  0
 21 23  1  0  0  0  0
 19 24  1  0  0  0  0
 17 25  1  0  0  0  0
 17 26  1  0  0  0  0
  2 27  1  0  0  0  0
 27 28  2  0  0  0  0
 28 29  1  0  0  0  0
 29 30  2  0  0  0  0
 30 31  1  0  0  0  0
 30 32  1  0  0  0  0
 32 33  2  0  0  0  0
 33 34  1  0  0  0  0
 34 35  1  0  0  0  0
 35 36  1  0  0  0  0
 36 37  1  0  0  0  0
 37 38  1  0  0  0  0
 38 39  1  0  0  0  0
 34 39  1  0  0  0  0
 39 40  1  0  0  0  0
 34 40  1  0  0  0  0
 39 41  1  0  0  0  0
 35 42  1  0  0  0  0
 35 43  1  0  0  0  0
  1 44  1  0  0  0  0
  1 45  1  0  0  0  0
  1 46  1  0  0  0  0
  3 47  1  0  0  0  0
  4 48  1  0  0  0  0
  5 49  1  0  0  0  0
  6 50  1  0  0  0  0
  8 51  1  0  0  0  0
  8 52  1  0  0  0  0
  8 53  1  0  0  0  0
  9 54  1  0  0  0  0
 10 55  1  0  0  0  0
 11 56  1  0  0  0  0
 13 57  1  0  0  0  0
 13 58  1  0  0  0  0
 13 59  1  0  0  0  0
 14 60  1  0  0  0  0
 15 61  1  0  0  0  0
 18 62  1  0  0  0  0
 18 63  1  0  0  0  0
 19 64  1  0  0  0  0
 20 65  1  0  0  0  0
 20 66  1  0  0  0  0
 23 67  1  0  0  0  0
 23 68  1  0  0  0  0
 23 69  1  0  0  0  0
 24 70  1  0  0  0  0
 25 71  1  0  0  0  0
 25 72  1  0  0  0  0
 25 73  1  0  0  0  0
 26 74  1  0  0  0  0
 26 75  1  0  0  0  0
 26 76  1  0  0  0  0
 27 77  1  0  0  0  0
 28 78  1  0  0  0  0
 29 79  1  0  0  0  0
 31 80  1  0  0  0  0
 31 81  1  0  0  0  0
 31 82  1  0  0  0  0
 32 83  1  0  0  0  0
 33 84  1  0  0  0  0
 36 85  1  0  0  0  0
 36 86  1  0  0  0  0
 37 87  1  0  0  0  0
 37 88  1  0  0  0  0
 38 89  1  0  0  0  0
 38 90  1  0  0  0  0
 41 91  1  0  0  0  0
 41 92  1  0  0  0  0
 41 93  1  0  0  0  0
 42 94  1  0  0  0  0
 42 95  1  0  0  0  0
 42 96  1  0  0  0  0
 43 97  1  0  0  0  0
 43 98  1  0  0  0  0
 43 99  1  0  0  0  0
M  END
$$$$
