C15H24O3
APtclcactv06281817473D 0   0.00000     0.00000
 
 42 43  0  0  0  0  0  0  0  0999 V2000
    1.9578   -0.0872    2.3520 C   0  0  0  0  0  0  0  0  0  0  0  0
    1.0658    0.6823    1.3757 C   0  0  0  0  0  0  0  0  0  0  0  0
    1.9402    1.4223    0.3606 C   0  0  0  0  0  0  0  0  0  0  0  0
    2.7792    0.4101   -0.4220 C   0  0  0  0  0  0  0  0  0  0  0  0
    1.8541   -0.5562   -1.1644 C   0  0  0  0  0  0  0  0  0  0  0  0
    0.9792   -1.3017   -0.1538 C   0  0  0  0  0  0  0  0  0  0  0  0
    0.1512   -0.2962    0.6427 C   0  0  0  0  0  0  0  0  0  0  0  0
   -0.7447   -1.0328    1.6496 C   0  0  0  0  0  0  0  0  0  0  0  0
   -2.2013   -0.6834    1.2776 C   0  0  0  0  0  0  0  0  0  0  0  0
   -2.0868    0.6587    0.5125 C   0  0  0  0  0  0  0  0  0  0  0  0
   -0.7839    0.4765   -0.3062 C   0  0  0  0  0  0  0  0  0  0  0  0
   -3.2688    0.8546   -0.4016 C   0  0  0  0  0  0  0  0  0  0  0  0
   -4.0372    1.9064   -0.2624 C   0  0  0  0  0  0  0  0  0  0  0  0
   -3.5667   -0.1594   -1.4759 C   0  0  0  0  0  0  0  0  0  0  0  0
    0.0578   -2.2434   -0.8855 C   0  0  0  0  0  0  0  0  0  0  0  0
    0.1081   -3.4297   -0.6656 O   0  0  0  0  0  0  0  0  0  0  0  0
    3.6015    1.1010   -1.3647 O   0  0  0  0  0  0  0  0  0  0  0  0
    1.1076    2.1514   -0.5434 O   0  0  0  0  0  0  0  0  0  0  0  0
    2.6105    0.6113    2.8756 H   0  0  0  0  0  0  0  0  0  0  0  0
    1.3351   -0.6143    3.0749 H   0  0  0  0  0  0  0  0  0  0  0  0
    2.5632   -0.8069    1.8010 H   0  0  0  0  0  0  0  0  0  0  0  0
    0.4605    1.4020    1.9268 H   0  0  0  0  0  0  0  0  0  0  0  0
    2.6001    2.1134    0.8849 H   0  0  0  0  0  0  0  0  0  0  0  0
    3.4103   -0.1495    0.2684 H   0  0  0  0  0  0  0  0  0  0  0  0
    1.2195    0.0038   -1.8513 H   0  0  0  0  0  0  0  0  0  0  0  0
    2.4529   -1.2736   -1.7257 H   0  0  0  0  0  0  0  0  0  0  0  0
    1.6136   -1.8698    0.5265 H   0  0  0  0  0  0  0  0  0  0  0  0
   -0.5872   -2.1087    1.5728 H   0  0  0  0  0  0  0  0  0  0  0  0
   -0.5260   -0.6940    2.6622 H   0  0  0  0  0  0  0  0  0  0  0  0
   -2.6261   -1.4541    0.6345 H   0  0  0  0  0  0  0  0  0  0  0  0
   -2.8053   -0.5597    2.1765 H   0  0  0  0  0  0  0  0  0  0  0  0
   -1.9925    1.4928    1.2078 H   0  0  0  0  0  0  0  0  0  0  0  0
   -0.3541    1.4454   -0.5603 H   0  0  0  0  0  0  0  0  0  0  0  0
   -0.9777   -0.1045   -1.2078 H   0  0  0  0  0  0  0  0  0  0  0  0
   -3.8237    2.6331    0.5075 H   0  0  0  0  0  0  0  0  0  0  0  0
   -4.8843    2.0468   -0.9175 H   0  0  0  0  0  0  0  0  0  0  0  0
   -4.2329   -0.9250   -1.0782 H   0  0  0  0  0  0  0  0  0  0  0  0
   -4.0458    0.3361   -2.3204 H   0  0  0  0  0  0  0  0  0  0  0  0
   -2.6370   -0.6226   -1.8062 H   0  0  0  0  0  0  0  0  0  0  0  0
   -0.6475   -1.8572   -1.6065 H   0  0  0  0  0  0  0  0  0  0  0  0
    4.1620    0.5205   -1.8975 H   0  0  0  0  0  0  0  0  0  0  0  0
    1.5958    2.6457   -1.2161 H   0  0  0  0  0  0  0  0  0  0  0  0
  1  2  1  0  0  0  0
  2  3  1  0  0  0  0
  3  4  1  0  0  0  0
  4  5  1  0  0  0  0
  5  6  1  0  0  0  0
  6  7  1  0  0  0  0
  2  7  1  0  0  0  0
  7  8  1  0  0  0  0
  8  9  1  0  0  0  0
  9 10  1  0  0  0  0
 10 11  1  0  0  0  0
  7 11  1  0  0  0  0
 10 12  1  0  0  0  0
 12 13  2  0  0  0  0
 12 14  1  0  0  0  0
  6 15  1  0  0  0  0
 15 16  2  0  0  0  0
  4 17  1  0  0  0  0
  3 18  1  0  0  0  0
  1 19  1  0  0  0  0
  1 20  1  0  0  0  0
  1 21  1  0  0  0  0
  2 22  1  0  0  0  0
  3 23  1  0  0  0  0
  4 24  1  0  0  0  0
  5 25  1  0  0  0  0
  5 26  1  0  0  0  0
  6 27  1  0  0  0  0
  8 28  1  0  0  0  0
  8 29  1  0  0  0  0
  9 30  1  0  0  0  0
  9 31  1  0  0  0  0
 10 32  1  0  0  0  0
 11 33  1  0  0  0  0
 11 34  1  0  0  0  0
 13 35  1  0  0  0  0
 13 36  1  0  0  0  0
 14 37  1  0  0  0  0
 14 38  1  0  0  0  0
 14 39  1  0  0  0  0
 15 40  1  0  0  0  0
 17 41  1  0  0  0  0
 18 42  1  0  0  0  0
M  END
$$$$
