C23H24O7
APtclcactv06281817473D 0   0.00000     0.00000
 
 54 57  0  0  0  0  0  0  0  0999 V2000
   -1.3521    3.8581    1.3884 C   0  0  0  0  0  0  0  0  0  0  0  0
   -1.3181    2.7475    0.3365 C   0  0  0  0  0  0  0  0  0  0  0  0
   -1.4785    1.3687    0.9981 C   0  0  0  0  0  0  0  0  0  0  0  0
   -0.1935    0.6627    1.3202 C   0  0  0  0  0  0  0  0  0  0  0  0
   -0.4849   -0.5929    2.1540 C   0  0  0  0  0  0  0  0  0  0  0  0
   -0.8990   -1.7205    1.2201 C   0  0  0  0  0  0  0  0  0  0  0  0
   -2.0581   -1.6751    0.5867 C   0  0  0  0  0  0  0  0  0  0  0  0
   -3.0703   -0.5383    0.6315 C   0  0  0  0  0  0  0  0  0  0  0  0
   -2.3821    0.6628    0.0001 C   0  0  0  0  0  0  0  0  0  0  0  0
   -3.2832    1.7173   -0.4368 O   0  0  0  0  0  0  0  0  0  0  0  0
   -2.5314    2.8391   -0.5814 C   0  0  0  0  0  0  0  0  0  0  0  0
   -2.7842    3.7620   -1.3191 O   0  0  0  0  0  0  0  0  0  0  0  0
   -4.2196   -0.9910   -0.2347 C   0  0  0  0  0  0  0  0  0  0  0  0
   -3.9611   -2.1872   -0.7401 C   0  0  0  0  0  0  0  0  0  0  0  0
   -2.6531   -2.6861   -0.2989 C   0  0  0  0  0  0  0  0  0  0  0  0
   -2.1501   -3.7492   -0.6112 O   0  0  0  0  0  0  0  0  0  0  0  0
   -5.4767   -0.1990   -0.4867 C   0  0  0  0  0  0  0  0  0  0  0  0
   -6.3398   -0.9383   -1.3530 O   0  0  0  0  0  0  0  0  0  0  0  0
    0.0191   -2.8980    1.0162 C   0  0  0  0  0  0  0  0  0  0  0  0
    0.4693    0.2797    0.0864 O   0  0  0  0  0  0  0  0  0  0  0  0
    1.8101    0.2221    0.1074 C   0  0  0  0  0  0  0  0  0  0  0  0
    2.4102    0.4830    1.1231 O   0  0  0  0  0  0  0  0  0  0  0  0
    2.5671   -0.1681   -1.1359 C   0  0  0  0  0  0  0  0  0  0  0  0
    4.0463   -0.1562   -0.8480 C   0  0  0  0  0  0  0  0  0  0  0  0
    4.6691   -1.3018   -0.3881 C   0  0  0  0  0  0  0  0  0  0  0  0
    6.0249   -1.2935   -0.1234 C   0  0  0  0  0  0  0  0  0  0  0  0
    6.7616   -0.1344   -0.3193 C   0  0  0  0  0  0  0  0  0  0  0  0
    6.1344    1.0137   -0.7808 C   0  0  0  0  0  0  0  0  0  0  0  0
    4.7794    0.9987   -1.0494 C   0  0  0  0  0  0  0  0  0  0  0  0
    8.0955   -0.1236   -0.0592 O   0  0  0  0  0  0  0  0  0  0  0  0
   -0.5383    3.7109    2.0985 H   0  0  0  0  0  0  0  0  0  0  0  0
   -1.2370    4.8253    0.8993 H   0  0  0  0  0  0  0  0  0  0  0  0
   -2.3050    3.8291    1.9167 H   0  0  0  0  0  0  0  0  0  0  0  0
   -0.3934    2.7926   -0.2388 H   0  0  0  0  0  0  0  0  0  0  0  0
   -2.0431    1.4968    1.9217 H   0  0  0  0  0  0  0  0  0  0  0  0
    0.4552    1.3311    1.8864 H   0  0  0  0  0  0  0  0  0  0  0  0
    0.4115   -0.8834    2.7018 H   0  0  0  0  0  0  0  0  0  0  0  0
   -1.2924   -0.3854    2.8561 H   0  0  0  0  0  0  0  0  0  0  0  0
   -3.3854   -0.3242    1.6528 H   0  0  0  0  0  0  0  0  0  0  0  0
   -1.7882    0.3318   -0.8519 H   0  0  0  0  0  0  0  0  0  0  0  0
   -4.6287   -2.7277   -1.3947 H   0  0  0  0  0  0  0  0  0  0  0  0
   -5.9845   -0.0126    0.4596 H   0  0  0  0  0  0  0  0  0  0  0  0
   -5.2197    0.7514   -0.9545 H   0  0  0  0  0  0  0  0  0  0  0  0
   -7.1703   -0.4878   -1.5588 H   0  0  0  0  0  0  0  0  0  0  0  0
    0.9205   -2.7637    1.6141 H   0  0  0  0  0  0  0  0  0  0  0  0
   -0.4884   -3.8121    1.3243 H   0  0  0  0  0  0  0  0  0  0  0  0
    0.2893   -2.9699   -0.0374 H   0  0  0  0  0  0  0  0  0  0  0  0
    2.2654   -1.1685   -1.4461 H   0  0  0  0  0  0  0  0  0  0  0  0
    2.3465    0.5416   -1.9333 H   0  0  0  0  0  0  0  0  0  0  0  0
    4.0951   -2.2038   -0.2354 H   0  0  0  0  0  0  0  0  0  0  0  0
    6.5109   -2.1885    0.2361 H   0  0  0  0  0  0  0  0  0  0  0  0
    6.7058    1.9173   -0.9341 H   0  0  0  0  0  0  0  0  0  0  0  0
    4.2906    1.8922   -1.4087 H   0  0  0  0  0  0  0  0  0  0  0  0
    8.6459   -0.3657   -0.8165 H   0  0  0  0  0  0  0  0  0  0  0  0
  1  2  1  0  0  0  0
  2  3  1  0  0  0  0
  3  4  1  0  0  0  0
  4  5  1  0  0  0  0
  5  6  1  0  0  0  0
  6  7  2  0  0  0  0
  7  8  1  0  0  0  0
  8  9  1  0  0  0  0
  3  9  1  0  0  0  0
  9 10  1  0  0  0  0
 10 11  1  0  0  0  0
  2 11  1  0  0  0  0
 11 12  2  0  0  0  0
  8 13  1  0  0  0  0
 13 14  2  0  0  0  0
 14 15  1  0  0  0  0
  7 15  1  0  0  0  0
 15 16  2  0  0  0  0
 13 17  1  0  0  0  0
 17 18  1  0  0  0  0
  6 19  1  0  0  0  0
  4 20  1  0  0  0  0
 20 21  1  0  0  0  0
 21 22  2  0  0  0  0
 21 23  1  0  0  0  0
 23 24  1  0  0  0  0
 24 25  2  0  0  0  0
 25 26  1  0  0  0  0
 26 27  2  0  0  0  0
 27 28  1  0  0  0  0
 28 29  2  0  0  0  0
 24 29  1  0  0  0  0
 27 30  1  0  0  0  0
  1 31  1  0  0  0  0
  1 32  1  0  0  0  0
  1 33  1  0  0  0  0
  2 34  1  0  0  0  0
  3 35  1  0  0  0  0
  4 36  1  0  0  0  0
  5 37  1  0  0  0  0
  5 38  1  0  0  0  0
  8 39  1  0  0  0  0
  9 40  1  0  0  0  0
 14 41  1  0  0  0  0
 17 42  1  0  0  0  0
 17 43  1  0  0  0  0
 18 44  1  0  0  0  0
 19 45  1  0  0  0  0
 19 46  1  0  0  0  0
 19 47  1  0  0  0  0
 23 48  1  0  0  0  0
 23 49  1  0  0  0  0
 25 50  1  0  0  0  0
 26 51  1  0  0  0  0
 28 52  1  0  0  0  0
 29 53  1  0  0  0  0
 30 54  1  0  0  0  0
M  END
$$$$
