C8H13NO
APtclcactv06211806393D 0   0.00000     0.00000
 
 23 24  0  0  0  0  0  0  0  0999 V2000
    0.6328   -0.0016    1.5488 C   0  0  0  0  0  0  0  0  0  0  0  0
    1.1518   -1.2459    0.8226 C   0  0  0  0  0  0  0  0  0  0  0  0
    0.6793   -1.2187   -0.6302 C   0  0  0  0  0  0  0  0  0  0  0  0
   -0.8491   -1.2954   -0.6798 C   0  0  0  0  0  0  0  0  0  0  0  0
   -1.4098   -0.0010   -0.1291 C   0  0  0  0  0  0  0  0  0  0  0  0
   -2.2707   -0.0025    0.7177 O   0  0  0  0  0  0  0  0  0  0  0  0
   -0.8519    1.2954   -0.6780 C   0  0  0  0  0  0  0  0  0  0  0  0
    0.6767    1.2214   -0.6276 C   0  0  0  0  0  0  0  0  0  0  0  0
    1.1481    1.2460    0.8256 C   0  0  0  0  0  0  0  0  0  0  0  0
    1.1425    0.0026   -1.2935 N   0  0  0  0  0  0  0  0  0  0  0  0
   -0.4572   -0.0033    1.5423 H   0  0  0  0  0  0  0  0  0  0  0  0
    0.9934   -0.0023    2.5774 H   0  0  0  0  0  0  0  0  0  0  0  0
    2.2414   -1.2553    0.8505 H   0  0  0  0  0  0  0  0  0  0  0  0
    0.7675   -2.1401    1.3133 H   0  0  0  0  0  0  0  0  0  0  0  0
    1.0955   -2.0785   -1.1554 H   0  0  0  0  0  0  0  0  0  0  0  0
   -1.1768   -1.4283   -1.7108 H   0  0  0  0  0  0  0  0  0  0  0  0
   -1.1946   -2.1326   -0.0733 H   0  0  0  0  0  0  0  0  0  0  0  0
   -1.1793    1.4289   -1.7090 H   0  0  0  0  0  0  0  0  0  0  0  0
   -1.1994    2.1312   -0.0706 H   0  0  0  0  0  0  0  0  0  0  0  0
    1.0916    2.0832   -1.1503 H   0  0  0  0  0  0  0  0  0  0  0  0
    0.7608    2.1378    1.3184 H   0  0  0  0  0  0  0  0  0  0  0  0
    2.2376    1.2588    0.8542 H   0  0  0  0  0  0  0  0  0  0  0  0
    2.1470    0.0038   -1.3885 H   0  0  0  0  0  0  0  0  0  0  0  0
  1  2  1  0  0  0  0
  2  3  1  0  0  0  0
  3  4  1  0  0  0  0
  4  5  1  0  0  0  0
  5  6  2  0  0  0  0
  5  7  1  0  0  0  0
  7  8  1  0  0  0  0
  8  9  1  0  0  0  0
  1  9  1  0  0  0  0
  8 10  1  0  0  0  0
  3 10  1  0  0  0  0
  1 11  1  0  0  0  0
  1 12  1  0  0  0  0
  2 13  1  0  0  0  0
  2 14  1  0  0  0  0
  3 15  1  0  0  0  0
  4 16  1  0  0  0  0
  4 17  1  0  0  0  0
  7 18  1  0  0  0  0
  7 19  1  0  0  0  0
  8 20  1  0  0  0  0
  9 21  1  0  0  0  0
  9 22  1  0  0  0  0
 10 23  1  0  0  0  0
M  END
$$$$
