C17H14O6
APtclcactv06281817563D 0   0.00000     0.00000
 
 37 39  0  0  0  0  0  0  0  0999 V2000
    5.6079    1.5011    0.1236 C   0  0  0  0  0  0  0  0  0  0  0  0
    4.2280    1.8725    0.1260 O   0  0  0  0  0  0  0  0  0  0  0  0
    3.3178    0.8642    0.1012 C   0  0  0  0  0  0  0  0  0  0  0  0
    1.9611    1.1617    0.1021 C   0  0  0  0  0  0  0  0  0  0  0  0
    1.0257    0.1348    0.0764 C   0  0  0  0  0  0  0  0  0  0  0  0
    1.4662   -1.1995    0.0495 C   0  0  0  0  0  0  0  0  0  0  0  0
    2.8358   -1.4902    0.0492 C   0  0  0  0  0  0  0  0  0  0  0  0
    3.7529   -0.4559    0.0693 C   0  0  0  0  0  0  0  0  0  0  0  0
    3.2607   -2.7797    0.0233 O   0  0  0  0  0  0  0  0  0  0  0  0
    0.4569   -2.2720    0.0225 C   0  0  0  0  0  0  0  0  0  0  0  0
    0.7821   -3.4481   -0.0010 O   0  0  0  0  0  0  0  0  0  0  0  0
   -0.9042   -1.8857    0.0254 C   0  0  0  0  0  0  0  0  0  0  0  0
   -1.2266   -0.5643    0.0524 C   0  0  0  0  0  0  0  0  0  0  0  0
   -0.2978    0.4045    0.0773 O   0  0  0  0  0  0  0  0  0  0  0  0
   -2.6512   -0.1816    0.0549 C   0  0  0  0  0  0  0  0  0  0  0  0
   -3.0898    0.8817    0.8490 C   0  0  0  0  0  0  0  0  0  0  0  0
   -4.4207    1.2360    0.8479 C   0  0  0  0  0  0  0  0  0  0  0  0
   -5.3272    0.5376    0.0593 C   0  0  0  0  0  0  0  0  0  0  0  0
   -4.8954   -0.5206   -0.7314 C   0  0  0  0  0  0  0  0  0  0  0  0
   -3.5652   -0.8776   -0.7411 C   0  0  0  0  0  0  0  0  0  0  0  0
   -6.6383    0.8898    0.0616 O   0  0  0  0  0  0  0  0  0  0  0  0
    1.5481    2.4590    0.1287 O   0  0  0  0  0  0  0  0  0  0  0  0
    1.3566    3.1048   -1.1315 C   0  0  0  0  0  0  0  0  0  0  0  0
    6.2258    2.3987    0.1449 H   0  0  0  0  0  0  0  0  0  0  0  0
    5.8217    0.8918    1.0018 H   0  0  0  0  0  0  0  0  0  0  0  0
    5.8287    0.9293   -0.7778 H   0  0  0  0  0  0  0  0  0  0  0  0
    4.8106   -0.6742    0.0692 H   0  0  0  0  0  0  0  0  0  0  0  0
    3.3876   -3.1342   -0.8674 H   0  0  0  0  0  0  0  0  0  0  0  0
   -1.6819   -2.6348    0.0059 H   0  0  0  0  0  0  0  0  0  0  0  0
   -2.3862    1.4245    1.4627 H   0  0  0  0  0  0  0  0  0  0  0  0
   -4.7605    2.0575    1.4612 H   0  0  0  0  0  0  0  0  0  0  0  0
   -5.6032   -1.0609   -1.3425 H   0  0  0  0  0  0  0  0  0  0  0  0
   -3.2305   -1.7001   -1.3559 H   0  0  0  0  0  0  0  0  0  0  0  0
   -6.8689    1.5515   -0.6048 H   0  0  0  0  0  0  0  0  0  0  0  0
    1.0283    4.1312   -0.9676 H   0  0  0  0  0  0  0  0  0  0  0  0
    2.2957    3.1077   -1.6848 H   0  0  0  0  0  0  0  0  0  0  0  0
    0.5996    2.5681   -1.7035 H   0  0  0  0  0  0  0  0  0  0  0  0
  1  2  1  0  0  0  0
  2  3  1  0  0  0  0
  3  4  2  0  0  0  0
  4  5  1  0  0  0  0
  5  6  2  0  0  0  0
  6  7  1  0  0  0  0
  7  8  2  0  0  0  0
  3  8  1  0  0  0  0
  7  9  1  0  0  0  0
  6 10  1  0  0  0  0
 10 11  2  0  0  0  0
 10 12  1  0  0  0  0
 12 13  2  0  0  0  0
 13 14  1  0  0  0  0
  5 14  1  0  0  0  0
 13 15  1  0  0  0  0
 15 16  2  0  0  0  0
 16 17  1  0  0  0  0
 17 18  2  0  0  0  0
 18 19  1  0  0  0  0
 19 20  2  0  0  0  0
 15 20  1  0  0  0  0
 18 21  1  0  0  0  0
  4 22  1  0  0  0  0
 22 23  1  0  0  0  0
  1 24  1  0  0  0  0
  1 25  1  0  0  0  0
  1 26  1  0  0  0  0
  8 27  1  0  0  0  0
  9 28  1  0  0  0  0
 12 29  1  0  0  0  0
 16 30  1  0  0  0  0
 17 31  1  0  0  0  0
 19 32  1  0  0  0  0
 20 33  1  0  0  0  0
 21 34  1  0  0  0  0
 23 35  1  0  0  0  0
 23 36  1  0  0  0  0
 23 37  1  0  0  0  0
M  END
$$$$
