C25H24O5
APtclcactv06281817473D 0   0.00000     0.00000
 
 54 57  0  0  0  0  0  0  0  0999 V2000
   -3.5683   -3.7757    1.1753 C   0  0  0  0  0  0  0  0  0  0  0  0
   -4.0501   -3.3697   -0.1936 C   0  0  0  0  0  0  0  0  0  0  0  0
   -4.5975   -2.1932   -0.3731 C   0  0  0  0  0  0  0  0  0  0  0  0
   -4.6327   -1.1980    0.7580 C   0  0  0  0  0  0  0  0  0  0  0  0
   -4.0261    0.1036    0.3010 C   0  0  0  0  0  0  0  0  0  0  0  0
   -4.8285    1.0763   -0.2728 C   0  0  0  0  0  0  0  0  0  0  0  0
   -4.2876    2.2850   -0.6989 C   0  0  0  0  0  0  0  0  0  0  0  0
   -2.9337    2.5259   -0.5565 C   0  0  0  0  0  0  0  0  0  0  0  0
   -2.1163    1.5437    0.0158 C   0  0  0  0  0  0  0  0  0  0  0  0
   -2.6653    0.3277    0.4610 C   0  0  0  0  0  0  0  0  0  0  0  0
   -1.8824   -0.6078    1.0317 O   0  0  0  0  0  0  0  0  0  0  0  0
   -0.5550   -0.5663    0.9132 C   0  0  0  0  0  0  0  0  0  0  0  0
    0.1187    0.5405    0.5074 C   0  0  0  0  0  0  0  0  0  0  0  0
   -0.6655    1.7463    0.1694 C   0  0  0  0  0  0  0  0  0  0  0  0
   -0.1432    2.8378    0.0198 O   0  0  0  0  0  0  0  0  0  0  0  0
    1.5990    0.5405    0.4115 C   0  0  0  0  0  0  0  0  0  0  0  0
    2.2366   -0.2835   -0.5129 C   0  0  0  0  0  0  0  0  0  0  0  0
    3.6227   -0.2744   -0.5937 C   0  0  0  0  0  0  0  0  0  0  0  0
    4.3728    0.5588    0.2497 C   0  0  0  0  0  0  0  0  0  0  0  0
    3.7303    1.3732    1.1651 C   0  0  0  0  0  0  0  0  0  0  0  0
    2.3515    1.3702    1.2432 C   0  0  0  0  0  0  0  0  0  0  0  0
    5.7269    0.5453    0.1466 O   0  0  0  0  0  0  0  0  0  0  0  0
    6.3412   -0.6988   -0.1915 C   0  0  0  0  0  0  0  0  0  0  0  0
    5.6471   -1.3289   -1.3700 C   0  0  0  0  0  0  0  0  0  0  0  0
    4.3444   -1.1313   -1.5596 C   0  0  0  0  0  0  0  0  0  0  0  0
    7.8109   -0.4573   -0.5416 C   0  0  0  0  0  0  0  0  0  0  0  0
    6.2580   -1.6450    1.0080 C   0  0  0  0  0  0  0  0  0  0  0  0
   -2.4014    3.7042   -0.9683 O   0  0  0  0  0  0  0  0  0  0  0  0
   -6.1582    0.8471   -0.4214 O   0  0  0  0  0  0  0  0  0  0  0  0
   -3.9020   -4.3171   -1.3562 C   0  0  0  0  0  0  0  0  0  0  0  0
   -4.3846   -3.6789    1.8912 H   0  0  0  0  0  0  0  0  0  0  0  0
   -3.2291   -4.8112    1.1488 H   0  0  0  0  0  0  0  0  0  0  0  0
   -2.7428   -3.1306    1.4762 H   0  0  0  0  0  0  0  0  0  0  0  0
   -5.0237   -1.9364   -1.3317 H   0  0  0  0  0  0  0  0  0  0  0  0
   -5.6658   -1.0303    1.0625 H   0  0  0  0  0  0  0  0  0  0  0  0
   -4.0637   -1.5873    1.6023 H   0  0  0  0  0  0  0  0  0  0  0  0
   -4.9257    3.0356   -1.1415 H   0  0  0  0  0  0  0  0  0  0  0  0
    0.0110   -1.4547    1.1516 H   0  0  0  0  0  0  0  0  0  0  0  0
    1.6576   -0.9246   -1.1612 H   0  0  0  0  0  0  0  0  0  0  0  0
    4.3067    2.0150    1.8149 H   0  0  0  0  0  0  0  0  0  0  0  0
    1.8531    2.0072    1.9589 H   0  0  0  0  0  0  0  0  0  0  0  0
    6.2065   -1.9411   -2.0619 H   0  0  0  0  0  0  0  0  0  0  0  0
    3.8294   -1.5837   -2.3942 H   0  0  0  0  0  0  0  0  0  0  0  0
    8.3213   -0.0190    0.3160 H   0  0  0  0  0  0  0  0  0  0  0  0
    8.2832   -1.4049   -0.8003 H   0  0  0  0  0  0  0  0  0  0  0  0
    7.8751    0.2242   -1.3898 H   0  0  0  0  0  0  0  0  0  0  0  0
    5.2125   -1.8122    1.2670 H   0  0  0  0  0  0  0  0  0  0  0  0
    6.7260   -2.5960    0.7537 H   0  0  0  0  0  0  0  0  0  0  0  0
    6.7763   -1.2007    1.8578 H   0  0  0  0  0  0  0  0  0  0  0  0
   -2.3927    4.3911   -0.2878 H   0  0  0  0  0  0  0  0  0  0  0  0
   -6.6926    1.1285    0.3338 H   0  0  0  0  0  0  0  0  0  0  0  0
   -4.7906   -4.9441   -1.4294 H   0  0  0  0  0  0  0  0  0  0  0  0
   -3.7831   -3.7464   -2.2772 H   0  0  0  0  0  0  0  0  0  0  0  0
   -3.0252   -4.9462   -1.2028 H   0  0  0  0  0  0  0  0  0  0  0  0
  1  2  1  0  0  0  0
  2  3  2  0  0  0  0
  3  4  1  0  0  0  0
  4  5  1  0  0  0  0
  5  6  2  0  0  0  0
  6  7  1  0  0  0  0
  7  8  2  0  0  0  0
  8  9  1  0  0  0  0
  9 10  2  0  0  0  0
  5 10  1  0  0  0  0
 10 11  1  0  0  0  0
 11 12  1  0  0  0  0
 12 13  2  0  0  0  0
 13 14  1  0  0  0  0
  9 14  1  0  0  0  0
 14 15  2  0  0  0  0
 13 16  1  0  0  0  0
 16 17  2  0  0  0  0
 17 18  1  0  0  0  0
 18 19  2  0  0  0  0
 19 20  1  0  0  0  0
 20 21  2  0  0  0  0
 16 21  1  0  0  0  0
 19 22  1  0  0  0  0
 22 23  1  0  0  0  0
 23 24  1  0  0  0  0
 24 25  2  0  0  0  0
 18 25  1  0  0  0  0
 23 26  1  0  0  0  0
 23 27  1  0  0  0  0
  8 28  1  0  0  0  0
  6 29  1  0  0  0  0
  2 30  1  0  0  0  0
  1 31  1  0  0  0  0
  1 32  1  0  0  0  0
  1 33  1  0  0  0  0
  3 34  1  0  0  0  0
  4 35  1  0  0  0  0
  4 36  1  0  0  0  0
  7 37  1  0  0  0  0
 12 38  1  0  0  0  0
 17 39  1  0  0  0  0
 20 40  1  0  0  0  0
 21 41  1  0  0  0  0
 24 42  1  0  0  0  0
 25 43  1  0  0  0  0
 26 44  1  0  0  0  0
 26 45  1  0  0  0  0
 26 46  1  0  0  0  0
 27 47  1  0  0  0  0
 27 48  1  0  0  0  0
 27 49  1  0  0  0  0
 28 50  1  0  0  0  0
 29 51  1  0  0  0  0
 30 52  1  0  0  0  0
 30 53  1  0  0  0  0
 30 54  1  0  0  0  0
M  END
$$$$
