C10H10O
APtclcactv06281818023D 0   0.00000     0.00000
 
 21 21  0  0  0  0  0  0  0  0999 V2000
    3.2697    0.9320    0.9152 C   0  0  0  0  0  0  0  0  0  0  0  0
    2.5437    0.0543   -0.0715 C   0  0  0  0  0  0  0  0  0  0  0  0
    3.2278   -0.6277   -0.9818 C   0  0  0  0  0  0  0  0  0  0  0  0
    1.0718   -0.0470   -0.0256 C   0  0  0  0  0  0  0  0  0  0  0  0
    0.4654   -1.2652    0.2940 C   0  0  0  0  0  0  0  0  0  0  0  0
   -0.8962   -1.3604    0.3368 C   0  0  0  0  0  0  0  0  0  0  0  0
   -1.6850   -0.2367    0.0607 C   0  0  0  0  0  0  0  0  0  0  0  0
   -1.0761    0.9832   -0.2590 C   0  0  0  0  0  0  0  0  0  0  0  0
    0.2858    1.0767   -0.2963 C   0  0  0  0  0  0  0  0  0  0  0  0
   -3.1503   -0.3377    0.1059 C   0  0  0  0  0  0  0  0  0  0  0  0
   -3.8330    0.6359   -0.1334 O   0  0  0  0  0  0  0  0  0  0  0  0
    3.3699    1.9361    0.5032 H   0  0  0  0  0  0  0  0  0  0  0  0
    2.7049    0.9761    1.8465 H   0  0  0  0  0  0  0  0  0  0  0  0
    4.2593    0.5186    1.1097 H   0  0  0  0  0  0  0  0  0  0  0  0
    2.7076   -1.2567   -1.6890 H   0  0  0  0  0  0  0  0  0  0  0  0
    4.3048   -0.5535   -1.0154 H   0  0  0  0  0  0  0  0  0  0  0  0
    1.0739   -2.1316    0.5069 H   0  0  0  0  0  0  0  0  0  0  0  0
   -1.3645   -2.3019    0.5831 H   0  0  0  0  0  0  0  0  0  0  0  0
   -1.6832    1.8506   -0.4721 H   0  0  0  0  0  0  0  0  0  0  0  0
    0.7557    2.0174   -0.5427 H   0  0  0  0  0  0  0  0  0  0  0  0
   -3.6194   -1.2788    0.3521 H   0  0  0  0  0  0  0  0  0  0  0  0
  1  2  1  0  0  0  0
  2  3  2  0  0  0  0
  2  4  1  0  0  0  0
  4  5  2  0  0  0  0
  5  6  1  0  0  0  0
  6  7  2  0  0  0  0
  7  8  1  0  0  0  0
  8  9  2  0  0  0  0
  4  9  1  0  0  0  0
  7 10  1  0  0  0  0
 10 11  2  0  0  0  0
  1 12  1  0  0  0  0
  1 13  1  0  0  0  0
  1 14  1  0  0  0  0
  3 15  1  0  0  0  0
  3 16  1  0  0  0  0
  5 17  1  0  0  0  0
  6 18  1  0  0  0  0
  8 19  1  0  0  0  0
  9 20  1  0  0  0  0
 10 21  1  0  0  0  0
M  END
$$$$
