C14H17NO8
APtclcactv06291801013D 0   0.00000     0.00000
 
 40 42  0  0  0  0  0  0  0  0999 V2000
   -5.0933   -1.3749   -0.1798 C   0  0  0  0  0  0  0  0  0  0  0  0
   -4.5031   -1.7711    1.0058 C   0  0  0  0  0  0  0  0  0  0  0  0
   -3.3763   -1.1199    1.4748 C   0  0  0  0  0  0  0  0  0  0  0  0
   -2.8373   -0.0684    0.7543 C   0  0  0  0  0  0  0  0  0  0  0  0
   -3.4247    0.3230   -0.4472 C   0  0  0  0  0  0  0  0  0  0  0  0
   -4.5569   -0.3286   -0.9082 C   0  0  0  0  0  0  0  0  0  0  0  0
   -2.8505    1.3646   -1.1886 N   0  0  0  0  0  0  0  0  0  0  0  0
   -1.6307    1.8260   -0.8417 C   0  0  0  0  0  0  0  0  0  0  0  0
   -1.1654    2.7963   -1.4013 O   0  0  0  0  0  0  0  0  0  0  0  0
   -0.8485    1.1317    0.2443 C   0  0  0  0  0  0  0  0  0  0  0  0
   -1.7474    0.5992    1.2197 O   0  0  0  0  0  0  0  0  0  0  0  0
   -0.0824    0.0691   -0.3267 O   0  0  0  0  0  0  0  0  0  0  0  0
    0.7855   -0.5853    0.6009 C   0  0  0  0  0  0  0  0  0  0  0  0
    1.4588   -1.7776   -0.0838 C   0  0  0  0  0  0  0  0  0  0  0  0
    2.3181   -1.2706   -1.2461 C   0  0  0  0  0  0  0  0  0  0  0  0
    3.3346   -0.2573   -0.7110 C   0  0  0  0  0  0  0  0  0  0  0  0
    2.5889    0.8762   -0.0021 C   0  0  0  0  0  0  0  0  0  0  0  0
    1.7853    0.3329    1.0473 O   0  0  0  0  0  0  0  0  0  0  0  0
    3.5998    1.8618    0.5874 C   0  0  0  0  0  0  0  0  0  0  0  0
    2.9057    2.9784    1.1472 O   0  0  0  0  0  0  0  0  0  0  0  0
    4.2116   -0.9036    0.2138 O   0  0  0  0  0  0  0  0  0  0  0  0
    3.0081   -2.3692   -1.8452 O   0  0  0  0  0  0  0  0  0  0  0  0
    2.2861   -2.4642    0.8577 O   0  0  0  0  0  0  0  0  0  0  0  0
   -5.9732   -1.8867   -0.5405 H   0  0  0  0  0  0  0  0  0  0  0  0
   -4.9234   -2.5919    1.5681 H   0  0  0  0  0  0  0  0  0  0  0  0
   -2.9181   -1.4314    2.4020 H   0  0  0  0  0  0  0  0  0  0  0  0
   -5.0192   -0.0210   -1.8345 H   0  0  0  0  0  0  0  0  0  0  0  0
   -3.3243    1.7492   -1.9426 H   0  0  0  0  0  0  0  0  0  0  0  0
   -0.1774    1.8461    0.7212 H   0  0  0  0  0  0  0  0  0  0  0  0
    0.2065   -0.9361    1.4551 H   0  0  0  0  0  0  0  0  0  0  0  0
    0.6964   -2.4575   -0.4639 H   0  0  0  0  0  0  0  0  0  0  0  0
    1.6806   -0.7902   -1.9883 H   0  0  0  0  0  0  0  0  0  0  0  0
    3.9137    0.1500   -1.5397 H   0  0  0  0  0  0  0  0  0  0  0  0
    1.9504    1.3945   -0.7176 H   0  0  0  0  0  0  0  0  0  0  0  0
    4.1786    1.3660    1.3667 H   0  0  0  0  0  0  0  0  0  0  0  0
    4.2707    2.2080   -0.1988 H   0  0  0  0  0  0  0  0  0  0  0  0
    3.4855    3.6453    1.5400 H   0  0  0  0  0  0  0  0  0  0  0  0
    4.7138   -1.6370   -0.1671 H   0  0  0  0  0  0  0  0  0  0  0  0
    2.4246   -3.0538   -2.2000 H   0  0  0  0  0  0  0  0  0  0  0  0
    1.8075   -2.8087    1.6240 H   0  0  0  0  0  0  0  0  0  0  0  0
  1  2  2  0  0  0  0
  2  3  1  0  0  0  0
  3  4  2  0  0  0  0
  4  5  1  0  0  0  0
  5  6  2  0  0  0  0
  1  6  1  0  0  0  0
  5  7  1  0  0  0  0
  7  8  1  0  0  0  0
  8  9  2  0  0  0  0
  8 10  1  0  0  0  0
 10 11  1  0  0  0  0
  4 11  1  0  0  0  0
 10 12  1  0  0  0  0
 12 13  1  0  0  0  0
 13 14  1  0  0  0  0
 14 15  1  0  0  0  0
 15 16  1  0  0  0  0
 16 17  1  0  0  0  0
 17 18  1  0  0  0  0
 13 18  1  0  0  0  0
 17 19  1  0  0  0  0
 19 20  1  0  0  0  0
 16 21  1  0  0  0  0
 15 22  1  0  0  0  0
 14 23  1  0  0  0  0
  1 24  1  0  0  0  0
  2 25  1  0  0  0  0
  3 26  1  0  0  0  0
  6 27  1  0  0  0  0
  7 28  1  0  0  0  0
 10 29  1  0  0  0  0
 13 30  1  0  0  0  0
 14 31  1  0  0  0  0
 15 32  1  0  0  0  0
 16 33  1  0  0  0  0
 17 34  1  0  0  0  0
 19 35  1  0  0  0  0
 19 36  1  0  0  0  0
 20 37  1  0  0  0  0
 21 38  1  0  0  0  0
 22 39  1  0  0  0  0
 23 40  1  0  0  0  0
M  END
$$$$
