C20H18O6
APtclcactv06281818073D 0   0.00000     0.00000
 
 44 46  0  0  0  0  0  0  0  0999 V2000
    3.1217   -3.5380   -1.1627 C   0  0  0  0  0  0  0  0  0  0  0  0
    3.5620   -3.0512    0.1939 C   0  0  0  0  0  0  0  0  0  0  0  0
    3.9395   -1.8069    0.3525 C   0  0  0  0  0  0  0  0  0  0  0  0
    3.8154   -0.8305   -0.7888 C   0  0  0  0  0  0  0  0  0  0  0  0
    3.0373    0.3773   -0.3342 C   0  0  0  0  0  0  0  0  0  0  0  0
    3.7021    1.4609    0.2162 C   0  0  0  0  0  0  0  0  0  0  0  0
    3.0016    2.5855    0.6400 C   0  0  0  0  0  0  0  0  0  0  0  0
    1.6251    2.6299    0.5187 C   0  0  0  0  0  0  0  0  0  0  0  0
    0.9468    1.5348   -0.0300 C   0  0  0  0  0  0  0  0  0  0  0  0
    1.6561    0.4040   -0.4733 C   0  0  0  0  0  0  0  0  0  0  0  0
    1.0054   -0.6399   -1.0213 O   0  0  0  0  0  0  0  0  0  0  0  0
   -0.3124   -0.7862   -0.8799 C   0  0  0  0  0  0  0  0  0  0  0  0
   -1.1301    0.2182   -0.4723 C   0  0  0  0  0  0  0  0  0  0  0  0
   -0.5203    1.5274   -0.1603 C   0  0  0  0  0  0  0  0  0  0  0  0
   -1.1904    2.5350   -0.0110 O   0  0  0  0  0  0  0  0  0  0  0  0
   -2.5935    0.0087   -0.3499 C   0  0  0  0  0  0  0  0  0  0  0  0
   -3.0938   -0.8871    0.5933 C   0  0  0  0  0  0  0  0  0  0  0  0
   -4.4594   -1.0793    0.7046 C   0  0  0  0  0  0  0  0  0  0  0  0
   -5.3305   -0.3782   -0.1249 C   0  0  0  0  0  0  0  0  0  0  0  0
   -4.8318    0.5123   -1.0632 C   0  0  0  0  0  0  0  0  0  0  0  0
   -3.4705    0.7116   -1.1740 C   0  0  0  0  0  0  0  0  0  0  0  0
   -6.6728   -0.5676   -0.0149 O   0  0  0  0  0  0  0  0  0  0  0  0
   -4.9506   -1.9530    1.6238 O   0  0  0  0  0  0  0  0  0  0  0  0
    0.9372    3.7255    0.9284 O   0  0  0  0  0  0  0  0  0  0  0  0
    5.0530    1.4246    0.3440 O   0  0  0  0  0  0  0  0  0  0  0  0
    3.5681   -3.9960    1.3680 C   0  0  0  0  0  0  0  0  0  0  0  0
    3.9047   -3.3351   -1.8933 H   0  0  0  0  0  0  0  0  0  0  0  0
    2.9335   -4.6108   -1.1202 H   0  0  0  0  0  0  0  0  0  0  0  0
    2.2084   -3.0202   -1.4557 H   0  0  0  0  0  0  0  0  0  0  0  0
    4.3396   -1.4806    1.3011 H   0  0  0  0  0  0  0  0  0  0  0  0
    4.8094   -0.5217   -1.1124 H   0  0  0  0  0  0  0  0  0  0  0  0
    3.2946   -1.3069   -1.6194 H   0  0  0  0  0  0  0  0  0  0  0  0
    3.5333    3.4243    1.0643 H   0  0  0  0  0  0  0  0  0  0  0  0
   -0.7498   -1.7487   -1.1003 H   0  0  0  0  0  0  0  0  0  0  0  0
   -2.4168   -1.4304    1.2358 H   0  0  0  0  0  0  0  0  0  0  0  0
   -5.5100    1.0544   -1.7055 H   0  0  0  0  0  0  0  0  0  0  0  0
   -3.0844    1.4061   -1.9055 H   0  0  0  0  0  0  0  0  0  0  0  0
   -7.1041    0.0287    0.6124 H   0  0  0  0  0  0  0  0  0  0  0  0
   -5.1357   -1.5548    2.4853 H   0  0  0  0  0  0  0  0  0  0  0  0
    0.8202    4.3961    0.2416 H   0  0  0  0  0  0  0  0  0  0  0  0
    5.5301    1.7700   -0.4229 H   0  0  0  0  0  0  0  0  0  0  0  0
    3.2252   -4.9790    1.0451 H   0  0  0  0  0  0  0  0  0  0  0  0
    4.5803   -4.0763    1.7644 H   0  0  0  0  0  0  0  0  0  0  0  0
    2.9032   -3.6159    2.1436 H   0  0  0  0  0  0  0  0  0  0  0  0
  1  2  1  0  0  0  0
  2  3  2  0  0  0  0
  3  4  1  0  0  0  0
  4  5  1  0  0  0  0
  5  6  2  0  0  0  0
  6  7  1  0  0  0  0
  7  8  2  0  0  0  0
  8  9  1  0  0  0  0
  9 10  2  0  0  0  0
  5 10  1  0  0  0  0
 10 11  1  0  0  0  0
 11 12  1  0  0  0  0
 12 13  2  0  0  0  0
 13 14  1  0  0  0  0
  9 14  1  0  0  0  0
 14 15  2  0  0  0  0
 13 16  1  0  0  0  0
 16 17  2  0  0  0  0
 17 18  1  0  0  0  0
 18 19  2  0  0  0  0
 19 20  1  0  0  0  0
 20 21  2  0  0  0  0
 16 21  1  0  0  0  0
 19 22  1  0  0  0  0
 18 23  1  0  0  0  0
  8 24  1  0  0  0  0
  6 25  1  0  0  0  0
  2 26  1  0  0  0  0
  1 27  1  0  0  0  0
  1 28  1  0  0  0  0
  1 29  1  0  0  0  0
  3 30  1  0  0  0  0
  4 31  1  0  0  0  0
  4 32  1  0  0  0  0
  7 33  1  0  0  0  0
 12 34  1  0  0  0  0
 17 35  1  0  0  0  0
 20 36  1  0  0  0  0
 21 37  1  0  0  0  0
 22 38  1  0  0  0  0
 23 39  1  0  0  0  0
 24 40  1  0  0  0  0
 25 41  1  0  0  0  0
 26 42  1  0  0  0  0
 26 43  1  0  0  0  0
 26 44  1  0  0  0  0
M  END
$$$$
