C19H22O6
APtclcactv06291801013D 0   0.00000     0.00000
 
 47 51  0  0  0  0  0  0  0  0999 V2000
    2.8177    1.7010   -0.3502 C   0  0  0  0  0  0  0  0  0  0  0  0
    2.3189    0.2727   -0.1222 C   0  0  0  0  0  0  0  0  0  0  0  0
    3.3679   -0.7925   -0.4949 C   0  0  0  0  0  0  0  0  0  0  0  0
    2.7677   -2.1648   -0.5933 C   0  0  0  0  0  0  0  0  0  0  0  0
    1.4918   -2.4288   -0.4235 C   0  0  0  0  0  0  0  0  0  0  0  0
    0.5875   -1.2933   -0.0903 C   0  0  0  0  0  0  0  0  0  0  0  0
    1.0713   -0.0727   -0.9659 C   0  0  0  0  0  0  0  0  0  0  0  0
   -0.0736    0.9424   -0.7970 C   0  0  0  0  0  0  0  0  0  0  0  0
   -1.2957    0.1227   -0.3991 C   0  0  0  0  0  0  0  0  0  0  0  0
   -0.8684   -1.3559   -0.4434 C   0  0  0  0  0  0  0  0  0  0  0  0
   -1.7721   -2.3124    0.2359 C   0  0  0  0  0  0  0  0  0  0  0  0
   -2.7259   -1.7750    1.2786 C   0  0  0  0  0  0  0  0  0  0  0  0
   -3.0861   -0.3061    1.0754 C   0  0  0  0  0  0  0  0  0  0  0  0
   -1.7365    0.4658    1.0412 C   0  0  0  0  0  0  0  0  0  0  0  0
   -3.6924   -0.0786   -0.2968 C   0  0  0  0  0  0  0  0  0  0  0  0
   -4.9583   -0.1900   -0.6149 C   0  0  0  0  0  0  0  0  0  0  0  0
   -2.5539    0.3039   -1.2371 C   0  0  0  0  0  0  0  0  0  0  0  0
   -2.6854    1.6647   -1.6531 O   0  0  0  0  0  0  0  0  0  0  0  0
    0.2646    1.9327    0.2874 C   0  0  0  0  0  0  0  0  0  0  0  0
    0.2590    1.5864    1.4450 O   0  0  0  0  0  0  0  0  0  0  0  0
    0.5719    3.1996   -0.0326 O   0  0  0  0  0  0  0  0  0  0  0  0
    0.8296   -0.8516    1.2748 O   0  0  0  0  0  0  0  0  0  0  0  0
    1.8760    0.0237    1.3089 C   0  0  0  0  0  0  0  0  0  0  0  0
    2.3549    0.5082    2.3068 O   0  0  0  0  0  0  0  0  0  0  0  0
    3.9513   -0.4494   -1.7535 O   0  0  0  0  0  0  0  0  0  0  0  0
    2.6598    1.9790   -1.3922 H   0  0  0  0  0  0  0  0  0  0  0  0
    2.2678    2.3854    0.2958 H   0  0  0  0  0  0  0  0  0  0  0  0
    3.8810    1.7562   -0.1166 H   0  0  0  0  0  0  0  0  0  0  0  0
    4.1492   -0.8014    0.2652 H   0  0  0  0  0  0  0  0  0  0  0  0
    3.4278   -2.9893   -0.8190 H   0  0  0  0  0  0  0  0  0  0  0  0
    1.1119   -3.4350   -0.5217 H   0  0  0  0  0  0  0  0  0  0  0  0
    1.2979   -0.3240   -2.0020 H   0  0  0  0  0  0  0  0  0  0  0  0
   -0.2583    1.4615   -1.7375 H   0  0  0  0  0  0  0  0  0  0  0  0
   -0.9003   -1.6297   -1.4980 H   0  0  0  0  0  0  0  0  0  0  0  0
   -2.3656   -2.8097   -0.5312 H   0  0  0  0  0  0  0  0  0  0  0  0
   -1.1528   -3.0718    0.7132 H   0  0  0  0  0  0  0  0  0  0  0  0
   -3.6415   -2.3657    1.2516 H   0  0  0  0  0  0  0  0  0  0  0  0
   -2.2690   -1.8894    2.2616 H   0  0  0  0  0  0  0  0  0  0  0  0
   -3.7331    0.0574    1.8737 H   0  0  0  0  0  0  0  0  0  0  0  0
   -1.0343    0.0744    1.7773 H   0  0  0  0  0  0  0  0  0  0  0  0
   -1.8866    1.5379    1.1679 H   0  0  0  0  0  0  0  0  0  0  0  0
   -5.6815   -0.4687    0.1372 H   0  0  0  0  0  0  0  0  0  0  0  0
   -5.2787   -0.0033   -1.6292 H   0  0  0  0  0  0  0  0  0  0  0  0
   -2.5347   -0.3596   -2.1017 H   0  0  0  0  0  0  0  0  0  0  0  0
   -3.4982    1.8493   -2.1434 H   0  0  0  0  0  0  0  0  0  0  0  0
    0.8509    3.7794    0.6892 H   0  0  0  0  0  0  0  0  0  0  0  0
    4.6239   -1.0737   -2.0585 H   0  0  0  0  0  0  0  0  0  0  0  0
  1  2  1  0  0  0  0
  2  3  1  0  0  0  0
  3  4  1  0  0  0  0
  4  5  2  0  0  0  0
  5  6  1  0  0  0  0
  6  7  1  0  0  0  0
  2  7  1  0  0  0  0
  7  8  1  0  0  0  0
  8  9  1  0  0  0  0
  9 10  1  0  0  0  0
  6 10  1  0  0  0  0
 10 11  1  0  0  0  0
 11 12  1  0  0  0  0
 12 13  1  0  0  0  0
 13 14  1  0  0  0  0
  9 14  1  0  0  0  0
 13 15  1  0  0  0  0
 15 16  2  0  0  0  0
 15 17  1  0  0  0  0
  9 17  1  0  0  0  0
 17 18  1  0  0  0  0
  8 19  1  0  0  0  0
 19 20  2  0  0  0  0
 19 21  1  0  0  0  0
  6 22  1  0  0  0  0
 22 23  1  0  0  0  0
  2 23  1  0  0  0  0
 23 24  2  0  0  0  0
  3 25  1  0  0  0  0
  1 26  1  0  0  0  0
  1 27  1  0  0  0  0
  1 28  1  0  0  0  0
  3 29  1  0  0  0  0
  4 30  1  0  0  0  0
  5 31  1  0  0  0  0
  7 32  1  0  0  0  0
  8 33  1  0  0  0  0
 10 34  1  0  0  0  0
 11 35  1  0  0  0  0
 11 36  1  0  0  0  0
 12 37  1  0  0  0  0
 12 38  1  0  0  0  0
 13 39  1  0  0  0  0
 14 40  1  0  0  0  0
 14 41  1  0  0  0  0
 16 42  1  0  0  0  0
 16 43  1  0  0  0  0
 17 44  1  0  0  0  0
 18 45  1  0  0  0  0
 21 46  1  0  0  0  0
 25 47  1  0  0  0  0
M  END
$$$$
