C21H22O8
APtclcactv06211806393D 0   0.00000     0.00000
 
 51 53  0  0  0  0  0  0  0  0999 V2000
   -6.8785    0.3667   -1.3303 C   0  0  0  0  0  0  0  0  0  0  0  0
   -6.1394   -0.4275   -0.4001 O   0  0  0  0  0  0  0  0  0  0  0  0
   -4.7996   -0.2114   -0.3325 C   0  0  0  0  0  0  0  0  0  0  0  0
   -4.0200   -0.9522    0.5540 C   0  0  0  0  0  0  0  0  0  0  0  0
   -2.6573   -0.7343    0.6240 C   0  0  0  0  0  0  0  0  0  0  0  0
   -2.0641    0.2300   -0.1958 C   0  0  0  0  0  0  0  0  0  0  0  0
   -2.8522    0.9691   -1.0824 C   0  0  0  0  0  0  0  0  0  0  0  0
   -4.2101    0.7425   -1.1504 C   0  0  0  0  0  0  0  0  0  0  0  0
   -0.6105    0.4672   -0.1251 C   0  0  0  0  0  0  0  0  0  0  0  0
   -0.1582    1.7500   -0.0417 C   0  0  0  0  0  0  0  0  0  0  0  0
    1.2375    1.9951    0.0271 C   0  0  0  0  0  0  0  0  0  0  0  0
    1.6789    3.1306    0.1030 O   0  0  0  0  0  0  0  0  0  0  0  0
    2.1325    0.8269    0.0038 C   0  0  0  0  0  0  0  0  0  0  0  0
    1.5616   -0.4546   -0.0843 C   0  0  0  0  0  0  0  0  0  0  0  0
    0.2192   -0.5900   -0.1397 O   0  0  0  0  0  0  0  0  0  0  0  0
    2.3899   -1.5703   -0.1077 C   0  0  0  0  0  0  0  0  0  0  0  0
    3.7680   -1.4124   -0.0442 C   0  0  0  0  0  0  0  0  0  0  0  0
    4.3323   -0.1444    0.0429 C   0  0  0  0  0  0  0  0  0  0  0  0
    3.5239    0.9764    0.0669 C   0  0  0  0  0  0  0  0  0  0  0  0
    4.0751    2.2146    0.1517 O   0  0  0  0  0  0  0  0  0  0  0  0
    5.5009    2.2874    0.2128 C   0  0  0  0  0  0  0  0  0  0  0  0
    4.5726   -2.5069   -0.0671 O   0  0  0  0  0  0  0  0  0  0  0  0
    5.9815   -2.2780    0.0012 C   0  0  0  0  0  0  0  0  0  0  0  0
    1.8504   -2.8176   -0.1924 O   0  0  0  0  0  0  0  0  0  0  0  0
    1.6441   -3.3476   -1.5033 C   0  0  0  0  0  0  0  0  0  0  0  0
   -1.0385    2.7878   -0.0250 O   0  0  0  0  0  0  0  0  0  0  0  0
   -1.1042    3.5634    1.1734 C   0  0  0  0  0  0  0  0  0  0  0  0
   -4.6005   -1.8892    1.3504 O   0  0  0  0  0  0  0  0  0  0  0  0
   -3.7413   -2.6112    2.2350 C   0  0  0  0  0  0  0  0  0  0  0  0
   -6.5021    0.1905   -2.3380 H   0  0  0  0  0  0  0  0  0  0  0  0
   -7.9328    0.0942   -1.2834 H   0  0  0  0  0  0  0  0  0  0  0  0
   -6.7642    1.4211   -1.0790 H   0  0  0  0  0  0  0  0  0  0  0  0
   -2.0521   -1.3074    1.3108 H   0  0  0  0  0  0  0  0  0  0  0  0
   -2.3968    1.7151   -1.7168 H   0  0  0  0  0  0  0  0  0  0  0  0
   -4.8180    1.3140   -1.8361 H   0  0  0  0  0  0  0  0  0  0  0  0
    5.4056   -0.0351    0.0917 H   0  0  0  0  0  0  0  0  0  0  0  0
    5.8090    3.3309    0.2779 H   0  0  0  0  0  0  0  0  0  0  0  0
    5.8548    1.7485    1.0917 H   0  0  0  0  0  0  0  0  0  0  0  0
    5.9264    1.8382   -0.6846 H   0  0  0  0  0  0  0  0  0  0  0  0
    6.2206   -1.7581    0.9289 H   0  0  0  0  0  0  0  0  0  0  0  0
    6.5065   -3.2329   -0.0258 H   0  0  0  0  0  0  0  0  0  0  0  0
    6.2921   -1.6685   -0.8473 H   0  0  0  0  0  0  0  0  0  0  0  0
    1.2102   -4.3447   -1.4280 H   0  0  0  0  0  0  0  0  0  0  0  0
    0.9659   -2.6971   -2.0556 H   0  0  0  0  0  0  0  0  0  0  0  0
    2.5987   -3.4053   -2.0263 H   0  0  0  0  0  0  0  0  0  0  0  0
   -1.9111    4.2916    1.0911 H   0  0  0  0  0  0  0  0  0  0  0  0
   -1.2933    2.9059    2.0219 H   0  0  0  0  0  0  0  0  0  0  0  0
   -0.1583    4.0845    1.3213 H   0  0  0  0  0  0  0  0  0  0  0  0
   -4.3300   -3.3250    2.8113 H   0  0  0  0  0  0  0  0  0  0  0  0
   -2.9887   -3.1454    1.6550 H   0  0  0  0  0  0  0  0  0  0  0  0
   -3.2497   -1.9140    2.9135 H   0  0  0  0  0  0  0  0  0  0  0  0
  1  2  1  0  0  0  0
  2  3  1  0  0  0  0
  3  4  2  0  0  0  0
  4  5  1  0  0  0  0
  5  6  2  0  0  0  0
  6  7  1  0  0  0  0
  7  8  2  0  0  0  0
  3  8  1  0  0  0  0
  6  9  1  0  0  0  0
  9 10  2  0  0  0  0
 10 11  1  0  0  0  0
 11 12  2  0  0  0  0
 11 13  1  0  0  0  0
 13 14  2  0  0  0  0
 14 15  1  0  0  0  0
  9 15  1  0  0  0  0
 14 16  1  0  0  0  0
 16 17  2  0  0  0  0
 17 18  1  0  0  0  0
 18 19  2  0  0  0  0
 13 19  1  0  0  0  0
 19 20  1  0  0  0  0
 20 21  1  0  0  0  0
 17 22  1  0  0  0  0
 22 23  1  0  0  0  0
 16 24  1  0  0  0  0
 24 25  1  0  0  0  0
 10 26  1  0  0  0  0
 26 27  1  0  0  0  0
  4 28  1  0  0  0  0
 28 29  1  0  0  0  0
  1 30  1  0  0  0  0
  1 31  1  0  0  0  0
  1 32  1  0  0  0  0
  5 33  1  0  0  0  0
  7 34  1  0  0  0  0
  8 35  1  0  0  0  0
 18 36  1  0  0  0  0
 21 37  1  0  0  0  0
 21 38  1  0  0  0  0
 21 39  1  0  0  0  0
 23 40  1  0  0  0  0
 23 41  1  0  0  0  0
 23 42  1  0  0  0  0
 25 43  1  0  0  0  0
 25 44  1  0  0  0  0
 25 45  1  0  0  0  0
 27 46  1  0  0  0  0
 27 47  1  0  0  0  0
 27 48  1  0  0  0  0
 29 49  1  0  0  0  0
 29 50  1  0  0  0  0
 29 51  1  0  0  0  0
M  END
$$$$
