C20H26O5
APtclcactv06291801013D 0   0.00000     0.00000
 
 51 55  0  0  0  0  0  0  0  0999 V2000
    2.4442    1.8755    0.7221 C   0  0  0  0  0  0  0  0  0  0  0  0
    2.1606    0.4504    0.2430 C   0  0  0  0  0  0  0  0  0  0  0  0
    2.9178   -0.5832    1.1075 C   0  0  0  0  0  0  0  0  0  0  0  0
    2.6119   -2.0008    0.6295 C   0  0  0  0  0  0  0  0  0  0  0  0
    1.1051   -2.2972    0.6518 C   0  0  0  0  0  0  0  0  0  0  0  0
    0.4116   -1.2754   -0.2285 C   0  0  0  0  0  0  0  0  0  0  0  0
    0.6973    0.1211    0.3764 C   0  0  0  0  0  0  0  0  0  0  0  0
   -0.3331    1.0160   -0.3157 C   0  0  0  0  0  0  0  0  0  0  0  0
   -1.5808    0.1363   -0.2276 C   0  0  0  0  0  0  0  0  0  0  0  0
   -1.1121   -1.3396   -0.2629 C   0  0  0  0  0  0  0  0  0  0  0  0
   -1.7271   -2.0591    0.9319 C   0  0  0  0  0  0  0  0  0  0  0  0
   -3.2574   -1.9252    0.8351 C   0  0  0  0  0  0  0  0  0  0  0  0
   -3.6271   -0.4303    0.8282 C   0  0  0  0  0  0  0  0  0  0  0  0
   -2.3090    0.3435    1.1217 C   0  0  0  0  0  0  0  0  0  0  0  0
   -3.9628   -0.0332   -0.6055 C   0  0  0  0  0  0  0  0  0  0  0  0
   -5.1516   -0.0365   -1.1559 C   0  0  0  0  0  0  0  0  0  0  0  0
   -2.6548    0.3682   -1.2775 C   0  0  0  0  0  0  0  0  0  0  0  0
   -0.5242    2.3078    0.4365 C   0  0  0  0  0  0  0  0  0  0  0  0
   -0.3489    2.3427    1.6314 O   0  0  0  0  0  0  0  0  0  0  0  0
   -0.8891    3.4197   -0.2211 O   0  0  0  0  0  0  0  0  0  0  0  0
    0.9287   -1.3469   -1.6656 C   0  0  0  0  0  0  0  0  0  0  0  0
    2.3231   -0.9547   -1.7399 O   0  0  0  0  0  0  0  0  0  0  0  0
    2.6201    0.2613   -1.1888 C   0  0  0  0  0  0  0  0  0  0  0  0
    3.1992    1.1204   -1.8104 O   0  0  0  0  0  0  0  0  0  0  0  0
    4.3231   -0.3437    1.0086 O   0  0  0  0  0  0  0  0  0  0  0  0
    3.5198    2.0520    0.7204 H   0  0  0  0  0  0  0  0  0  0  0  0
    1.9583    2.5868    0.0542 H   0  0  0  0  0  0  0  0  0  0  0  0
    2.0566    2.0029    1.7328 H   0  0  0  0  0  0  0  0  0  0  0  0
    2.6091   -0.4788    2.1476 H   0  0  0  0  0  0  0  0  0  0  0  0
    2.9823   -2.1200   -0.3887 H   0  0  0  0  0  0  0  0  0  0  0  0
    3.1235   -2.7123    1.2776 H   0  0  0  0  0  0  0  0  0  0  0  0
    0.9214   -3.3002    0.2667 H   0  0  0  0  0  0  0  0  0  0  0  0
    0.7296   -2.2194    1.6721 H   0  0  0  0  0  0  0  0  0  0  0  0
    0.4477    0.0878    1.4370 H   0  0  0  0  0  0  0  0  0  0  0  0
   -0.0570    1.2043   -1.3532 H   0  0  0  0  0  0  0  0  0  0  0  0
   -1.4411   -1.8097   -1.1896 H   0  0  0  0  0  0  0  0  0  0  0  0
   -1.4477   -3.1125    0.9110 H   0  0  0  0  0  0  0  0  0  0  0  0
   -1.3755   -1.6027    1.8573 H   0  0  0  0  0  0  0  0  0  0  0  0
   -3.6072   -2.3921   -0.0856 H   0  0  0  0  0  0  0  0  0  0  0  0
   -3.7215   -2.4122    1.6927 H   0  0  0  0  0  0  0  0  0  0  0  0
   -4.4206   -0.1931    1.5368 H   0  0  0  0  0  0  0  0  0  0  0  0
   -1.7569   -0.1103    1.9447 H   0  0  0  0  0  0  0  0  0  0  0  0
   -2.5021    1.3994    1.3108 H   0  0  0  0  0  0  0  0  0  0  0  0
   -6.0125   -0.3423   -0.5799 H   0  0  0  0  0  0  0  0  0  0  0  0
   -5.2707    0.2666   -2.1856 H   0  0  0  0  0  0  0  0  0  0  0  0
   -2.6836    1.4197   -1.5633 H   0  0  0  0  0  0  0  0  0  0  0  0
   -2.4710   -0.2571   -2.1511 H   0  0  0  0  0  0  0  0  0  0  0  0
   -0.9994    4.2241    0.3041 H   0  0  0  0  0  0  0  0  0  0  0  0
    0.8245   -2.3680   -2.0326 H   0  0  0  0  0  0  0  0  0  0  0  0
    0.3360   -0.6806   -2.2923 H   0  0  0  0  0  0  0  0  0  0  0  0
    4.8638   -0.9557    1.5264 H   0  0  0  0  0  0  0  0  0  0  0  0
  1  2  1  0  0  0  0
  2  3  1  0  0  0  0
  3  4  1  0  0  0  0
  4  5  1  0  0  0  0
  5  6  1  0  0  0  0
  6  7  1  0  0  0  0
  2  7  1  0  0  0  0
  7  8  1  0  0  0  0
  8  9  1  0  0  0  0
  9 10  1  0  0  0  0
  6 10  1  0  0  0  0
 10 11  1  0  0  0  0
 11 12  1  0  0  0  0
 12 13  1  0  0  0  0
 13 14  1  0  0  0  0
  9 14  1  0  0  0  0
 13 15  1  0  0  0  0
 15 16  2  0  0  0  0
 15 17  1  0  0  0  0
  9 17  1  0  0  0  0
  8 18  1  0  0  0  0
 18 19  2  0  0  0  0
 18 20  1  0  0  0  0
  6 21  1  0  0  0  0
 21 22  1  0  0  0  0
 22 23  1  0  0  0  0
  2 23  1  0  0  0  0
 23 24  2  0  0  0  0
  3 25  1  0  0  0  0
  1 26  1  0  0  0  0
  1 27  1  0  0  0  0
  1 28  1  0  0  0  0
  3 29  1  0  0  0  0
  4 30  1  0  0  0  0
  4 31  1  0  0  0  0
  5 32  1  0  0  0  0
  5 33  1  0  0  0  0
  7 34  1  0  0  0  0
  8 35  1  0  0  0  0
 10 36  1  0  0  0  0
 11 37  1  0  0  0  0
 11 38  1  0  0  0  0
 12 39  1  0  0  0  0
 12 40  1  0  0  0  0
 13 41  1  0  0  0  0
 14 42  1  0  0  0  0
 14 43  1  0  0  0  0
 16 44  1  0  0  0  0
 16 45  1  0  0  0  0
 17 46  1  0  0  0  0
 17 47  1  0  0  0  0
 20 48  1  0  0  0  0
 21 49  1  0  0  0  0
 21 50  1  0  0  0  0
 25 51  1  0  0  0  0
M  END
$$$$
