C15H10O5
APtclcactv06211806393D 0   0.00000     0.00000
 
 30 32  0  0  0  0  0  0  0  0999 V2000
    4.4956    0.9748   -1.2070 C   0  0  0  0  0  0  0  0  0  0  0  0
    3.9525    0.6598    0.0767 O   0  0  0  0  0  0  0  0  0  0  0  0
    2.7034    0.1258    0.1039 C   0  0  0  0  0  0  0  0  0  0  0  0
    2.5385   -1.2529    0.0457 C   0  0  0  0  0  0  0  0  0  0  0  0
    1.2657   -1.8115    0.0725 C   0  0  0  0  0  0  0  0  0  0  0  0
    0.1479   -0.9900    0.1581 C   0  0  0  0  0  0  0  0  0  0  0  0
    0.3082    0.4111    0.2183 C   0  0  0  0  0  0  0  0  0  0  0  0
    1.5905    0.9641    0.1961 C   0  0  0  0  0  0  0  0  0  0  0  0
    1.7536    2.3094    0.2540 O   0  0  0  0  0  0  0  0  0  0  0  0
   -0.8791    1.2785    0.3083 C   0  0  0  0  0  0  0  0  0  0  0  0
   -0.7629    2.4506    0.6103 O   0  0  0  0  0  0  0  0  0  0  0  0
   -2.2149    0.7072    0.0264 C   0  0  0  0  0  0  0  0  0  0  0  0
   -3.3104    1.5377   -0.1804 C   0  0  0  0  0  0  0  0  0  0  0  0
   -4.5527    0.9855   -0.4431 C   0  0  0  0  0  0  0  0  0  0  0  0
   -4.7119   -0.3867   -0.5008 C   0  0  0  0  0  0  0  0  0  0  0  0
   -3.6312   -1.2278   -0.2972 C   0  0  0  0  0  0  0  0  0  0  0  0
   -2.3766   -0.6894   -0.0332 C   0  0  0  0  0  0  0  0  0  0  0  0
   -1.2092   -1.5714    0.1855 C   0  0  0  0  0  0  0  0  0  0  0  0
   -1.3652   -2.7603    0.3851 O   0  0  0  0  0  0  0  0  0  0  0  0
    3.6279   -2.0598   -0.0385 O   0  0  0  0  0  0  0  0  0  0  0  0
    5.4950    1.3927   -1.0860 H   0  0  0  0  0  0  0  0  0  0  0  0
    4.5512    0.0687   -1.8102 H   0  0  0  0  0  0  0  0  0  0  0  0
    3.8548    1.7033   -1.7037 H   0  0  0  0  0  0  0  0  0  0  0  0
    1.1455   -2.8838    0.0266 H   0  0  0  0  0  0  0  0  0  0  0  0
    1.8343    2.6575    1.1525 H   0  0  0  0  0  0  0  0  0  0  0  0
   -3.1928    2.6104   -0.1365 H   0  0  0  0  0  0  0  0  0  0  0  0
   -5.4033    1.6313   -0.6039 H   0  0  0  0  0  0  0  0  0  0  0  0
   -5.6861   -0.8053   -0.7057 H   0  0  0  0  0  0  0  0  0  0  0  0
   -3.7623   -2.2988   -0.3429 H   0  0  0  0  0  0  0  0  0  0  0  0
    3.9806   -2.3351    0.8188 H   0  0  0  0  0  0  0  0  0  0  0  0
  1  2  1  0  0  0  0
  2  3  1  0  0  0  0
  3  4  2  0  0  0  0
  4  5  1  0  0  0  0
  5  6  2  0  0  0  0
  6  7  1  0  0  0  0
  7  8  2  0  0  0  0
  3  8  1  0  0  0  0
  8  9  1  0  0  0  0
  7 10  1  0  0  0  0
 10 11  2  0  0  0  0
 10 12  1  0  0  0  0
 12 13  2  0  0  0  0
 13 14  1  0  0  0  0
 14 15  2  0  0  0  0
 15 16  1  0  0  0  0
 16 17  2  0  0  0  0
 12 17  1  0  0  0  0
 17 18  1  0  0  0  0
  6 18  1  0  0  0  0
 18 19  2  0  0  0  0
  4 20  1  0  0  0  0
  1 21  1  0  0  0  0
  1 22  1  0  0  0  0
  1 23  1  0  0  0  0
  5 24  1  0  0  0  0
  9 25  1  0  0  0  0
 13 26  1  0  0  0  0
 14 27  1  0  0  0  0
 15 28  1  0  0  0  0
 16 29  1  0  0  0  0
 20 30  1  0  0  0  0
M  END
$$$$
