C22H20O12
APtclcactv06291801013D 0   0.00000     0.00000
 
 54 57  0  0  0  0  0  0  0  0999 V2000
   -5.0775    3.8104    0.0023 C   0  0  0  0  0  0  0  0  0  0  0  0
   -6.2489    3.0218    0.2212 O   0  0  0  0  0  0  0  0  0  0  0  0
   -6.0890    1.6714    0.2423 C   0  0  0  0  0  0  0  0  0  0  0  0
   -7.1900    0.8424    0.4512 C   0  0  0  0  0  0  0  0  0  0  0  0
   -7.0305   -0.5363    0.4734 C   0  0  0  0  0  0  0  0  0  0  0  0
   -5.7830   -1.0920    0.2886 C   0  0  0  0  0  0  0  0  0  0  0  0
   -4.6748   -0.2670    0.0782 C   0  0  0  0  0  0  0  0  0  0  0  0
   -4.8363    1.1211    0.0511 C   0  0  0  0  0  0  0  0  0  0  0  0
   -3.3387   -0.8598   -0.1193 C   0  0  0  0  0  0  0  0  0  0  0  0
   -3.2133   -2.2140   -0.0919 C   0  0  0  0  0  0  0  0  0  0  0  0
   -1.9394   -2.8007   -0.2794 C   0  0  0  0  0  0  0  0  0  0  0  0
   -1.7903   -4.0119   -0.2613 O   0  0  0  0  0  0  0  0  0  0  0  0
   -0.8006   -1.8928   -0.4978 C   0  0  0  0  0  0  0  0  0  0  0  0
    0.4953   -2.3858   -0.6934 C   0  0  0  0  0  0  0  0  0  0  0  0
    1.5376   -1.4999   -0.8962 C   0  0  0  0  0  0  0  0  0  0  0  0
    1.2984   -0.1303   -0.9054 C   0  0  0  0  0  0  0  0  0  0  0  0
    0.0177    0.3647   -0.7120 C   0  0  0  0  0  0  0  0  0  0  0  0
   -1.0396   -0.5076   -0.5077 C   0  0  0  0  0  0  0  0  0  0  0  0
   -2.2936   -0.0424   -0.3246 O   0  0  0  0  0  0  0  0  0  0  0  0
    2.3287    0.7307   -1.1054 O   0  0  0  0  0  0  0  0  0  0  0  0
    3.6240    0.1588   -1.2980 C   0  0  0  0  0  0  0  0  0  0  0  0
    4.6271    1.2667   -1.6298 C   0  0  0  0  0  0  0  0  0  0  0  0
    4.7176    2.2341   -0.4457 C   0  0  0  0  0  0  0  0  0  0  0  0
    5.1110    1.4509    0.8105 C   0  0  0  0  0  0  0  0  0  0  0  0
    4.0892    0.3358    1.0480 C   0  0  0  0  0  0  0  0  0  0  0  0
    4.0325   -0.5095   -0.1027 O   0  0  0  0  0  0  0  0  0  0  0  0
    4.5017   -0.4765    2.2485 C   0  0  0  0  0  0  0  0  0  0  0  0
    4.8107   -1.6370    2.1154 O   0  0  0  0  0  0  0  0  0  0  0  0
    4.5259    0.0892    3.4655 O   0  0  0  0  0  0  0  0  0  0  0  0
    6.4083    0.8793    0.6302 O   0  0  0  0  0  0  0  0  0  0  0  0
    5.7055    3.2304   -0.7168 O   0  0  0  0  0  0  0  0  0  0  0  0
    5.9116    0.6903   -1.8748 O   0  0  0  0  0  0  0  0  0  0  0  0
    0.7268   -3.7230   -0.6835 O   0  0  0  0  0  0  0  0  0  0  0  0
   -8.4219    1.3852    0.6339 O   0  0  0  0  0  0  0  0  0  0  0  0
   -5.3445    4.8672    0.0089 H   0  0  0  0  0  0  0  0  0  0  0  0
   -4.3539    3.6135    0.7933 H   0  0  0  0  0  0  0  0  0  0  0  0
   -4.6407    3.5521   -0.9624 H   0  0  0  0  0  0  0  0  0  0  0  0
   -7.8861   -1.1750    0.6362 H   0  0  0  0  0  0  0  0  0  0  0  0
   -5.6618   -2.1651    0.3067 H   0  0  0  0  0  0  0  0  0  0  0  0
   -3.9825    1.7622   -0.1116 H   0  0  0  0  0  0  0  0  0  0  0  0
   -4.0801   -2.8370    0.0723 H   0  0  0  0  0  0  0  0  0  0  0  0
    2.5399   -1.8727   -1.0474 H   0  0  0  0  0  0  0  0  0  0  0  0
   -0.1560    1.4306   -0.7209 H   0  0  0  0  0  0  0  0  0  0  0  0
    3.5871   -0.5562   -2.1199 H   0  0  0  0  0  0  0  0  0  0  0  0
    4.2939    1.8062   -2.5164 H   0  0  0  0  0  0  0  0  0  0  0  0
    3.7500    2.7112   -0.2898 H   0  0  0  0  0  0  0  0  0  0  0  0
    5.1238    2.1221    1.6692 H   0  0  0  0  0  0  0  0  0  0  0  0
    3.1073    0.7744    1.2257 H   0  0  0  0  0  0  0  0  0  0  0  0
    4.7972   -0.4717    4.2050 H   0  0  0  0  0  0  0  0  0  0  0  0
    6.7217    0.3680    1.3887 H   0  0  0  0  0  0  0  0  0  0  0  0
    5.5234    3.7608   -1.5045 H   0  0  0  0  0  0  0  0  0  0  0  0
    5.9271    0.0624   -2.6100 H   0  0  0  0  0  0  0  0  0  0  0  0
    0.6505   -4.1418   -1.5518 H   0  0  0  0  0  0  0  0  0  0  0  0
   -8.9211    1.5121   -0.1845 H   0  0  0  0  0  0  0  0  0  0  0  0
  1  2  1  0  0  0  0
  2  3  1  0  0  0  0
  3  4  2  0  0  0  0
  4  5  1  0  0  0  0
  5  6  2  0  0  0  0
  6  7  1  0  0  0  0
  7  8  2  0  0  0  0
  3  8  1  0  0  0  0
  7  9  1  0  0  0  0
  9 10  2  0  0  0  0
 10 11  1  0  0  0  0
 11 12  2  0  0  0  0
 11 13  1  0  0  0  0
 13 14  2  0  0  0  0
 14 15  1  0  0  0  0
 15 16  2  0  0  0  0
 16 17  1  0  0  0  0
 17 18  2  0  0  0  0
 13 18  1  0  0  0  0
 18 19  1  0  0  0  0
  9 19  1  0  0  0  0
 16 20  1  0  0  0  0
 20 21  1  0  0  0  0
 21 22  1  0  0  0  0
 22 23  1  0  0  0  0
 23 24  1  0  0  0  0
 24 25  1  0  0  0  0
 25 26  1  0  0  0  0
 21 26  1  0  0  0  0
 25 27  1  0  0  0  0
 27 28  2  0  0  0  0
 27 29  1  0  0  0  0
 24 30  1  0  0  0  0
 23 31  1  0  0  0  0
 22 32  1  0  0  0  0
 14 33  1  0  0  0  0
  4 34  1  0  0  0  0
  1 35  1  0  0  0  0
  1 36  1  0  0  0  0
  1 37  1  0  0  0  0
  5 38  1  0  0  0  0
  6 39  1  0  0  0  0
  8 40  1  0  0  0  0
 10 41  1  0  0  0  0
 15 42  1  0  0  0  0
 17 43  1  0  0  0  0
 21 44  1  0  0  0  0
 22 45  1  0  0  0  0
 23 46  1  0  0  0  0
 24 47  1  0  0  0  0
 25 48  1  0  0  0  0
 29 49  1  0  0  0  0
 30 50  1  0  0  0  0
 31 51  1  0  0  0  0
 32 52  1  0  0  0  0
 33 53  1  0  0  0  0
 34 54  1  0  0  0  0
M  END
$$$$
