C15H22O
APtclcactv06291801013D 0   0.00000     0.00000
 
 38 38  0  0  0  0  0  0  0  0999 V2000
   -3.7494    2.3509    0.8911 C   0  0  0  0  0  0  0  0  0  0  0  0
   -3.3555    1.0623    0.2164 C   0  0  0  0  0  0  0  0  0  0  0  0
   -3.4390   -0.0881    0.8758 C   0  0  0  0  0  0  0  0  0  0  0  0
   -3.0483   -1.3768    0.2021 C   0  0  0  0  0  0  0  0  0  0  0  0
   -1.8790   -1.1321   -0.7510 C   0  0  0  0  0  0  0  0  0  0  0  0
   -2.1814    0.0430   -1.6425 C   0  0  0  0  0  0  0  0  0  0  0  0
   -2.8829    1.0730   -1.1774 C   0  0  0  0  0  0  0  0  0  0  0  0
   -0.6144   -0.8425    0.0601 C   0  0  0  0  0  0  0  0  0  0  0  0
   -0.2992   -2.0401    0.9585 C   0  0  0  0  0  0  0  0  0  0  0  0
    0.5574   -0.5972   -0.8926 C   0  0  0  0  0  0  0  0  0  0  0  0
    1.7731   -0.1918   -0.0996 C   0  0  0  0  0  0  0  0  0  0  0  0
    1.7086   -0.1073    1.1090 O   0  0  0  0  0  0  0  0  0  0  0  0
    3.0308    0.0998   -0.7870 C   0  0  0  0  0  0  0  0  0  0  0  0
    4.1074    0.4589   -0.0847 C   0  0  0  0  0  0  0  0  0  0  0  0
    4.0272    0.5639    1.4165 C   0  0  0  0  0  0  0  0  0  0  0  0
    5.4032    0.7594   -0.7930 C   0  0  0  0  0  0  0  0  0  0  0  0
   -2.8795    2.7823    1.3864 H   0  0  0  0  0  0  0  0  0  0  0  0
   -4.1272    3.0507    0.1457 H   0  0  0  0  0  0  0  0  0  0  0  0
   -4.5263    2.1518    1.6293 H   0  0  0  0  0  0  0  0  0  0  0  0
   -3.7876   -0.0989    1.8979 H   0  0  0  0  0  0  0  0  0  0  0  0
   -2.7534   -2.1053    0.9574 H   0  0  0  0  0  0  0  0  0  0  0  0
   -3.8984   -1.7638   -0.3597 H   0  0  0  0  0  0  0  0  0  0  0  0
   -1.7194   -2.0195   -1.3634 H   0  0  0  0  0  0  0  0  0  0  0  0
   -1.8312    0.0482   -2.6641 H   0  0  0  0  0  0  0  0  0  0  0  0
   -3.0976    1.9157   -1.8178 H   0  0  0  0  0  0  0  0  0  0  0  0
   -0.7728    0.0424    0.6765 H   0  0  0  0  0  0  0  0  0  0  0  0
    0.6017   -1.8338    1.5363 H   0  0  0  0  0  0  0  0  0  0  0  0
   -1.1341   -2.2149    1.6372 H   0  0  0  0  0  0  0  0  0  0  0  0
   -0.1408   -2.9250    0.3420 H   0  0  0  0  0  0  0  0  0  0  0  0
    0.7730   -1.5111   -1.4463 H   0  0  0  0  0  0  0  0  0  0  0  0
    0.2975    0.1981   -1.5912 H   0  0  0  0  0  0  0  0  0  0  0  0
    3.0882    0.0246   -1.8628 H   0  0  0  0  0  0  0  0  0  0  0  0
    3.7512   -0.4044    1.8342 H   0  0  0  0  0  0  0  0  0  0  0  0
    4.9967    0.8671    1.8118 H   0  0  0  0  0  0  0  0  0  0  0  0
    3.2757    1.3048    1.6893 H   0  0  0  0  0  0  0  0  0  0  0  0
    5.4411    1.8186   -1.0474 H   0  0  0  0  0  0  0  0  0  0  0  0
    6.2400    0.5124   -0.1396 H   0  0  0  0  0  0  0  0  0  0  0  0
    5.4657    0.1644   -1.7041 H   0  0  0  0  0  0  0  0  0  0  0  0
  1  2  1  0  0  0  0
  2  3  2  0  0  0  0
  3  4  1  0  0  0  0
  4  5  1  0  0  0  0
  5  6  1  0  0  0  0
  6  7  2  0  0  0  0
  2  7  1  0  0  0  0
  5  8  1  0  0  0  0
  8  9  1  0  0  0  0
  8 10  1  0  0  0  0
 10 11  1  0  0  0  0
 11 12  2  0  0  0  0
 11 13  1  0  0  0  0
 13 14  2  0  0  0  0
 14 15  1  0  0  0  0
 14 16  1  0  0  0  0
  1 17  1  0  0  0  0
  1 18  1  0  0  0  0
  1 19  1  0  0  0  0
  3 20  1  0  0  0  0
  4 21  1  0  0  0  0
  4 22  1  0  0  0  0
  5 23  1  0  0  0  0
  6 24  1  0  0  0  0
  7 25  1  0  0  0  0
  8 26  1  0  0  0  0
  9 27  1  0  0  0  0
  9 28  1  0  0  0  0
  9 29  1  0  0  0  0
 10 30  1  0  0  0  0
 10 31  1  0  0  0  0
 13 32  1  0  0  0  0
 15 33  1  0  0  0  0
 15 34  1  0  0  0  0
 15 35  1  0  0  0  0
 16 36  1  0  0  0  0
 16 37  1  0  0  0  0
 16 38  1  0  0  0  0
M  END
$$$$
