C15H26O2
APtclcactv06291801013D 0   0.00000     0.00000
 
 43 43  0  0  0  0  0  0  0  0999 V2000
    0.5424    2.5211   -0.6964 C   0  0  0  0  0  0  0  0  0  0  0  0
    0.4310    1.0163   -0.4435 C   0  0  0  0  0  0  0  0  0  0  0  0
    1.5952    0.5598    0.4381 C   0  0  0  0  0  0  0  0  0  0  0  0
    2.9118    0.7468   -0.3187 C   0  0  0  0  0  0  0  0  0  0  0  0
    4.0585    0.2971    0.5496 C   0  0  0  0  0  0  0  0  0  0  0  0
    4.8997   -0.6050    0.1084 C   0  0  0  0  0  0  0  0  0  0  0  0
    4.7207   -1.1931   -1.2675 C   0  0  0  0  0  0  0  0  0  0  0  0
    6.0464   -1.0546    0.9767 C   0  0  0  0  0  0  0  0  0  0  0  0
   -0.8923    0.7143    0.2626 C   0  0  0  0  0  0  0  0  0  0  0  0
   -2.0547    1.1718   -0.6212 C   0  0  0  0  0  0  0  0  0  0  0  0
   -3.3601    0.6313   -0.0240 C   0  0  0  0  0  0  0  0  0  0  0  0
   -3.3609   -0.8927   -0.1619 C   0  0  0  0  0  0  0  0  0  0  0  0
   -2.0662   -1.4581    0.3440 C   0  0  0  0  0  0  0  0  0  0  0  0
   -0.9912   -0.7600    0.5245 C   0  0  0  0  0  0  0  0  0  0  0  0
   -4.5201   -1.4747    0.6496 C   0  0  0  0  0  0  0  0  0  0  0  0
   -3.5259   -1.2437   -1.5373 O   0  0  0  0  0  0  0  0  0  0  0  0
   -3.4406    0.9887    1.3573 O   0  0  0  0  0  0  0  0  0  0  0  0
    1.4851    2.7363   -1.1994 H   0  0  0  0  0  0  0  0  0  0  0  0
   -0.2870    2.8463   -1.3244 H   0  0  0  0  0  0  0  0  0  0  0  0
    0.5083    3.0529    0.2545 H   0  0  0  0  0  0  0  0  0  0  0  0
    0.4651    0.4846   -1.3944 H   0  0  0  0  0  0  0  0  0  0  0  0
    1.6138    1.1539    1.3518 H   0  0  0  0  0  0  0  0  0  0  0  0
    1.4681   -0.4927    0.6915 H   0  0  0  0  0  0  0  0  0  0  0  0
    2.8932    0.1527   -1.2324 H   0  0  0  0  0  0  0  0  0  0  0  0
    3.0389    1.7992   -0.5721 H   0  0  0  0  0  0  0  0  0  0  0  0
    4.1868    0.7186    1.5357 H   0  0  0  0  0  0  0  0  0  0  0  0
    4.7723   -0.3985   -2.0118 H   0  0  0  0  0  0  0  0  0  0  0  0
    5.5100   -1.9205   -1.4572 H   0  0  0  0  0  0  0  0  0  0  0  0
    3.7503   -1.6857   -1.3286 H   0  0  0  0  0  0  0  0  0  0  0  0
    5.7328   -1.9062    1.5805 H   0  0  0  0  0  0  0  0  0  0  0  0
    6.8868   -1.3458    0.3466 H   0  0  0  0  0  0  0  0  0  0  0  0
    6.3490   -0.2370    1.6310 H   0  0  0  0  0  0  0  0  0  0  0  0
   -0.9264    1.2508    1.2108 H   0  0  0  0  0  0  0  0  0  0  0  0
   -2.0876    2.2610   -0.6485 H   0  0  0  0  0  0  0  0  0  0  0  0
   -1.9238    0.7808   -1.6302 H   0  0  0  0  0  0  0  0  0  0  0  0
   -4.2103    1.0485   -0.5637 H   0  0  0  0  0  0  0  0  0  0  0  0
   -2.0291   -2.5131    0.5720 H   0  0  0  0  0  0  0  0  0  0  0  0
   -0.1106   -1.2704    0.8857 H   0  0  0  0  0  0  0  0  0  0  0  0
   -5.4624   -1.0745    0.2756 H   0  0  0  0  0  0  0  0  0  0  0  0
   -4.5224   -2.5604    0.5526 H   0  0  0  0  0  0  0  0  0  0  0  0
   -4.4012   -1.2039    1.6987 H   0  0  0  0  0  0  0  0  0  0  0  0
   -3.5359   -2.1966   -1.7015 H   0  0  0  0  0  0  0  0  0  0  0  0
   -3.4283    1.9421    1.5182 H   0  0  0  0  0  0  0  0  0  0  0  0
  1  2  1  0  0  0  0
  2  3  1  0  0  0  0
  3  4  1  0  0  0  0
  4  5  1  0  0  0  0
  5  6  2  0  0  0  0
  6  7  1  0  0  0  0
  6  8  1  0  0  0  0
  2  9  1  0  0  0  0
  9 10  1  0  0  0  0
 10 11  1  0  0  0  0
 11 12  1  0  0  0  0
 12 13  1  0  0  0  0
 13 14  2  0  0  0  0
  9 14  1  0  0  0  0
 12 15  1  0  0  0  0
 12 16  1  0  0  0  0
 11 17  1  0  0  0  0
  1 18  1  0  0  0  0
  1 19  1  0  0  0  0
  1 20  1  0  0  0  0
  2 21  1  0  0  0  0
  3 22  1  0  0  0  0
  3 23  1  0  0  0  0
  4 24  1  0  0  0  0
  4 25  1  0  0  0  0
  5 26  1  0  0  0  0
  7 27  1  0  0  0  0
  7 28  1  0  0  0  0
  7 29  1  0  0  0  0
  8 30  1  0  0  0  0
  8 31  1  0  0  0  0
  8 32  1  0  0  0  0
  9 33  1  0  0  0  0
 10 34  1  0  0  0  0
 10 35  1  0  0  0  0
 11 36  1  0  0  0  0
 13 37  1  0  0  0  0
 14 38  1  0  0  0  0
 15 39  1  0  0  0  0
 15 40  1  0  0  0  0
 15 41  1  0  0  0  0
 16 42  1  0  0  0  0
 17 43  1  0  0  0  0
M  END
$$$$
