C15H24O3
APtclcactv06291801013D 0   0.00000     0.00000
 
 42 43  0  0  0  0  0  0  0  0999 V2000
   -0.1227    3.2370    0.2283 C   0  0  0  0  0  0  0  0  0  0  0  0
   -1.0822    2.1677   -0.2266 C   0  0  0  0  0  0  0  0  0  0  0  0
   -1.0971    0.9810    0.3838 C   0  0  0  0  0  0  0  0  0  0  0  0
   -0.0504    0.6035    1.3802 C   0  0  0  0  0  0  0  0  0  0  0  0
    1.0748   -0.1649    0.7261 C   0  0  0  0  0  0  0  0  0  0  0  0
    0.4832   -1.1085   -0.3559 C   0  0  0  0  0  0  0  0  0  0  0  0
    1.8122   -1.8912   -0.6537 C   0  0  0  0  0  0  0  0  0  0  0  0
    2.8155   -0.7091   -0.8253 C   0  0  0  0  0  0  0  0  0  0  0  0
    2.2477    0.4697    0.0239 C   0  0  0  0  0  0  0  0  0  0  0  0
    1.7849    1.6152   -0.8787 C   0  0  0  0  0  0  0  0  0  0  0  0
    3.2174    0.9269    0.9687 O   0  0  0  0  0  0  0  0  0  0  0  0
   -0.6832   -1.9469   -0.0866 C   0  0  0  0  0  0  0  0  0  0  0  0
   -1.8967   -1.2176   -0.7058 C   0  0  0  0  0  0  0  0  0  0  0  0
   -2.1506   -0.0125    0.1089 C   0  0  0  0  0  0  0  0  0  0  0  0
   -3.2623    0.1635    0.5620 O   0  0  0  0  0  0  0  0  0  0  0  0
   -0.5057   -3.3188   -0.7402 C   0  0  0  0  0  0  0  0  0  0  0  0
   -0.8664   -2.0937    1.3230 O   0  0  0  0  0  0  0  0  0  0  0  0
   -2.0248    2.4384   -1.3708 C   0  0  0  0  0  0  0  0  0  0  0  0
    0.5392    2.8300    0.9927 H   0  0  0  0  0  0  0  0  0  0  0  0
    0.4695    3.5789   -0.6205 H   0  0  0  0  0  0  0  0  0  0  0  0
   -0.6829    4.0757    0.6418 H   0  0  0  0  0  0  0  0  0  0  0  0
    0.3522    1.5083    1.8356 H   0  0  0  0  0  0  0  0  0  0  0  0
   -0.5020   -0.0151    2.1558 H   0  0  0  0  0  0  0  0  0  0  0  0
    1.4972   -0.8175    1.4902 H   0  0  0  0  0  0  0  0  0  0  0  0
    0.2544   -0.5049   -1.2342 H   0  0  0  0  0  0  0  0  0  0  0  0
    2.0920   -2.5256    0.1875 H   0  0  0  0  0  0  0  0  0  0  0  0
    1.7288   -2.4728   -1.5718 H   0  0  0  0  0  0  0  0  0  0  0  0
    3.8000   -0.9966   -0.4565 H   0  0  0  0  0  0  0  0  0  0  0  0
    2.8775   -0.4195   -1.8743 H   0  0  0  0  0  0  0  0  0  0  0  0
    0.8060    1.3772   -1.2947 H   0  0  0  0  0  0  0  0  0  0  0  0
    1.7182    2.5334   -0.2951 H   0  0  0  0  0  0  0  0  0  0  0  0
    2.5009    1.7511   -1.6892 H   0  0  0  0  0  0  0  0  0  0  0  0
    4.0275    1.2692    0.5666 H   0  0  0  0  0  0  0  0  0  0  0  0
   -1.6725   -0.9320   -1.7335 H   0  0  0  0  0  0  0  0  0  0  0  0
   -2.7710   -1.8681   -0.6834 H   0  0  0  0  0  0  0  0  0  0  0  0
    0.3835   -3.8019   -0.3353 H   0  0  0  0  0  0  0  0  0  0  0  0
   -1.3803   -3.9356   -0.5335 H   0  0  0  0  0  0  0  0  0  0  0  0
   -0.3940   -3.1962   -1.8175 H   0  0  0  0  0  0  0  0  0  0  0  0
   -1.6261   -2.6405    1.5660 H   0  0  0  0  0  0  0  0  0  0  0  0
   -1.5484    2.1541   -2.3091 H   0  0  0  0  0  0  0  0  0  0  0  0
   -2.9368    1.8569   -1.2356 H   0  0  0  0  0  0  0  0  0  0  0  0
   -2.2710    3.4999   -1.3954 H   0  0  0  0  0  0  0  0  0  0  0  0
  1  2  1  0  0  0  0
  2  3  2  0  0  0  0
  3  4  1  0  0  0  0
  4  5  1  0  0  0  0
  5  6  1  0  0  0  0
  6  7  1  0  0  0  0
  7  8  1  0  0  0  0
  8  9  1  0  0  0  0
  5  9  1  0  0  0  0
  9 10  1  0  0  0  0
  9 11  1  0  0  0  0
  6 12  1  0  0  0  0
 12 13  1  0  0  0  0
 13 14  1  0  0  0  0
  3 14  1  0  0  0  0
 14 15  2  0  0  0  0
 12 16  1  0  0  0  0
 12 17  1  0  0  0  0
  2 18  1  0  0  0  0
  1 19  1  0  0  0  0
  1 20  1  0  0  0  0
  1 21  1  0  0  0  0
  4 22  1  0  0  0  0
  4 23  1  0  0  0  0
  5 24  1  0  0  0  0
  6 25  1  0  0  0  0
  7 26  1  0  0  0  0
  7 27  1  0  0  0  0
  8 28  1  0  0  0  0
  8 29  1  0  0  0  0
 10 30  1  0  0  0  0
 10 31  1  0  0  0  0
 10 32  1  0  0  0  0
 11 33  1  0  0  0  0
 13 34  1  0  0  0  0
 13 35  1  0  0  0  0
 16 36  1  0  0  0  0
 16 37  1  0  0  0  0
 16 38  1  0  0  0  0
 17 39  1  0  0  0  0
 18 40  1  0  0  0  0
 18 41  1  0  0  0  0
 18 42  1  0  0  0  0
M  END
$$$$
