C16H26O3
APtclcactv06291801013D 0   0.00000     0.00000
 
 45 45  0  0  0  0  0  0  0  0999 V2000
   -0.9263    2.0201    0.9994 C   0  0  0  0  0  0  0  0  0  0  0  0
   -0.5330    0.6857    0.3626 C   0  0  0  0  0  0  0  0  0  0  0  0
   -1.5630    0.3060   -0.7032 C   0  0  0  0  0  0  0  0  0  0  0  0
   -2.8965    0.0569   -0.0469 C   0  0  0  0  0  0  0  0  0  0  0  0
   -3.0118    0.1718    1.1554 O   0  0  0  0  0  0  0  0  0  0  0  0
   -4.0517   -0.3233   -0.8594 C   0  0  0  0  0  0  0  0  0  0  0  0
   -5.2327   -0.5440   -0.2782 C   0  0  0  0  0  0  0  0  0  0  0  0
   -5.3759   -0.4013    1.2152 C   0  0  0  0  0  0  0  0  0  0  0  0
   -6.4230   -0.9357   -1.1152 C   0  0  0  0  0  0  0  0  0  0  0  0
    0.8468    0.8168   -0.2854 C   0  0  0  0  0  0  0  0  0  0  0  0
    1.8747    1.1965    0.7827 C   0  0  0  0  0  0  0  0  0  0  0  0
    3.2768    1.0688    0.1738 C   0  0  0  0  0  0  0  0  0  0  0  0
    3.5515   -0.4111   -0.1023 C   0  0  0  0  0  0  0  0  0  0  0  0
    2.4003   -1.0202   -0.8477 C   0  0  0  0  0  0  0  0  0  0  0  0
    1.2226   -0.4883   -0.9237 C   0  0  0  0  0  0  0  0  0  0  0  0
    4.8249   -0.5427   -0.9403 C   0  0  0  0  0  0  0  0  0  0  0  0
    3.7303   -1.0990    1.1374 O   0  0  0  0  0  0  0  0  0  0  0  0
    3.9940   -2.4961    0.9940 C   0  0  0  0  0  0  0  0  0  0  0  0
    3.3382    1.8051   -1.0494 O   0  0  0  0  0  0  0  0  0  0  0  0
   -0.9573    2.7937    0.2322 H   0  0  0  0  0  0  0  0  0  0  0  0
   -1.9093    1.9267    1.4610 H   0  0  0  0  0  0  0  0  0  0  0  0
   -0.1925    2.2906    1.7587 H   0  0  0  0  0  0  0  0  0  0  0  0
   -0.5021   -0.0879    1.1298 H   0  0  0  0  0  0  0  0  0  0  0  0
   -1.6583    1.1195   -1.4224 H   0  0  0  0  0  0  0  0  0  0  0  0
   -1.2369   -0.5977   -1.2180 H   0  0  0  0  0  0  0  0  0  0  0  0
   -3.9491   -0.4256   -1.9296 H   0  0  0  0  0  0  0  0  0  0  0  0
   -5.1243    0.6179    1.5086 H   0  0  0  0  0  0  0  0  0  0  0  0
   -6.4041   -0.6192    1.5041 H   0  0  0  0  0  0  0  0  0  0  0  0
   -4.7029   -1.0993    1.7131 H   0  0  0  0  0  0  0  0  0  0  0  0
   -6.4667   -2.0216   -1.1990 H   0  0  0  0  0  0  0  0  0  0  0  0
   -7.3351   -0.5708   -0.6431 H   0  0  0  0  0  0  0  0  0  0  0  0
   -6.3281   -0.4982   -2.1090 H   0  0  0  0  0  0  0  0  0  0  0  0
    0.8150    1.5942   -1.0488 H   0  0  0  0  0  0  0  0  0  0  0  0
    1.7069    2.2246    1.1036 H   0  0  0  0  0  0  0  0  0  0  0  0
    1.7828    0.5237    1.6353 H   0  0  0  0  0  0  0  0  0  0  0  0
    4.0172    1.4543    0.8747 H   0  0  0  0  0  0  0  0  0  0  0  0
    2.5647   -1.9607   -1.3525 H   0  0  0  0  0  0  0  0  0  0  0  0
    0.4632   -1.0168   -1.4808 H   0  0  0  0  0  0  0  0  0  0  0  0
    5.6647   -0.1118   -0.3953 H   0  0  0  0  0  0  0  0  0  0  0  0
    5.0223   -1.5963   -1.1381 H   0  0  0  0  0  0  0  0  0  0  0  0
    4.6947   -0.0140   -1.8845 H   0  0  0  0  0  0  0  0  0  0  0  0
    3.1596   -2.9724    0.4793 H   0  0  0  0  0  0  0  0  0  0  0  0
    4.9063   -2.6360    0.4141 H   0  0  0  0  0  0  0  0  0  0  0  0
    4.1173   -2.9455    1.9794 H   0  0  0  0  0  0  0  0  0  0  0  0
    3.1573    2.7497   -0.9493 H   0  0  0  0  0  0  0  0  0  0  0  0
  1  2  1  0  0  0  0
  2  3  1  0  0  0  0
  3  4  1  0  0  0  0
  4  5  2  0  0  0  0
  4  6  1  0  0  0  0
  6  7  2  0  0  0  0
  7  8  1  0  0  0  0
  7  9  1  0  0  0  0
  2 10  1  0  0  0  0
 10 11  1  0  0  0  0
 11 12  1  0  0  0  0
 12 13  1  0  0  0  0
 13 14  1  0  0  0  0
 14 15  2  0  0  0  0
 10 15  1  0  0  0  0
 13 16  1  0  0  0  0
 13 17  1  0  0  0  0
 17 18  1  0  0  0  0
 12 19  1  0  0  0  0
  1 20  1  0  0  0  0
  1 21  1  0  0  0  0
  1 22  1  0  0  0  0
  2 23  1  0  0  0  0
  3 24  1  0  0  0  0
  3 25  1  0  0  0  0
  6 26  1  0  0  0  0
  8 27  1  0  0  0  0
  8 28  1  0  0  0  0
  8 29  1  0  0  0  0
  9 30  1  0  0  0  0
  9 31  1  0  0  0  0
  9 32  1  0  0  0  0
 10 33  1  0  0  0  0
 11 34  1  0  0  0  0
 11 35  1  0  0  0  0
 12 36  1  0  0  0  0
 14 37  1  0  0  0  0
 15 38  1  0  0  0  0
 16 39  1  0  0  0  0
 16 40  1  0  0  0  0
 16 41  1  0  0  0  0
 18 42  1  0  0  0  0
 18 43  1  0  0  0  0
 18 44  1  0  0  0  0
 19 45  1  0  0  0  0
M  END
$$$$
