C20H24O4
APtclcactv06291801023D 0   0.00000     0.00000
 
 48 50  0  0  0  0  0  0  0  0999 V2000
    1.3478   -3.2770   -1.3317 C   0  0  0  0  0  0  0  0  0  0  0  0
    1.2476   -3.1327    0.1882 C   0  0  0  0  0  0  0  0  0  0  0  0
    2.4062   -2.2801    0.7015 C   0  0  0  0  0  0  0  0  0  0  0  0
    2.2547   -0.8515    0.2477 C   0  0  0  0  0  0  0  0  0  0  0  0
    3.3789   -0.0368    0.2963 C   0  0  0  0  0  0  0  0  0  0  0  0
    3.3069    1.2857   -0.1006 C   0  0  0  0  0  0  0  0  0  0  0  0
    2.0966    1.8034   -0.5520 C   0  0  0  0  0  0  0  0  0  0  0  0
    0.9806    0.9885   -0.6008 C   0  0  0  0  0  0  0  0  0  0  0  0
    1.0580   -0.3404   -0.2035 C   0  0  0  0  0  0  0  0  0  0  0  0
   -0.1947   -1.1723   -0.2971 C   0  0  0  0  0  0  0  0  0  0  0  0
   -0.0667   -2.4335    0.5551 C   0  0  0  0  0  0  0  0  0  0  0  0
   -1.2437   -3.3689    0.2711 C   0  0  0  0  0  0  0  0  0  0  0  0
   -1.3674   -0.3610    0.1903 C   0  0  0  0  0  0  0  0  0  0  0  0
   -2.4284   -0.1040   -0.6579 C   0  0  0  0  0  0  0  0  0  0  0  0
   -3.5075    0.6418   -0.2114 C   0  0  0  0  0  0  0  0  0  0  0  0
   -3.5200    1.1306    1.0914 C   0  0  0  0  0  0  0  0  0  0  0  0
   -2.4533    0.8695    1.9364 C   0  0  0  0  0  0  0  0  0  0  0  0
   -1.3824    0.1200    1.4864 C   0  0  0  0  0  0  0  0  0  0  0  0
   -4.5766    1.8635    1.5341 O   0  0  0  0  0  0  0  0  0  0  0  0
   -4.5518    0.8958   -1.0446 O   0  0  0  0  0  0  0  0  0  0  0  0
   -4.4704    0.3628   -2.3680 C   0  0  0  0  0  0  0  0  0  0  0  0
    2.0119    3.1033   -0.9425 O   0  0  0  0  0  0  0  0  0  0  0  0
    4.4124    2.0762   -0.0497 O   0  0  0  0  0  0  0  0  0  0  0  0
    5.6186    1.4748    0.4251 C   0  0  0  0  0  0  0  0  0  0  0  0
    2.2918   -3.7570   -1.5896 H   0  0  0  0  0  0  0  0  0  0  0  0
    0.5196   -3.8858   -1.6942 H   0  0  0  0  0  0  0  0  0  0  0  0
    1.3034   -2.2908   -1.7940 H   0  0  0  0  0  0  0  0  0  0  0  0
    1.2824   -4.1177    0.6535 H   0  0  0  0  0  0  0  0  0  0  0  0
    2.4204   -2.3116    1.7909 H   0  0  0  0  0  0  0  0  0  0  0  0
    3.3446   -2.6812    0.3187 H   0  0  0  0  0  0  0  0  0  0  0  0
    4.3173   -0.4400    0.6474 H   0  0  0  0  0  0  0  0  0  0  0  0
    0.0405    1.3888   -0.9505 H   0  0  0  0  0  0  0  0  0  0  0  0
   -0.3614   -1.4553   -1.3364 H   0  0  0  0  0  0  0  0  0  0  0  0
   -0.0580   -2.1638    1.6111 H   0  0  0  0  0  0  0  0  0  0  0  0
   -1.2431   -3.6438   -0.7837 H   0  0  0  0  0  0  0  0  0  0  0  0
   -1.1489   -4.2675    0.8807 H   0  0  0  0  0  0  0  0  0  0  0  0
   -2.1775   -2.8619    0.5139 H   0  0  0  0  0  0  0  0  0  0  0  0
   -2.4161   -0.4843   -1.6687 H   0  0  0  0  0  0  0  0  0  0  0  0
   -2.4606    1.2478    2.9480 H   0  0  0  0  0  0  0  0  0  0  0  0
   -0.5517   -0.0829    2.1460 H   0  0  0  0  0  0  0  0  0  0  0  0
   -5.2804    1.3359    1.9359 H   0  0  0  0  0  0  0  0  0  0  0  0
   -5.3652    0.6380   -2.9263 H   0  0  0  0  0  0  0  0  0  0  0  0
   -3.5908    0.7671   -2.8691 H   0  0  0  0  0  0  0  0  0  0  0  0
   -4.3929   -0.7233   -2.3181 H   0  0  0  0  0  0  0  0  0  0  0  0
    2.1951    3.2447   -1.8814 H   0  0  0  0  0  0  0  0  0  0  0  0
    6.4209    2.2126    0.4151 H   0  0  0  0  0  0  0  0  0  0  0  0
    5.4689    1.1148    1.4430 H   0  0  0  0  0  0  0  0  0  0  0  0
    5.8862    0.6383   -0.2205 H   0  0  0  0  0  0  0  0  0  0  0  0
  1  2  1  0  0  0  0
  2  3  1  0  0  0  0
  3  4  1  0  0  0  0
  4  5  2  0  0  0  0
  5  6  1  0  0  0  0
  6  7  2  0  0  0  0
  7  8  1  0  0  0  0
  8  9  2  0  0  0  0
  4  9  1  0  0  0  0
  9 10  1  0  0  0  0
 10 11  1  0  0  0  0
  2 11  1  0  0  0  0
 11 12  1  0  0  0  0
 10 13  1  0  0  0  0
 13 14  2  0  0  0  0
 14 15  1  0  0  0  0
 15 16  2  0  0  0  0
 16 17  1  0  0  0  0
 17 18  2  0  0  0  0
 13 18  1  0  0  0  0
 16 19  1  0  0  0  0
 15 20  1  0  0  0  0
 20 21  1  0  0  0  0
  7 22  1  0  0  0  0
  6 23  1  0  0  0  0
 23 24  1  0  0  0  0
  1 25  1  0  0  0  0
  1 26  1  0  0  0  0
  1 27  1  0  0  0  0
  2 28  1  0  0  0  0
  3 29  1  0  0  0  0
  3 30  1  0  0  0  0
  5 31  1  0  0  0  0
  8 32  1  0  0  0  0
 10 33  1  0  0  0  0
 11 34  1  0  0  0  0
 12 35  1  0  0  0  0
 12 36  1  0  0  0  0
 12 37  1  0  0  0  0
 14 38  1  0  0  0  0
 17 39  1  0  0  0  0
 18 40  1  0  0  0  0
 19 41  1  0  0  0  0
 21 42  1  0  0  0  0
 21 43  1  0  0  0  0
 21 44  1  0  0  0  0
 22 45  1  0  0  0  0
 24 46  1  0  0  0  0
 24 47  1  0  0  0  0
 24 48  1  0  0  0  0
M  END
$$$$
