C25H24O13
APtclcactv06291801023D 0   0.00000     0.00000
 
 62 65  0  0  0  0  0  0  0  0999 V2000
    5.4105    1.6913    3.4118 C   0  0  0  0  0  0  0  0  0  0  0  0
    4.8393    2.0645    2.0681 C   0  0  0  0  0  0  0  0  0  0  0  0
    5.5687    2.4631    1.1912 O   0  0  0  0  0  0  0  0  0  0  0  0
    3.5203    1.9541    1.8455 O   0  0  0  0  0  0  0  0  0  0  0  0
    3.0403    2.3313    0.5280 C   0  0  0  0  0  0  0  0  0  0  0  0
    1.5237    2.1396    0.4636 C   0  0  0  0  0  0  0  0  0  0  0  0
    1.0007    2.6537   -0.8803 C   0  0  0  0  0  0  0  0  0  0  0  0
    1.6221    1.8277   -2.0108 C   0  0  0  0  0  0  0  0  0  0  0  0
    1.2943    0.3482   -1.7869 C   0  0  0  0  0  0  0  0  0  0  0  0
    1.8059   -0.0768   -0.4080 C   0  0  0  0  0  0  0  0  0  0  0  0
    1.2128    0.7510    0.5946 O   0  0  0  0  0  0  0  0  0  0  0  0
    1.4351   -1.5155   -0.1558 C   0  0  0  0  0  0  0  0  0  0  0  0
    2.3854   -2.5129   -0.3093 C   0  0  0  0  0  0  0  0  0  0  0  0
    2.0580   -3.8451   -0.0802 C   0  0  0  0  0  0  0  0  0  0  0  0
    0.7756   -4.1888    0.3051 C   0  0  0  0  0  0  0  0  0  0  0  0
   -0.1895   -3.1860    0.4626 C   0  0  0  0  0  0  0  0  0  0  0  0
    0.1453   -1.8401    0.2351 C   0  0  0  0  0  0  0  0  0  0  0  0
   -0.7918   -0.8809    0.3899 O   0  0  0  0  0  0  0  0  0  0  0  0
   -2.0518   -1.1621    0.7584 C   0  0  0  0  0  0  0  0  0  0  0  0
   -2.4761   -2.4313    1.0022 C   0  0  0  0  0  0  0  0  0  0  0  0
   -1.5671   -3.5079    0.8716 C   0  0  0  0  0  0  0  0  0  0  0  0
   -1.9134   -4.6591    1.0820 O   0  0  0  0  0  0  0  0  0  0  0  0
   -3.0125   -0.0525    0.9049 C   0  0  0  0  0  0  0  0  0  0  0  0
   -2.6063    1.2625    0.6617 C   0  0  0  0  0  0  0  0  0  0  0  0
   -3.5101    2.2982    0.8004 C   0  0  0  0  0  0  0  0  0  0  0  0
   -4.8236    2.0305    1.1825 C   0  0  0  0  0  0  0  0  0  0  0  0
   -5.2271    0.7245    1.4244 C   0  0  0  0  0  0  0  0  0  0  0  0
   -4.3326   -0.3142    1.2816 C   0  0  0  0  0  0  0  0  0  0  0  0
   -5.7109    3.0501    1.3188 O   0  0  0  0  0  0  0  0  0  0  0  0
   -3.1182    3.5789    0.5646 O   0  0  0  0  0  0  0  0  0  0  0  0
    0.4540   -5.4882    0.5287 O   0  0  0  0  0  0  0  0  0  0  0  0
    3.6476   -2.1863   -0.6874 O   0  0  0  0  0  0  0  0  0  0  0  0
   -0.1432    0.1544   -1.8520 O   0  0  0  0  0  0  0  0  0  0  0  0
   -0.6668   -0.1227   -3.0564 C   0  0  0  0  0  0  0  0  0  0  0  0
    0.0522   -0.2008   -4.0243 O   0  0  0  0  0  0  0  0  0  0  0  0
   -2.1515   -0.3365   -3.2015 C   0  0  0  0  0  0  0  0  0  0  0  0
    1.0836    2.2521   -3.2645 O   0  0  0  0  0  0  0  0  0  0  0  0
   -0.4218    2.5240   -0.9203 O   0  0  0  0  0  0  0  0  0  0  0  0
    5.4124    2.5664    4.0616 H   0  0  0  0  0  0  0  0  0  0  0  0
    4.8010    0.9069    3.8606 H   0  0  0  0  0  0  0  0  0  0  0  0
    6.4313    1.3305    3.2852 H   0  0  0  0  0  0  0  0  0  0  0  0
    3.2827    3.3769    0.3386 H   0  0  0  0  0  0  0  0  0  0  0  0
    3.5179    1.7053   -0.2257 H   0  0  0  0  0  0  0  0  0  0  0  0
    1.0523    2.6959    1.2739 H   0  0  0  0  0  0  0  0  0  0  0  0
    1.2755    3.7015   -1.0013 H   0  0  0  0  0  0  0  0  0  0  0  0
    2.7033    1.9656   -2.0113 H   0  0  0  0  0  0  0  0  0  0  0  0
    1.7790   -0.2527   -2.5563 H   0  0  0  0  0  0  0  0  0  0  0  0
    2.8901    0.0308   -0.3735 H   0  0  0  0  0  0  0  0  0  0  0  0
    2.8074   -4.6129   -0.2040 H   0  0  0  0  0  0  0  0  0  0  0  0
   -3.4985   -2.6156    1.2971 H   0  0  0  0  0  0  0  0  0  0  0  0
   -1.5881    1.4686    0.3664 H   0  0  0  0  0  0  0  0  0  0  0  0
   -6.2456    0.5215    1.7210 H   0  0  0  0  0  0  0  0  0  0  0  0
   -4.6492   -1.3293    1.4704 H   0  0  0  0  0  0  0  0  0  0  0  0
   -6.1971    3.2592    0.5095 H   0  0  0  0  0  0  0  0  0  0  0  0
   -3.2338    3.8631   -0.3524 H   0  0  0  0  0  0  0  0  0  0  0  0
    0.5919   -5.7760    1.4415 H   0  0  0  0  0  0  0  0  0  0  0  0
    4.2635   -2.0780    0.0502 H   0  0  0  0  0  0  0  0  0  0  0  0
   -2.6369    0.6165   -3.4122 H   0  0  0  0  0  0  0  0  0  0  0  0
   -2.3404   -1.0295   -4.0214 H   0  0  0  0  0  0  0  0  0  0  0  0
   -2.5511   -0.7509   -2.2760 H   0  0  0  0  0  0  0  0  0  0  0  0
    1.2483    3.1829   -3.4684 H   0  0  0  0  0  0  0  0  0  0  0  0
   -0.8217    2.8314   -1.7453 H   0  0  0  0  0  0  0  0  0  0  0  0
  1  2  1  0  0  0  0
  2  3  2  0  0  0  0
  2  4  1  0  0  0  0
  4  5  1  0  0  0  0
  5  6  1  0  0  0  0
  6  7  1  0  0  0  0
  7  8  1  0  0  0  0
  8  9  1  0  0  0  0
  9 10  1  0  0  0  0
 10 11  1  0  0  0  0
  6 11  1  0  0  0  0
 10 12  1  0  0  0  0
 12 13  2  0  0  0  0
 13 14  1  0  0  0  0
 14 15  2  0  0  0  0
 15 16  1  0  0  0  0
 16 17  2  0  0  0  0
 12 17  1  0  0  0  0
 17 18  1  0  0  0  0
 18 19  1  0  0  0  0
 19 20  2  0  0  0  0
 20 21  1  0  0  0  0
 16 21  1  0  0  0  0
 21 22  2  0  0  0  0
 19 23  1  0  0  0  0
 23 24  2  0  0  0  0
 24 25  1  0  0  0  0
 25 26  2  0  0  0  0
 26 27  1  0  0  0  0
 27 28  2  0  0  0  0
 23 28  1  0  0  0  0
 26 29  1  0  0  0  0
 25 30  1  0  0  0  0
 15 31  1  0  0  0  0
 13 32  1  0  0  0  0
  9 33  1  0  0  0  0
 33 34  1  0  0  0  0
 34 35  2  0  0  0  0
 34 36  1  0  0  0  0
  8 37  1  0  0  0  0
  7 38  1  0  0  0  0
  1 39  1  0  0  0  0
  1 40  1  0  0  0  0
  1 41  1  0  0  0  0
  5 42  1  0  0  0  0
  5 43  1  0  0  0  0
  6 44  1  0  0  0  0
  7 45  1  0  0  0  0
  8 46  1  0  0  0  0
  9 47  1  0  0  0  0
 10 48  1  0  0  0  0
 14 49  1  0  0  0  0
 20 50  1  0  0  0  0
 24 51  1  0  0  0  0
 27 52  1  0  0  0  0
 28 53  1  0  0  0  0
 29 54  1  0  0  0  0
 30 55  1  0  0  0  0
 31 56  1  0  0  0  0
 32 57  1  0  0  0  0
 36 58  1  0  0  0  0
 36 59  1  0  0  0  0
 36 60  1  0  0  0  0
 37 61  1  0  0  0  0
 38 62  1  0  0  0  0
M  END
$$$$
