C23H22O12
APtclcactv06291801023D 0   0.00000     0.00000
 
 57 60  0  0  0  0  0  0  0  0999 V2000
   -1.0570    0.3752    3.3308 C   0  0  0  0  0  0  0  0  0  0  0  0
    0.1128   -0.4413    2.8450 C   0  0  0  0  0  0  0  0  0  0  0  0
    0.9105   -0.8847    3.6368 O   0  0  0  0  0  0  0  0  0  0  0  0
    0.2686   -0.6759    1.5326 O   0  0  0  0  0  0  0  0  0  0  0  0
    1.4180   -1.4700    1.1368 C   0  0  0  0  0  0  0  0  0  0  0  0
    1.0341   -2.9527    1.1186 C   0  0  0  0  0  0  0  0  0  0  0  0
   -0.0554   -3.1739    0.0648 C   0  0  0  0  0  0  0  0  0  0  0  0
    0.4547   -2.6892   -1.2948 C   0  0  0  0  0  0  0  0  0  0  0  0
    0.8233   -1.3117   -1.2003 O   0  0  0  0  0  0  0  0  0  0  0  0
    1.8712   -1.0510   -0.2642 C   0  0  0  0  0  0  0  0  0  0  0  0
    2.1944    0.4209   -0.2687 C   0  0  0  0  0  0  0  0  0  0  0  0
    3.5154    0.8401   -0.2449 C   0  0  0  0  0  0  0  0  0  0  0  0
    3.8292    2.1950   -0.2487 C   0  0  0  0  0  0  0  0  0  0  0  0
    2.8217    3.1413   -0.2768 C   0  0  0  0  0  0  0  0  0  0  0  0
    1.4847    2.7247   -0.3015 C   0  0  0  0  0  0  0  0  0  0  0  0
    1.1705    1.3548   -0.3024 C   0  0  0  0  0  0  0  0  0  0  0  0
   -0.1212    0.9634   -0.3267 O   0  0  0  0  0  0  0  0  0  0  0  0
   -1.1363    1.8417   -0.3504 C   0  0  0  0  0  0  0  0  0  0  0  0
   -0.9386    3.1875   -0.3517 C   0  0  0  0  0  0  0  0  0  0  0  0
    0.3806    3.6988   -0.3318 C   0  0  0  0  0  0  0  0  0  0  0  0
    0.5950    4.9003   -0.3319 O   0  0  0  0  0  0  0  0  0  0  0  0
   -2.5187    1.3277   -0.3766 C   0  0  0  0  0  0  0  0  0  0  0  0
   -2.7538   -0.0500   -0.3765 C   0  0  0  0  0  0  0  0  0  0  0  0
   -4.0505   -0.5262   -0.4011 C   0  0  0  0  0  0  0  0  0  0  0  0
   -5.1205    0.3667   -0.4265 C   0  0  0  0  0  0  0  0  0  0  0  0
   -4.8871    1.7350   -0.4272 C   0  0  0  0  0  0  0  0  0  0  0  0
   -3.5964    2.2171   -0.3959 C   0  0  0  0  0  0  0  0  0  0  0  0
   -6.3949   -0.1033   -0.4512 O   0  0  0  0  0  0  0  0  0  0  0  0
   -4.2829   -1.8662   -0.4010 O   0  0  0  0  0  0  0  0  0  0  0  0
    3.1258    4.4639   -0.2801 O   0  0  0  0  0  0  0  0  0  0  0  0
    4.5125   -0.0808   -0.2172 O   0  0  0  0  0  0  0  0  0  0  0  0
    1.6740   -3.5165   -1.7068 C   0  0  0  0  0  0  0  0  0  0  0  0
    2.0567   -3.1698   -3.0392 O   0  0  0  0  0  0  0  0  0  0  0  0
   -0.3702   -4.5657   -0.0118 O   0  0  0  0  0  0  0  0  0  0  0  0
    2.1814   -3.7396    0.7925 O   0  0  0  0  0  0  0  0  0  0  0  0
   -0.7773    1.4282    3.3615 H   0  0  0  0  0  0  0  0  0  0  0  0
   -1.8995    0.2427    2.6520 H   0  0  0  0  0  0  0  0  0  0  0  0
   -1.3403    0.0452    4.3303 H   0  0  0  0  0  0  0  0  0  0  0  0
    2.2308   -1.3128    1.8458 H   0  0  0  0  0  0  0  0  0  0  0  0
    0.6574   -3.2439    2.0992 H   0  0  0  0  0  0  0  0  0  0  0  0
   -0.9480   -2.6123    0.3403 H   0  0  0  0  0  0  0  0  0  0  0  0
   -0.3319   -2.8046   -2.0404 H   0  0  0  0  0  0  0  0  0  0  0  0
    2.7584   -1.6190   -0.5443 H   0  0  0  0  0  0  0  0  0  0  0  0
    4.8625    2.5087   -0.2292 H   0  0  0  0  0  0  0  0  0  0  0  0
   -1.7826    3.8610   -0.3715 H   0  0  0  0  0  0  0  0  0  0  0  0
   -1.9238   -0.7408   -0.3575 H   0  0  0  0  0  0  0  0  0  0  0  0
   -5.7190    2.4235   -0.4476 H   0  0  0  0  0  0  0  0  0  0  0  0
   -3.4176    3.2822   -0.3965 H   0  0  0  0  0  0  0  0  0  0  0  0
   -6.7821   -0.2362    0.4249 H   0  0  0  0  0  0  0  0  0  0  0  0
   -4.3681   -2.2505    0.4822 H   0  0  0  0  0  0  0  0  0  0  0  0
    3.2326    4.8407   -1.1642 H   0  0  0  0  0  0  0  0  0  0  0  0
    4.8717   -0.2979   -1.0884 H   0  0  0  0  0  0  0  0  0  0  0  0
    2.5000   -3.3101   -1.0262 H   0  0  0  0  0  0  0  0  0  0  0  0
    1.4248   -4.5768   -1.6646 H   0  0  0  0  0  0  0  0  0  0  0  0
    2.8251   -3.6568   -3.3671 H   0  0  0  0  0  0  0  0  0  0  0  0
   -1.0544   -4.7790   -0.6609 H   0  0  0  0  0  0  0  0  0  0  0  0
    2.0105   -4.6910    0.7632 H   0  0  0  0  0  0  0  0  0  0  0  0
  1  2  1  0  0  0  0
  2  3  2  0  0  0  0
  2  4  1  0  0  0  0
  4  5  1  0  0  0  0
  5  6  1  0  0  0  0
  6  7  1  0  0  0  0
  7  8  1  0  0  0  0
  8  9  1  0  0  0  0
  9 10  1  0  0  0  0
  5 10  1  0  0  0  0
 10 11  1  0  0  0  0
 11 12  2  0  0  0  0
 12 13  1  0  0  0  0
 13 14  2  0  0  0  0
 14 15  1  0  0  0  0
 15 16  2  0  0  0  0
 11 16  1  0  0  0  0
 16 17  1  0  0  0  0
 17 18  1  0  0  0  0
 18 19  2  0  0  0  0
 19 20  1  0  0  0  0
 15 20  1  0  0  0  0
 20 21  2  0  0  0  0
 18 22  1  0  0  0  0
 22 23  2  0  0  0  0
 23 24  1  0  0  0  0
 24 25  2  0  0  0  0
 25 26  1  0  0  0  0
 26 27  2  0  0  0  0
 22 27  1  0  0  0  0
 25 28  1  0  0  0  0
 24 29  1  0  0  0  0
 14 30  1  0  0  0  0
 12 31  1  0  0  0  0
  8 32  1  0  0  0  0
 32 33  1  0  0  0  0
  7 34  1  0  0  0  0
  6 35  1  0  0  0  0
  1 36  1  0  0  0  0
  1 37  1  0  0  0  0
  1 38  1  0  0  0  0
  5 39  1  0  0  0  0
  6 40  1  0  0  0  0
  7 41  1  0  0  0  0
  8 42  1  0  0  0  0
 10 43  1  0  0  0  0
 13 44  1  0  0  0  0
 19 45  1  0  0  0  0
 23 46  1  0  0  0  0
 26 47  1  0  0  0  0
 27 48  1  0  0  0  0
 28 49  1  0  0  0  0
 29 50  1  0  0  0  0
 30 51  1  0  0  0  0
 31 52  1  0  0  0  0
 32 53  1  0  0  0  0
 32 54  1  0  0  0  0
 33 55  1  0  0  0  0
 34 56  1  0  0  0  0
 35 57  1  0  0  0  0
M  END
$$$$
