C30H30O7
APtclcactv06291801013D 0   0.00000     0.00000
 
 67 72  0  0  0  0  0  0  0  0999 V2000
   -7.2231    0.8560    0.2569 C   0  0  0  0  0  0  0  0  0  0  0  0
   -6.3949    1.4343   -0.8614 C   0  0  0  0  0  0  0  0  0  0  0  0
   -5.1853    1.8757   -0.6200 C   0  0  0  0  0  0  0  0  0  0  0  0
   -4.5745    1.6915    0.7453 C   0  0  0  0  0  0  0  0  0  0  0  0
   -3.2386    1.0074    0.6099 C   0  0  0  0  0  0  0  0  0  0  0  0
   -2.0887    1.7620    0.4515 C   0  0  0  0  0  0  0  0  0  0  0  0
   -0.8453    1.1274    0.3244 C   0  0  0  0  0  0  0  0  0  0  0  0
   -0.7557   -0.2731    0.3594 C   0  0  0  0  0  0  0  0  0  0  0  0
   -1.9242   -1.0204    0.5201 C   0  0  0  0  0  0  0  0  0  0  0  0
   -3.1625   -0.3757    0.6497 C   0  0  0  0  0  0  0  0  0  0  0  0
   -4.2788   -1.1328    0.8015 O   0  0  0  0  0  0  0  0  0  0  0  0
   -4.3094   -2.3899    0.1245 C   0  0  0  0  0  0  0  0  0  0  0  0
   -3.0359   -3.1544    0.3728 C   0  0  0  0  0  0  0  0  0  0  0  0
   -1.8908   -2.4973    0.5624 C   0  0  0  0  0  0  0  0  0  0  0  0
   -5.4972   -3.2088    0.6338 C   0  0  0  0  0  0  0  0  0  0  0  0
   -4.4696   -2.1503   -1.3781 C   0  0  0  0  0  0  0  0  0  0  0  0
    0.4405   -0.8751    0.2388 O   0  0  0  0  0  0  0  0  0  0  0  0
    1.5817   -0.1823    0.1177 C   0  0  0  0  0  0  0  0  0  0  0  0
    1.6095    1.1859    0.0361 C   0  0  0  0  0  0  0  0  0  0  0  0
    0.3933    1.9021    0.1486 C   0  0  0  0  0  0  0  0  0  0  0  0
    0.3730    3.1216    0.1016 O   0  0  0  0  0  0  0  0  0  0  0  0
    2.8770    1.9756   -0.1982 C   0  0  0  0  0  0  0  0  0  0  0  0
    4.0436    1.3476    0.5617 C   0  0  0  0  0  0  0  0  0  0  0  0
    4.0093   -0.1243    0.2290 C   0  0  0  0  0  0  0  0  0  0  0  0
    2.8637   -0.8999    0.0539 C   0  0  0  0  0  0  0  0  0  0  0  0
    3.0612   -2.2536   -0.2146 C   0  0  0  0  0  0  0  0  0  0  0  0
    4.3559   -2.7369   -0.3682 C   0  0  0  0  0  0  0  0  0  0  0  0
    5.4864   -1.9247   -0.2902 C   0  0  0  0  0  0  0  0  0  0  0  0
    5.2959   -0.5635   -0.0042 C   0  0  0  0  0  0  0  0  0  0  0  0
    6.1562    0.4748    0.0502 O   0  0  0  0  0  0  0  0  0  0  0  0
    5.4169    1.7202   -0.0361 C   0  0  0  0  0  0  0  0  0  0  0  0
    5.2710    2.1635   -1.4933 C   0  0  0  0  0  0  0  0  0  0  0  0
    6.0929    2.8103    0.7980 C   0  0  0  0  0  0  0  0  0  0  0  0
    6.7308   -2.4335   -0.4845 O   0  0  0  0  0  0  0  0  0  0  0  0
    1.9992   -3.0924   -0.3248 O   0  0  0  0  0  0  0  0  0  0  0  0
   -2.1654    3.1162    0.4187 O   0  0  0  0  0  0  0  0  0  0  0  0
   -6.9581    1.5049   -2.2574 C   0  0  0  0  0  0  0  0  0  0  0  0
   -7.2920    1.5792    1.0695 H   0  0  0  0  0  0  0  0  0  0  0  0
   -8.2230    0.6277   -0.1121 H   0  0  0  0  0  0  0  0  0  0  0  0
   -6.7533   -0.0573    0.6222 H   0  0  0  0  0  0  0  0  0  0  0  0
   -4.6258    2.3715   -1.3995 H   0  0  0  0  0  0  0  0  0  0  0  0
   -4.4382    2.6649    1.2166 H   0  0  0  0  0  0  0  0  0  0  0  0
   -5.2354    1.0798    1.3595 H   0  0  0  0  0  0  0  0  0  0  0  0
   -3.0502   -4.2339    0.4018 H   0  0  0  0  0  0  0  0  0  0  0  0
   -0.9664   -3.0292    0.7330 H   0  0  0  0  0  0  0  0  0  0  0  0
   -6.4225   -2.6666    0.4391 H   0  0  0  0  0  0  0  0  0  0  0  0
   -5.5238   -4.1693    0.1191 H   0  0  0  0  0  0  0  0  0  0  0  0
   -5.3917   -3.3739    1.7060 H   0  0  0  0  0  0  0  0  0  0  0  0
   -3.6298   -1.5592   -1.7434 H   0  0  0  0  0  0  0  0  0  0  0  0
   -4.4934   -3.1079   -1.8982 H   0  0  0  0  0  0  0  0  0  0  0  0
   -5.3998   -1.6131   -1.5632 H   0  0  0  0  0  0  0  0  0  0  0  0
    3.1043    1.9848   -1.2642 H   0  0  0  0  0  0  0  0  0  0  0  0
    2.7324    2.9998    0.1456 H   0  0  0  0  0  0  0  0  0  0  0  0
    3.9843    1.5356    1.6337 H   0  0  0  0  0  0  0  0  0  0  0  0
    4.4923   -3.7916   -0.5564 H   0  0  0  0  0  0  0  0  0  0  0  0
    4.7591    1.3858   -2.0601 H   0  0  0  0  0  0  0  0  0  0  0  0
    4.6914    3.0856   -1.5362 H   0  0  0  0  0  0  0  0  0  0  0  0
    6.2586    2.3348   -1.9216 H   0  0  0  0  0  0  0  0  0  0  0  0
    7.0957    2.9936    0.4122 H   0  0  0  0  0  0  0  0  0  0  0  0
    5.5077    3.7280    0.7394 H   0  0  0  0  0  0  0  0  0  0  0  0
    6.1568    2.4859    1.8366 H   0  0  0  0  0  0  0  0  0  0  0  0
    7.0268   -2.4083   -1.4047 H   0  0  0  0  0  0  0  0  0  0  0  0
    1.6504   -3.1695   -1.2234 H   0  0  0  0  0  0  0  0  0  0  0  0
   -2.0845    3.5358    1.2862 H   0  0  0  0  0  0  0  0  0  0  0  0
   -7.9678    1.0943   -2.2630 H   0  0  0  0  0  0  0  0  0  0  0  0
   -6.9865    2.5439   -2.5856 H   0  0  0  0  0  0  0  0  0  0  0  0
   -6.3273    0.9275   -2.9333 H   0  0  0  0  0  0  0  0  0  0  0  0
  1  2  1  0  0  0  0
  2  3  2  0  0  0  0
  3  4  1  0  0  0  0
  4  5  1  0  0  0  0
  5  6  2  0  0  0  0
  6  7  1  0  0  0  0
  7  8  2  0  0  0  0
  8  9  1  0  0  0  0
  9 10  2  0  0  0  0
  5 10  1  0  0  0  0
 10 11  1  0  0  0  0
 11 12  1  0  0  0  0
 12 13  1  0  0  0  0
 13 14  2  0  0  0  0
  9 14  1  0  0  0  0
 12 15  1  0  0  0  0
 12 16  1  0  0  0  0
  8 17  1  0  0  0  0
 17 18  1  0  0  0  0
 18 19  2  0  0  0  0
 19 20  1  0  0  0  0
  7 20  1  0  0  0  0
 20 21  2  0  0  0  0
 19 22  1  0  0  0  0
 22 23  1  0  0  0  0
 23 24  1  0  0  0  0
 24 25  2  0  0  0  0
 18 25  1  0  0  0  0
 25 26  1  0  0  0  0
 26 27  2  0  0  0  0
 27 28  1  0  0  0  0
 28 29  2  0  0  0  0
 24 29  1  0  0  0  0
 29 30  1  0  0  0  0
 30 31  1  0  0  0  0
 23 31  1  0  0  0  0
 31 32  1  0  0  0  0
 31 33  1  0  0  0  0
 28 34  1  0  0  0  0
 26 35  1  0  0  0  0
  6 36  1  0  0  0  0
  2 37  1  0  0  0  0
  1 38  1  0  0  0  0
  1 39  1  0  0  0  0
  1 40  1  0  0  0  0
  3 41  1  0  0  0  0
  4 42  1  0  0  0  0
  4 43  1  0  0  0  0
 13 44  1  0  0  0  0
 14 45  1  0  0  0  0
 15 46  1  0  0  0  0
 15 47  1  0  0  0  0
 15 48  1  0  0  0  0
 16 49  1  0  0  0  0
 16 50  1  0  0  0  0
 16 51  1  0  0  0  0
 22 52  1  0  0  0  0
 22 53  1  0  0  0  0
 23 54  1  0  0  0  0
 27 55  1  0  0  0  0
 32 56  1  0  0  0  0
 32 57  1  0  0  0  0
 32 58  1  0  0  0  0
 33 59  1  0  0  0  0
 33 60  1  0  0  0  0
 33 61  1  0  0  0  0
 34 62  1  0  0  0  0
 35 63  1  0  0  0  0
 36 64  1  0  0  0  0
 37 65  1  0  0  0  0
 37 66  1  0  0  0  0
 37 67  1  0  0  0  0
M  END
$$$$
