C40H36O10
APtclcactv06291801023D 0   0.00000     0.00000
 
 86 91  0  0  0  0  0  0  0  0999 V2000
   -1.7585    4.7623   -2.3869 C   0  0  0  0  0  0  0  0  0  0  0  0
   -2.0856    3.8125   -1.2635 C   0  0  0  0  0  0  0  0  0  0  0  0
   -1.2811    3.7710   -0.2502 C   0  0  0  0  0  0  0  0  0  0  0  0
   -1.4797    2.8859    0.9453 C   0  0  0  0  0  0  0  0  0  0  0  0
   -2.4796    1.7747    0.6182 C   0  0  0  0  0  0  0  0  0  0  0  0
   -3.7198    2.4111   -0.0221 C   0  0  0  0  0  0  0  0  0  0  0  0
   -3.3268    2.9782   -1.3863 C   0  0  0  0  0  0  0  0  0  0  0  0
   -4.7924    1.3669   -0.1958 C   0  0  0  0  0  0  0  0  0  0  0  0
   -5.9588    1.4403    0.5521 C   0  0  0  0  0  0  0  0  0  0  0  0
   -6.9455    0.4795    0.3915 C   0  0  0  0  0  0  0  0  0  0  0  0
   -6.7640   -0.5522   -0.5163 C   0  0  0  0  0  0  0  0  0  0  0  0
   -5.5955   -0.6211   -1.2621 C   0  0  0  0  0  0  0  0  0  0  0  0
   -4.6160    0.3403   -1.1040 C   0  0  0  0  0  0  0  0  0  0  0  0
   -7.7291   -1.4956   -0.6756 O   0  0  0  0  0  0  0  0  0  0  0  0
   -6.1337    2.4526    1.4416 O   0  0  0  0  0  0  0  0  0  0  0  0
   -1.8554    0.7995   -0.3464 C   0  0  0  0  0  0  0  0  0  0  0  0
   -1.4548    1.1850   -1.4249 O   0  0  0  0  0  0  0  0  0  0  0  0
   -1.7324   -0.6142    0.0181 C   0  0  0  0  0  0  0  0  0  0  0  0
   -1.2360   -1.5421   -0.9145 C   0  0  0  0  0  0  0  0  0  0  0  0
   -1.1260   -2.8816   -0.5495 C   0  0  0  0  0  0  0  0  0  0  0  0
   -1.5075   -3.2962    0.7352 C   0  0  0  0  0  0  0  0  0  0  0  0
   -1.9964   -2.3717    1.6479 C   0  0  0  0  0  0  0  0  0  0  0  0
   -2.1039   -1.0448    1.3001 C   0  0  0  0  0  0  0  0  0  0  0  0
   -1.3886   -4.6076    1.0597 O   0  0  0  0  0  0  0  0  0  0  0  0
   -1.6099   -5.5586    0.0177 C   0  0  0  0  0  0  0  0  0  0  0  0
   -0.8362   -5.1795   -1.2175 C   0  0  0  0  0  0  0  0  0  0  0  0
   -0.6096   -3.8964   -1.4927 C   0  0  0  0  0  0  0  0  0  0  0  0
   -1.1576   -6.9412    0.4919 C   0  0  0  0  0  0  0  0  0  0  0  0
   -3.1024   -5.6038   -0.3158 C   0  0  0  0  0  0  0  0  0  0  0  0
   -0.8691   -1.1376   -2.1548 O   0  0  0  0  0  0  0  0  0  0  0  0
   -0.1604    2.2715    1.3366 C   0  0  0  0  0  0  0  0  0  0  0  0
    0.0264    1.7931    2.6251 C   0  0  0  0  0  0  0  0  0  0  0  0
    1.2425    1.2244    2.9929 C   0  0  0  0  0  0  0  0  0  0  0  0
    2.2683    1.1327    2.0811 C   0  0  0  0  0  0  0  0  0  0  0  0
    2.0906    1.6115    0.7792 C   0  0  0  0  0  0  0  0  0  0  0  0
    0.8624    2.1797    0.4084 C   0  0  0  0  0  0  0  0  0  0  0  0
    0.6813    2.6467   -0.8525 O   0  0  0  0  0  0  0  0  0  0  0  0
    3.1877    1.5151   -0.2013 C   0  0  0  0  0  0  0  0  0  0  0  0
    3.0302    1.9331   -1.3349 O   0  0  0  0  0  0  0  0  0  0  0  0
    4.4255    0.9363    0.1750 C   0  0  0  0  0  0  0  0  0  0  0  0
    5.4325    0.8478   -0.7249 C   0  0  0  0  0  0  0  0  0  0  0  0
    6.7133    0.2489   -0.3356 C   0  0  0  0  0  0  0  0  0  0  0  0
    7.7618    0.1552   -1.2678 C   0  0  0  0  0  0  0  0  0  0  0  0
    8.9658   -0.4116   -0.8880 C   0  0  0  0  0  0  0  0  0  0  0  0
    9.1315   -0.8831    0.4066 C   0  0  0  0  0  0  0  0  0  0  0  0
    8.0916   -0.7890    1.3273 C   0  0  0  0  0  0  0  0  0  0  0  0
    6.9001   -0.2275    0.9686 C   0  0  0  0  0  0  0  0  0  0  0  0
   10.3130   -1.4391    0.7768 O   0  0  0  0  0  0  0  0  0  0  0  0
    7.5940    0.6175   -2.5323 O   0  0  0  0  0  0  0  0  0  0  0  0
   -0.9805    1.8801    3.5310 O   0  0  0  0  0  0  0  0  0  0  0  0
   -0.8382    5.2978   -2.1537 H   0  0  0  0  0  0  0  0  0  0  0  0
   -1.6274    4.2001   -3.3114 H   0  0  0  0  0  0  0  0  0  0  0  0
   -2.5734    5.4760   -2.5081 H   0  0  0  0  0  0  0  0  0  0  0  0
   -0.4128    4.4130   -0.2664 H   0  0  0  0  0  0  0  0  0  0  0  0
   -1.8595    3.4807    1.7760 H   0  0  0  0  0  0  0  0  0  0  0  0
   -2.7648    1.2572    1.5341 H   0  0  0  0  0  0  0  0  0  0  0  0
   -4.0877    3.2166    0.6134 H   0  0  0  0  0  0  0  0  0  0  0  0
   -4.1422    3.5904   -1.7715 H   0  0  0  0  0  0  0  0  0  0  0  0
   -3.1364    2.1572   -2.0776 H   0  0  0  0  0  0  0  0  0  0  0  0
   -7.8540    0.5347    0.9730 H   0  0  0  0  0  0  0  0  0  0  0  0
   -5.4534   -1.4250   -1.9693 H   0  0  0  0  0  0  0  0  0  0  0  0
   -3.7074    0.2849   -1.6853 H   0  0  0  0  0  0  0  0  0  0  0  0
   -8.3833   -1.2784   -1.3538 H   0  0  0  0  0  0  0  0  0  0  0  0
   -6.5588    3.2363    1.0670 H   0  0  0  0  0  0  0  0  0  0  0  0
   -2.2893   -2.6944    2.6361 H   0  0  0  0  0  0  0  0  0  0  0  0
   -2.4853   -0.3317    2.0160 H   0  0  0  0  0  0  0  0  0  0  0  0
   -0.4650   -5.9478   -1.8796 H   0  0  0  0  0  0  0  0  0  0  0  0
   -0.0651   -3.6056   -2.3788 H   0  0  0  0  0  0  0  0  0  0  0  0
   -1.7289   -7.2273    1.3749 H   0  0  0  0  0  0  0  0  0  0  0  0
   -1.3250   -7.6701   -0.3011 H   0  0  0  0  0  0  0  0  0  0  0  0
   -0.0965   -6.9112    0.7397 H   0  0  0  0  0  0  0  0  0  0  0  0
   -3.4311   -4.6181   -0.6451 H   0  0  0  0  0  0  0  0  0  0  0  0
   -3.2753   -6.3289   -1.1110 H   0  0  0  0  0  0  0  0  0  0  0  0
   -3.6642   -5.8965    0.5712 H   0  0  0  0  0  0  0  0  0  0  0  0
    0.0585   -0.8732   -2.2239 H   0  0  0  0  0  0  0  0  0  0  0  0
    1.3813    0.8542    3.9979 H   0  0  0  0  0  0  0  0  0  0  0  0
    3.2107    0.6915    2.3705 H   0  0  0  0  0  0  0  0  0  0  0  0
    0.3374    1.9873   -1.4706 H   0  0  0  0  0  0  0  0  0  0  0  0
    4.5652    0.5658    1.1798 H   0  0  0  0  0  0  0  0  0  0  0  0
    5.2929    1.2183   -1.7297 H   0  0  0  0  0  0  0  0  0  0  0  0
    9.7756   -0.4873   -1.5986 H   0  0  0  0  0  0  0  0  0  0  0  0
    8.2298   -1.1587    2.3326 H   0  0  0  0  0  0  0  0  0  0  0  0
    6.0981   -0.1576    1.6885 H   0  0  0  0  0  0  0  0  0  0  0  0
   10.9502   -0.8063    1.1354 H   0  0  0  0  0  0  0  0  0  0  0  0
    7.8396    1.5456   -2.6476 H   0  0  0  0  0  0  0  0  0  0  0  0
   -1.5197    1.0802    3.5977 H   0  0  0  0  0  0  0  0  0  0  0  0
  1  2  1  0  0  0  0
  2  3  2  0  0  0  0
  3  4  1  0  0  0  0
  4  5  1  0  0  0  0
  5  6  1  0  0  0  0
  6  7  1  0  0  0  0
  2  7  1  0  0  0  0
  6  8  1  0  0  0  0
  8  9  2  0  0  0  0
  9 10  1  0  0  0  0
 10 11  2  0  0  0  0
 11 12  1  0  0  0  0
 12 13  2  0  0  0  0
  8 13  1  0  0  0  0
 11 14  1  0  0  0  0
  9 15  1  0  0  0  0
  5 16  1  0  0  0  0
 16 17  2  0  0  0  0
 16 18  1  0  0  0  0
 18 19  2  0  0  0  0
 19 20  1  0  0  0  0
 20 21  2  0  0  0  0
 21 22  1  0  0  0  0
 22 23  2  0  0  0  0
 18 23  1  0  0  0  0
 21 24  1  0  0  0  0
 24 25  1  0  0  0  0
 25 26  1  0  0  0  0
 26 27  2  0  0  0  0
 20 27  1  0  0  0  0
 25 28  1  0  0  0  0
 25 29  1  0  0  0  0
 19 30  1  0  0  0  0
  4 31  1  0  0  0  0
 31 32  2  0  0  0  0
 32 33  1  0  0  0  0
 33 34  2  0  0  0  0
 34 35  1  0  0  0  0
 35 36  2  0  0  0  0
 31 36  1  0  0  0  0
 36 37  1  0  0  0  0
 35 38  1  0  0  0  0
 38 39  2  0  0  0  0
 38 40  1  0  0  0  0
 40 41  2  0  0  0  0
 41 42  1  0  0  0  0
 42 43  2  0  0  0  0
 43 44  1  0  0  0  0
 44 45  2  0  0  0  0
 45 46  1  0  0  0  0
 46 47  2  0  0  0  0
 42 47  1  0  0  0  0
 45 48  1  0  0  0  0
 43 49  1  0  0  0  0
 32 50  1  0  0  0  0
  1 51  1  0  0  0  0
  1 52  1  0  0  0  0
  1 53  1  0  0  0  0
  3 54  1  0  0  0  0
  4 55  1  0  0  0  0
  5 56  1  0  0  0  0
  6 57  1  0  0  0  0
  7 58  1  0  0  0  0
  7 59  1  0  0  0  0
 10 60  1  0  0  0  0
 12 61  1  0  0  0  0
 13 62  1  0  0  0  0
 14 63  1  0  0  0  0
 15 64  1  0  0  0  0
 22 65  1  0  0  0  0
 23 66  1  0  0  0  0
 26 67  1  0  0  0  0
 27 68  1  0  0  0  0
 28 69  1  0  0  0  0
 28 70  1  0  0  0  0
 28 71  1  0  0  0  0
 29 72  1  0  0  0  0
 29 73  1  0  0  0  0
 29 74  1  0  0  0  0
 30 75  1  0  0  0  0
 33 76  1  0  0  0  0
 34 77  1  0  0  0  0
 37 78  1  0  0  0  0
 40 79  1  0  0  0  0
 41 80  1  0  0  0  0
 44 81  1  0  0  0  0
 46 82  1  0  0  0  0
 47 83  1  0  0  0  0
 48 84  1  0  0  0  0
 49 85  1  0  0  0  0
 50 86  1  0  0  0  0
M  END
$$$$
