C21H17NO5
APtclcactv06211806393D 0   0.00000     0.00000
 
 44 48  0  0  0  0  0  0  0  0999 V2000
    0.9467    2.3179    0.9632 C   0  0  0  0  0  0  0  0  0  0  0  0
    0.1377    1.1979    0.4798 N   0  0  0  0  0  0  0  0  0  0  0  0
    0.6824   -0.0322    0.1946 C   0  0  0  0  0  0  0  0  0  0  0  0
   -0.1562   -1.1536    0.1168 C   0  0  0  0  0  0  0  0  0  0  0  0
    0.3761   -2.4504    0.0266 C   0  0  0  0  0  0  0  0  0  0  0  0
    1.7160   -2.6533    0.0207 C   0  0  0  0  0  0  0  0  0  0  0  0
    2.5843   -1.5475    0.0199 C   0  0  0  0  0  0  0  0  0  0  0  0
    3.9724   -1.7204    0.1384 C   0  0  0  0  0  0  0  0  0  0  0  0
    4.8082   -0.6603   -0.0655 C   0  0  0  0  0  0  0  0  0  0  0  0
    4.2788    0.5896   -0.4258 C   0  0  0  0  0  0  0  0  0  0  0  0
    2.9286    0.7889   -0.4801 C   0  0  0  0  0  0  0  0  0  0  0  0
    2.0504   -0.2323   -0.1007 C   0  0  0  0  0  0  0  0  0  0  0  0
    5.3320    1.4233   -0.6638 O   0  0  0  0  0  0  0  0  0  0  0  0
    6.4360    0.8797    0.0787 C   0  0  0  0  0  0  0  0  0  0  0  0
    6.1613   -0.5271    0.0171 O   0  0  0  0  0  0  0  0  0  0  0  0
   -1.6198   -0.9668    0.0930 C   0  0  0  0  0  0  0  0  0  0  0  0
   -2.1321    0.3476    0.1676 C   0  0  0  0  0  0  0  0  0  0  0  0
   -1.1835    1.4481    0.3340 C   0  0  0  0  0  0  0  0  0  0  0  0
   -1.5635    2.6045    0.3395 O   0  0  0  0  0  0  0  0  0  0  0  0
   -3.5136    0.5548    0.1046 C   0  0  0  0  0  0  0  0  0  0  0  0
   -4.3659   -0.5387    0.0010 C   0  0  0  0  0  0  0  0  0  0  0  0
   -3.8531   -1.8280   -0.0444 C   0  0  0  0  0  0  0  0  0  0  0  0
   -2.4911   -2.0469   -0.0014 C   0  0  0  0  0  0  0  0  0  0  0  0
   -5.7098   -0.3432   -0.0565 O   0  0  0  0  0  0  0  0  0  0  0  0
   -6.5309   -1.5080   -0.1625 C   0  0  0  0  0  0  0  0  0  0  0  0
   -4.0292    1.8116    0.1417 O   0  0  0  0  0  0  0  0  0  0  0  0
   -4.2077    2.4768   -1.1103 C   0  0  0  0  0  0  0  0  0  0  0  0
    1.3137    2.8942    0.1139 H   0  0  0  0  0  0  0  0  0  0  0  0
    0.3367    2.9582    1.6004 H   0  0  0  0  0  0  0  0  0  0  0  0
    1.7920    1.9353    1.5352 H   0  0  0  0  0  0  0  0  0  0  0  0
   -0.2839   -3.3023   -0.0392 H   0  0  0  0  0  0  0  0  0  0  0  0
    2.1113   -3.6578    0.0170 H   0  0  0  0  0  0  0  0  0  0  0  0
    4.3776   -2.6883    0.3938 H   0  0  0  0  0  0  0  0  0  0  0  0
    2.5646    1.7225   -0.8860 H   0  0  0  0  0  0  0  0  0  0  0  0
    7.3819    1.1147   -0.4085 H   0  0  0  0  0  0  0  0  0  0  0  0
    6.4208    1.2361    1.1085 H   0  0  0  0  0  0  0  0  0  0  0  0
   -4.5265   -2.6696   -0.1146 H   0  0  0  0  0  0  0  0  0  0  0  0
   -2.1041   -3.0544   -0.0433 H   0  0  0  0  0  0  0  0  0  0  0  0
   -7.5791   -1.2114   -0.1994 H   0  0  0  0  0  0  0  0  0  0  0  0
   -6.2748   -2.0515   -1.0719 H   0  0  0  0  0  0  0  0  0  0  0  0
   -6.3650   -2.1494    0.7031 H   0  0  0  0  0  0  0  0  0  0  0  0
   -4.8891    1.8990   -1.7348 H   0  0  0  0  0  0  0  0  0  0  0  0
   -4.6252    3.4689   -0.9384 H   0  0  0  0  0  0  0  0  0  0  0  0
   -3.2449    2.5699   -1.6128 H   0  0  0  0  0  0  0  0  0  0  0  0
  1  2  1  0  0  0  0
  2  3  1  0  0  0  0
  3  4  2  0  0  0  0
  4  5  1  0  0  0  0
  5  6  2  0  0  0  0
  6  7  1  0  0  0  0
  7  8  2  0  0  0  0
  8  9  1  0  0  0  0
  9 10  2  0  0  0  0
 10 11  1  0  0  0  0
 11 12  2  0  0  0  0
  7 12  1  0  0  0  0
  3 12  1  0  0  0  0
 10 13  1  0  0  0  0
 13 14  1  0  0  0  0
 14 15  1  0  0  0  0
  9 15  1  0  0  0  0
  4 16  1  0  0  0  0
 16 17  2  0  0  0  0
 17 18  1  0  0  0  0
  2 18  1  0  0  0  0
 18 19  2  0  0  0  0
 17 20  1  0  0  0  0
 20 21  2  0  0  0  0
 21 22  1  0  0  0  0
 22 23  2  0  0  0  0
 16 23  1  0  0  0  0
 21 24  1  0  0  0  0
 24 25  1  0  0  0  0
 20 26  1  0  0  0  0
 26 27  1  0  0  0  0
  1 28  1  0  0  0  0
  1 29  1  0  0  0  0
  1 30  1  0  0  0  0
  5 31  1  0  0  0  0
  6 32  1  0  0  0  0
  8 33  1  0  0  0  0
 11 34  1  0  0  0  0
 14 35  1  0  0  0  0
 14 36  1  0  0  0  0
 22 37  1  0  0  0  0
 23 38  1  0  0  0  0
 25 39  1  0  0  0  0
 25 40  1  0  0  0  0
 25 41  1  0  0  0  0
 27 42  1  0  0  0  0
 27 43  1  0  0  0  0
 27 44  1  0  0  0  0
M  END
$$$$
