C20H16NO4
APtclcactv06211806393D 0   0.00000     0.00000
 
 41 46  0  0  0  0  0  0  0  0999 V2000
   -0.2369    2.2125   -0.8520 C   0  0  0  0  0  0  0  0  0  0  0  0
    0.4341    0.9574   -0.3556 C   0  0  0  0  0  0  0  0  0  0  0  0
    1.8326    0.9666   -0.1704 C   0  0  0  0  0  0  0  0  0  0  0  0
    2.5985    2.1353   -0.2775 C   0  0  0  0  0  0  0  0  0  0  0  0
    3.9647    2.1127   -0.1644 C   0  0  0  0  0  0  0  0  0  0  0  0
    4.5933    0.8900    0.0765 C   0  0  0  0  0  0  0  0  0  0  0  0
    3.8622   -0.2903    0.2233 C   0  0  0  0  0  0  0  0  0  0  0  0
    2.4631   -0.2765    0.1291 C   0  0  0  0  0  0  0  0  0  0  0  0
    1.6723   -1.4120    0.3147 C   0  0  0  0  0  0  0  0  0  0  0  0
    0.3677   -1.3380    0.1975 N   0  3  0  0  0  0  0  0  0  0  0  0
   -0.2792   -0.1911   -0.0594 C   0  0  0  0  0  0  0  0  0  0  0  0
   -1.7640   -0.2011   -0.0340 C   0  0  0  0  0  0  0  0  0  0  0  0
   -2.5132    0.9021    0.3746 C   0  0  0  0  0  0  0  0  0  0  0  0
   -3.8926    0.8300    0.2772 C   0  0  0  0  0  0  0  0  0  0  0  0
   -4.5328   -0.3386   -0.1660 C   0  0  0  0  0  0  0  0  0  0  0  0
   -3.7993   -1.4675   -0.4991 C   0  0  0  0  0  0  0  0  0  0  0  0
   -2.4210   -1.3832   -0.4049 C   0  0  0  0  0  0  0  0  0  0  0  0
   -1.5945   -2.6222   -0.6618 C   0  0  0  0  0  0  0  0  0  0  0  0
   -0.4015   -2.5891    0.3000 C   0  0  0  0  0  0  0  0  0  0  0  0
   -5.8565   -0.0925   -0.1811 O   0  0  0  0  0  0  0  0  0  0  0  0
   -6.0971    1.0426    0.6620 C   0  0  0  0  0  0  0  0  0  0  0  0
   -4.8507    1.7407    0.5373 O   0  0  0  0  0  0  0  0  0  0  0  0
    4.7457   -1.2846    0.4360 O   0  0  0  0  0  0  0  0  0  0  0  0
    6.0141   -0.8361   -0.0658 C   0  0  0  0  0  0  0  0  0  0  0  0
    5.8979    0.5686    0.2086 O   0  0  0  0  0  0  0  0  0  0  0  0
   -0.1735    2.2527   -1.9394 H   0  0  0  0  0  0  0  0  0  0  0  0
   -1.2839    2.2089   -0.5489 H   0  0  0  0  0  0  0  0  0  0  0  0
    0.2615    3.0836   -0.4265 H   0  0  0  0  0  0  0  0  0  0  0  0
    2.1255    3.0915   -0.4448 H   0  0  0  0  0  0  0  0  0  0  0  0
    4.5371    3.0236   -0.2585 H   0  0  0  0  0  0  0  0  0  0  0  0
    2.1406   -2.3552    0.5577 H   0  0  0  0  0  0  0  0  0  0  0  0
   -2.0607    1.7799    0.8182 H   0  0  0  0  0  0  0  0  0  0  0  0
   -4.2871   -2.3781   -0.8176 H   0  0  0  0  0  0  0  0  0  0  0  0
   -2.1924   -3.5095   -0.4703 H   0  0  0  0  0  0  0  0  0  0  0  0
   -1.2356   -2.6208   -1.6874 H   0  0  0  0  0  0  0  0  0  0  0  0
    0.2555   -3.4245    0.0715 H   0  0  0  0  0  0  0  0  0  0  0  0
   -0.7727   -2.6891    1.3171 H   0  0  0  0  0  0  0  0  0  0  0  0
   -6.9242    1.6447    0.2830 H   0  0  0  0  0  0  0  0  0  0  0  0
   -6.2778    0.7376    1.6928 H   0  0  0  0  0  0  0  0  0  0  0  0
    6.8398   -1.2831    0.4847 H   0  0  0  0  0  0  0  0  0  0  0  0
    6.1032   -1.0222   -1.1361 H   0  0  0  0  0  0  0  0  0  0  0  0
  1  2  1  0  0  0  0
  2  3  2  0  0  0  0
  3  4  1  0  0  0  0
  4  5  2  0  0  0  0
  5  6  1  0  0  0  0
  6  7  2  0  0  0  0
  7  8  1  0  0  0  0
  3  8  1  0  0  0  0
  8  9  2  0  0  0  0
  9 10  1  0  0  0  0
 10 11  2  0  0  0  0
  2 11  1  0  0  0  0
 11 12  1  0  0  0  0
 12 13  2  0  0  0  0
 13 14  1  0  0  0  0
 14 15  2  0  0  0  0
 15 16  1  0  0  0  0
 16 17  2  0  0  0  0
 12 17  1  0  0  0  0
 17 18  1  0  0  0  0
 18 19  1  0  0  0  0
 10 19  1  0  0  0  0
 15 20  1  0  0  0  0
 20 21  1  0  0  0  0
 21 22  1  0  0  0  0
 14 22  1  0  0  0  0
  7 23  1  0  0  0  0
 23 24  1  0  0  0  0
 24 25  1  0  0  0  0
  6 25  1  0  0  0  0
  1 26  1  0  0  0  0
  1 27  1  0  0  0  0
  1 28  1  0  0  0  0
  4 29  1  0  0  0  0
  5 30  1  0  0  0  0
  9 31  1  0  0  0  0
 13 32  1  0  0  0  0
 16 33  1  0  0  0  0
 18 34  1  0  0  0  0
 18 35  1  0  0  0  0
 19 36  1  0  0  0  0
 19 37  1  0  0  0  0
 21 38  1  0  0  0  0
 21 39  1  0  0  0  0
 24 40  1  0  0  0  0
 24 41  1  0  0  0  0
M  CHG  1  10   1
M  END
$$$$
