C21H20O10
APtclcactv06291801023D 0   0.00000     0.00000
 
 51 54  0  0  0  0  0  0  0  0999 V2000
   -5.0927   -1.6846   -0.1733 C   0  0  0  0  0  0  0  0  0  0  0  0
   -6.4387   -1.8954   -0.3752 C   0  0  0  0  0  0  0  0  0  0  0  0
   -7.3065   -0.8143   -0.4723 C   0  0  0  0  0  0  0  0  0  0  0  0
   -6.8209    0.4835   -0.3662 C   0  0  0  0  0  0  0  0  0  0  0  0
   -5.4763    0.7034   -0.1646 C   0  0  0  0  0  0  0  0  0  0  0  0
   -4.6000   -0.3810   -0.0659 C   0  0  0  0  0  0  0  0  0  0  0  0
   -3.1592   -0.1503    0.1505 C   0  0  0  0  0  0  0  0  0  0  0  0
   -2.3312   -1.2256    0.2424 C   0  0  0  0  0  0  0  0  0  0  0  0
   -0.9460   -1.0238    0.4493 C   0  0  0  0  0  0  0  0  0  0  0  0
   -0.1742   -1.9652    0.5362 O   0  0  0  0  0  0  0  0  0  0  0  0
   -0.4720    0.3665    0.5553 C   0  0  0  0  0  0  0  0  0  0  0  0
    0.8819    0.6596    0.7596 C   0  0  0  0  0  0  0  0  0  0  0  0
    1.2866    1.9787    0.8531 C   0  0  0  0  0  0  0  0  0  0  0  0
    0.3544    3.0046    0.7448 C   0  0  0  0  0  0  0  0  0  0  0  0
   -0.9878    2.7214    0.5429 C   0  0  0  0  0  0  0  0  0  0  0  0
   -1.4123    1.4057    0.4461 C   0  0  0  0  0  0  0  0  0  0  0  0
   -2.7145    1.1129    0.2437 O   0  0  0  0  0  0  0  0  0  0  0  0
    0.7623    4.2960    0.8381 O   0  0  0  0  0  0  0  0  0  0  0  0
    1.7901   -0.3433    0.8654 O   0  0  0  0  0  0  0  0  0  0  0  0
    3.1525    0.0345    1.0732 C   0  0  0  0  0  0  0  0  0  0  0  0
    4.0026   -1.2199    1.2912 C   0  0  0  0  0  0  0  0  0  0  0  0
    3.9483   -2.0894    0.0313 C   0  0  0  0  0  0  0  0  0  0  0  0
    4.4271   -1.2636   -1.1666 C   0  0  0  0  0  0  0  0  0  0  0  0
    3.5606   -0.0075   -1.2898 C   0  0  0  0  0  0  0  0  0  0  0  0
    3.6317    0.7396   -0.0737 O   0  0  0  0  0  0  0  0  0  0  0  0
    4.0707    0.8527   -2.4477 C   0  0  0  0  0  0  0  0  0  0  0  0
    3.1937    1.9649   -2.6371 O   0  0  0  0  0  0  0  0  0  0  0  0
    5.7913   -0.8855   -0.9713 O   0  0  0  0  0  0  0  0  0  0  0  0
    4.7975   -3.2265    0.1983 O   0  0  0  0  0  0  0  0  0  0  0  0
    5.3555   -0.8405    1.5517 O   0  0  0  0  0  0  0  0  0  0  0  0
   -8.6325   -1.0266   -0.6719 O   0  0  0  0  0  0  0  0  0  0  0  0
   -4.4196   -2.5254   -0.0935 H   0  0  0  0  0  0  0  0  0  0  0  0
   -6.8202   -2.9023   -0.4587 H   0  0  0  0  0  0  0  0  0  0  0  0
   -7.4988    1.3208   -0.4422 H   0  0  0  0  0  0  0  0  0  0  0  0
   -5.0996    1.7123   -0.0829 H   0  0  0  0  0  0  0  0  0  0  0  0
   -2.7283   -2.2264    0.1583 H   0  0  0  0  0  0  0  0  0  0  0  0
    2.3291    2.2124    1.0110 H   0  0  0  0  0  0  0  0  0  0  0  0
   -1.7029    3.5266    0.4610 H   0  0  0  0  0  0  0  0  0  0  0  0
    1.0074    4.6932   -0.0089 H   0  0  0  0  0  0  0  0  0  0  0  0
    3.2217    0.6776    1.9506 H   0  0  0  0  0  0  0  0  0  0  0  0
    3.6113   -1.7822    2.1391 H   0  0  0  0  0  0  0  0  0  0  0  0
    2.9237   -2.4198   -0.1397 H   0  0  0  0  0  0  0  0  0  0  0  0
    4.3395   -1.8572   -2.0766 H   0  0  0  0  0  0  0  0  0  0  0  0
    2.5268   -0.2963   -1.4791 H   0  0  0  0  0  0  0  0  0  0  0  0
    5.0725    1.2150   -2.2173 H   0  0  0  0  0  0  0  0  0  0  0  0
    4.1011    0.2548   -3.3585 H   0  0  0  0  0  0  0  0  0  0  0  0
    3.4564    2.5548   -3.3569 H   0  0  0  0  0  0  0  0  0  0  0  0
    6.3975   -1.6333   -0.8801 H   0  0  0  0  0  0  0  0  0  0  0  0
    4.5559   -3.7916    0.9448 H   0  0  0  0  0  0  0  0  0  0  0  0
    5.4640   -0.2833    2.3345 H   0  0  0  0  0  0  0  0  0  0  0  0
   -9.1443   -1.1121    0.1441 H   0  0  0  0  0  0  0  0  0  0  0  0
  1  2  2  0  0  0  0
  2  3  1  0  0  0  0
  3  4  2  0  0  0  0
  4  5  1  0  0  0  0
  5  6  2  0  0  0  0
  1  6  1  0  0  0  0
  6  7  1  0  0  0  0
  7  8  2  0  0  0  0
  8  9  1  0  0  0  0
  9 10  2  0  0  0  0
  9 11  1  0  0  0  0
 11 12  2  0  0  0  0
 12 13  1  0  0  0  0
 13 14  2  0  0  0  0
 14 15  1  0  0  0  0
 15 16  2  0  0  0  0
 11 16  1  0  0  0  0
 16 17  1  0  0  0  0
  7 17  1  0  0  0  0
 14 18  1  0  0  0  0
 12 19  1  0  0  0  0
 19 20  1  0  0  0  0
 20 21  1  0  0  0  0
 21 22  1  0  0  0  0
 22 23  1  0  0  0  0
 23 24  1  0  0  0  0
 24 25  1  0  0  0  0
 20 25  1  0  0  0  0
 24 26  1  0  0  0  0
 26 27  1  0  0  0  0
 23 28  1  0  0  0  0
 22 29  1  0  0  0  0
 21 30  1  0  0  0  0
  3 31  1  0  0  0  0
  1 32  1  0  0  0  0
  2 33  1  0  0  0  0
  4 34  1  0  0  0  0
  5 35  1  0  0  0  0
  8 36  1  0  0  0  0
 13 37  1  0  0  0  0
 15 38  1  0  0  0  0
 18 39  1  0  0  0  0
 20 40  1  0  0  0  0
 21 41  1  0  0  0  0
 22 42  1  0  0  0  0
 23 43  1  0  0  0  0
 24 44  1  0  0  0  0
 26 45  1  0  0  0  0
 26 46  1  0  0  0  0
 27 47  1  0  0  0  0
 28 48  1  0  0  0  0
 29 49  1  0  0  0  0
 30 50  1  0  0  0  0
 31 51  1  0  0  0  0
M  END
$$$$
