C15H20O4
APtclcactv06291801023D 0   0.00000     0.00000
 
 39 41  0  0  0  0  0  0  0  0999 V2000
   -1.0502    0.9592    1.6610 C   0  0  0  0  0  0  0  0  0  0  0  0
   -1.1003    0.9300    0.1321 C   0  0  0  0  0  0  0  0  0  0  0  0
   -0.3937    2.1700   -0.3962 C   0  0  0  0  0  0  0  0  0  0  0  0
    1.1007    2.1567   -0.0222 C   0  0  0  0  0  0  0  0  0  0  0  0
    1.6963    0.8836   -0.5866 C   0  0  0  0  0  0  0  0  0  0  0  0
    1.0119   -0.3082    0.1494 C   0  0  0  0  0  0  0  0  0  0  0  0
   -0.4119   -0.3595   -0.3520 C   0  0  0  0  0  0  0  0  0  0  0  0
   -1.1655   -1.5322    0.2280 C   0  0  0  0  0  0  0  0  0  0  0  0
   -0.5455   -2.4697    0.9009 C   0  0  0  0  0  0  0  0  0  0  0  0
   -2.6626   -1.5877    0.0060 C   0  0  0  0  0  0  0  0  0  0  0  0
   -3.2783   -0.2506    0.4277 C   0  0  0  0  0  0  0  0  0  0  0  0
   -2.5625    0.8927   -0.3010 C   0  0  0  0  0  0  0  0  0  0  0  0
   -3.1778    2.1359    0.0426 O   0  0  0  0  0  0  0  0  0  0  0  0
   -2.9325   -1.8234   -1.3774 O   0  0  0  0  0  0  0  0  0  0  0  0
    1.9055   -1.3900   -0.1980 O   0  0  0  0  0  0  0  0  0  0  0  0
    3.1664   -0.8804   -0.0465 C   0  0  0  0  0  0  0  0  0  0  0  0
    4.1583   -1.5304    0.2193 O   0  0  0  0  0  0  0  0  0  0  0  0
    3.1358    0.5924   -0.2573 C   0  0  0  0  0  0  0  0  0  0  0  0
    4.1474    1.4531   -0.1743 C   0  0  0  0  0  0  0  0  0  0  0  0
   -1.5512    1.8566    2.0239 H   0  0  0  0  0  0  0  0  0  0  0  0
   -1.5524    0.0770    2.0579 H   0  0  0  0  0  0  0  0  0  0  0  0
   -0.0112    0.9648    1.9904 H   0  0  0  0  0  0  0  0  0  0  0  0
   -0.4907    2.2021   -1.4814 H   0  0  0  0  0  0  0  0  0  0  0  0
   -0.8614    3.0574    0.0304 H   0  0  0  0  0  0  0  0  0  0  0  0
    1.5992    3.0233   -0.4565 H   0  0  0  0  0  0  0  0  0  0  0  0
    1.2116    2.1689    1.0620 H   0  0  0  0  0  0  0  0  0  0  0  0
    1.5183    0.8240   -1.6603 H   0  0  0  0  0  0  0  0  0  0  0  0
    1.0209   -0.1360    1.2257 H   0  0  0  0  0  0  0  0  0  0  0  0
   -0.4218   -0.4010   -1.4412 H   0  0  0  0  0  0  0  0  0  0  0  0
    0.5228   -2.4117    1.0487 H   0  0  0  0  0  0  0  0  0  0  0  0
   -1.1026   -3.3005    1.3079 H   0  0  0  0  0  0  0  0  0  0  0  0
   -3.0907   -2.3915    0.6049 H   0  0  0  0  0  0  0  0  0  0  0  0
   -4.3364   -0.2406    0.1660 H   0  0  0  0  0  0  0  0  0  0  0  0
   -3.1719   -0.1267    1.5054 H   0  0  0  0  0  0  0  0  0  0  0  0
   -2.6323    0.7377   -1.3776 H   0  0  0  0  0  0  0  0  0  0  0  0
   -4.1142    2.1896   -0.1929 H   0  0  0  0  0  0  0  0  0  0  0  0
   -3.8743   -1.8709   -1.5918 H   0  0  0  0  0  0  0  0  0  0  0  0
    5.1376    1.1003    0.0735 H   0  0  0  0  0  0  0  0  0  0  0  0
    3.9782    2.5044   -0.3547 H   0  0  0  0  0  0  0  0  0  0  0  0
  1  2  1  0  0  0  0
  2  3  1  0  0  0  0
  3  4  1  0  0  0  0
  4  5  1  0  0  0  0
  5  6  1  0  0  0  0
  6  7  1  0  0  0  0
  2  7  1  0  0  0  0
  7  8  1  0  0  0  0
  8  9  2  0  0  0  0
  8 10  1  0  0  0  0
 10 11  1  0  0  0  0
 11 12  1  0  0  0  0
  2 12  1  0  0  0  0
 12 13  1  0  0  0  0
 10 14  1  0  0  0  0
  6 15  1  0  0  0  0
 15 16  1  0  0  0  0
 16 17  2  0  0  0  0
 16 18  1  0  0  0  0
  5 18  1  0  0  0  0
 18 19  2  0  0  0  0
  1 20  1  0  0  0  0
  1 21  1  0  0  0  0
  1 22  1  0  0  0  0
  3 23  1  0  0  0  0
  3 24  1  0  0  0  0
  4 25  1  0  0  0  0
  4 26  1  0  0  0  0
  5 27  1  0  0  0  0
  6 28  1  0  0  0  0
  7 29  1  0  0  0  0
  9 30  1  0  0  0  0
  9 31  1  0  0  0  0
 10 32  1  0  0  0  0
 11 33  1  0  0  0  0
 11 34  1  0  0  0  0
 12 35  1  0  0  0  0
 13 36  1  0  0  0  0
 14 37  1  0  0  0  0
 19 38  1  0  0  0  0
 19 39  1  0  0  0  0
M  END
$$$$
