C29H44O2
APtclcactv06291801023D 0   0.00000     0.00000
 
 75 78  0  0  0  0  0  0  0  0999 V2000
    5.5166    0.5433    2.3798 C   0  0  0  0  0  0  0  0  0  0  0  0
    6.3072   -0.2406    1.3304 C   0  0  0  0  0  0  0  0  0  0  0  0
    5.3374   -0.8878    0.3397 C   0  0  0  0  0  0  0  0  0  0  0  0
    4.6121    0.1870   -0.4283 C   0  0  0  0  0  0  0  0  0  0  0  0
    3.3061    0.2685   -0.3662 C   0  0  0  0  0  0  0  0  0  0  0  0
    2.5808    1.3433   -1.1342 C   0  0  0  0  0  0  0  0  0  0  0  0
    1.7162    0.6992   -2.2198 C   0  0  0  0  0  0  0  0  0  0  0  0
    1.6935    2.1371   -0.1823 C   0  0  0  0  0  0  0  0  0  0  0  0
    1.0562    3.3390   -0.9263 C   0  0  0  0  0  0  0  0  0  0  0  0
   -0.4729    3.0632   -0.9727 C   0  0  0  0  0  0  0  0  0  0  0  0
   -0.5273    1.5337   -0.8135 C   0  0  0  0  0  0  0  0  0  0  0  0
    0.4950    1.3155    0.3239 C   0  0  0  0  0  0  0  0  0  0  0  0
    0.7152   -0.1601    0.5156 C   0  0  0  0  0  0  0  0  0  0  0  0
   -0.6115   -0.9115    0.6836 C   0  0  0  0  0  0  0  0  0  0  0  0
   -1.8453   -0.0263    0.6635 C   0  0  0  0  0  0  0  0  0  0  0  0
   -1.8695    0.9347   -0.5090 C   0  0  0  0  0  0  0  0  0  0  0  0
   -2.9485    2.0066   -0.3593 C   0  0  0  0  0  0  0  0  0  0  0  0
   -4.1759    1.3760    0.2675 C   0  0  0  0  0  0  0  0  0  0  0  0
   -5.0253    2.0327    0.8239 O   0  0  0  0  0  0  0  0  0  0  0  0
   -4.2658   -0.0959    0.1514 C   0  0  0  0  0  0  0  0  0  0  0  0
   -5.3383   -0.6869   -0.3936 C   0  0  0  0  0  0  0  0  0  0  0  0
   -5.3995   -2.1498   -0.5156 C   0  0  0  0  0  0  0  0  0  0  0  0
   -6.4209   -2.6787   -0.9032 O   0  0  0  0  0  0  0  0  0  0  0  0
   -4.2034   -2.9959   -0.1691 C   0  0  0  0  0  0  0  0  0  0  0  0
   -2.9269   -2.1522   -0.1749 C   0  0  0  0  0  0  0  0  0  0  0  0
   -3.1070   -0.9046    0.6770 C   0  0  0  0  0  0  0  0  0  0  0  0
   -3.3943   -1.3012    2.1278 C   0  0  0  0  0  0  0  0  0  0  0  0
    0.0590    1.9791    1.6376 C   0  0  0  0  0  0  0  0  0  0  0  0
    6.1182   -1.7722   -0.6345 C   0  0  0  0  0  0  0  0  0  0  0  0
    6.8545   -2.8634    0.1452 C   0  0  0  0  0  0  0  0  0  0  0  0
    5.1483   -2.4194   -1.6252 C   0  0  0  0  0  0  0  0  0  0  0  0
    6.2075    1.0045    3.0856 H   0  0  0  0  0  0  0  0  0  0  0  0
    4.9288    1.3183    1.8878 H   0  0  0  0  0  0  0  0  0  0  0  0
    4.8503   -0.1342    2.9137 H   0  0  0  0  0  0  0  0  0  0  0  0
    6.9735    0.4370    0.7965 H   0  0  0  0  0  0  0  0  0  0  0  0
    6.8950   -1.0155    1.8224 H   0  0  0  0  0  0  0  0  0  0  0  0
    4.6148   -1.4963    0.8835 H   0  0  0  0  0  0  0  0  0  0  0  0
    5.1690    0.8901   -1.0299 H   0  0  0  0  0  0  0  0  0  0  0  0
    2.7492   -0.4346    0.2354 H   0  0  0  0  0  0  0  0  0  0  0  0
    3.3067    2.0119   -1.5969 H   0  0  0  0  0  0  0  0  0  0  0  0
    1.0402   -0.0243   -1.7642 H   0  0  0  0  0  0  0  0  0  0  0  0
    1.1355    1.4700   -2.7266 H   0  0  0  0  0  0  0  0  0  0  0  0
    2.3570    0.1932   -2.9419 H   0  0  0  0  0  0  0  0  0  0  0  0
    2.2724    2.4933    0.6694 H   0  0  0  0  0  0  0  0  0  0  0  0
    1.2522    4.2595   -0.3819 H   0  0  0  0  0  0  0  0  0  0  0  0
    1.4558    3.4099   -1.9369 H   0  0  0  0  0  0  0  0  0  0  0  0
   -0.9916    3.5823   -0.1771 H   0  0  0  0  0  0  0  0  0  0  0  0
   -0.8756    3.3526   -1.9451 H   0  0  0  0  0  0  0  0  0  0  0  0
   -0.1387    1.0811   -1.7451 H   0  0  0  0  0  0  0  0  0  0  0  0
    1.2450   -0.6012   -0.3377 H   0  0  0  0  0  0  0  0  0  0  0  0
    1.3347   -0.3256    1.4089 H   0  0  0  0  0  0  0  0  0  0  0  0
   -0.6831   -1.6541   -0.1254 H   0  0  0  0  0  0  0  0  0  0  0  0
   -0.5801   -1.4679    1.6290 H   0  0  0  0  0  0  0  0  0  0  0  0
   -1.9046    0.5398    1.5989 H   0  0  0  0  0  0  0  0  0  0  0  0
   -2.1608    0.3359   -1.4026 H   0  0  0  0  0  0  0  0  0  0  0  0
   -2.5926    2.8064    0.2876 H   0  0  0  0  0  0  0  0  0  0  0  0
   -3.2036    2.4057   -1.3392 H   0  0  0  0  0  0  0  0  0  0  0  0
   -6.1613   -0.0824   -0.7457 H   0  0  0  0  0  0  0  0  0  0  0  0
   -4.3463   -3.4655    0.8038 H   0  0  0  0  0  0  0  0  0  0  0  0
   -4.1052   -3.7876   -0.9210 H   0  0  0  0  0  0  0  0  0  0  0  0
   -2.1074   -2.7561    0.2250 H   0  0  0  0  0  0  0  0  0  0  0  0
   -2.6862   -1.8681   -1.2025 H   0  0  0  0  0  0  0  0  0  0  0  0
   -2.5601   -1.8849    2.5169 H   0  0  0  0  0  0  0  0  0  0  0  0
   -3.5221   -0.4028    2.7316 H   0  0  0  0  0  0  0  0  0  0  0  0
   -4.3054   -1.8983    2.1676 H   0  0  0  0  0  0  0  0  0  0  0  0
   -0.9628    1.6816    1.8733 H   0  0  0  0  0  0  0  0  0  0  0  0
    0.7238    1.6641    2.4419 H   0  0  0  0  0  0  0  0  0  0  0  0
    0.1064    3.0628    1.5305 H   0  0  0  0  0  0  0  0  0  0  0  0
    6.8408   -1.1637   -1.1783 H   0  0  0  0  0  0  0  0  0  0  0  0
    6.1319   -3.4718    0.6890 H   0  0  0  0  0  0  0  0  0  0  0  0
    7.4108   -3.4934   -0.5489 H   0  0  0  0  0  0  0  0  0  0  0  0
    7.5454   -2.4023    0.8509 H   0  0  0  0  0  0  0  0  0  0  0  0
    4.6238   -1.6420   -2.1807 H   0  0  0  0  0  0  0  0  0  0  0  0
    5.7046   -3.0494   -2.3193 H   0  0  0  0  0  0  0  0  0  0  0  0
    4.4257   -3.0279   -1.0814 H   0  0  0  0  0  0  0  0  0  0  0  0
  1  2  1  0  0  0  0
  2  3  1  0  0  0  0
  3  4  1  0  0  0  0
  4  5  2  0  0  0  0
  5  6  1  0  0  0  0
  6  7  1  0  0  0  0
  6  8  1  0  0  0  0
  8  9  1  0  0  0  0
  9 10  1  0  0  0  0
 10 11  1  0  0  0  0
 11 12  1  0  0  0  0
  8 12  1  0  0  0  0
 12 13  1  0  0  0  0
 13 14  1  0  0  0  0
 14 15  1  0  0  0  0
 15 16  1  0  0  0  0
 11 16  1  0  0  0  0
 16 17  1  0  0  0  0
 17 18  1  0  0  0  0
 18 19  2  0  0  0  0
 18 20  1  0  0  0  0
 20 21  2  0  0  0  0
 21 22  1  0  0  0  0
 22 23  2  0  0  0  0
 22 24  1  0  0  0  0
 24 25  1  0  0  0  0
 25 26  1  0  0  0  0
 15 26  1  0  0  0  0
 20 26  1  0  0  0  0
 26 27  1  0  0  0  0
 12 28  1  0  0  0  0
  3 29  1  0  0  0  0
 29 30  1  0  0  0  0
 29 31  1  0  0  0  0
  1 32  1  0  0  0  0
  1 33  1  0  0  0  0
  1 34  1  0  0  0  0
  2 35  1  0  0  0  0
  2 36  1  0  0  0  0
  3 37  1  0  0  0  0
  4 38  1  0  0  0  0
  5 39  1  0  0  0  0
  6 40  1  0  0  0  0
  7 41  1  0  0  0  0
  7 42  1  0  0  0  0
  7 43  1  0  0  0  0
  8 44  1  0  0  0  0
  9 45  1  0  0  0  0
  9 46  1  0  0  0  0
 10 47  1  0  0  0  0
 10 48  1  0  0  0  0
 11 49  1  0  0  0  0
 13 50  1  0  0  0  0
 13 51  1  0  0  0  0
 14 52  1  0  0  0  0
 14 53  1  0  0  0  0
 15 54  1  0  0  0  0
 16 55  1  0  0  0  0
 17 56  1  0  0  0  0
 17 57  1  0  0  0  0
 21 58  1  0  0  0  0
 24 59  1  0  0  0  0
 24 60  1  0  0  0  0
 25 61  1  0  0  0  0
 25 62  1  0  0  0  0
 27 63  1  0  0  0  0
 27 64  1  0  0  0  0
 27 65  1  0  0  0  0
 28 66  1  0  0  0  0
 28 67  1  0  0  0  0
 28 68  1  0  0  0  0
 29 69  1  0  0  0  0
 30 70  1  0  0  0  0
 30 71  1  0  0  0  0
 30 72  1  0  0  0  0
 31 73  1  0  0  0  0
 31 74  1  0  0  0  0
 31 75  1  0  0  0  0
M  END
$$$$
