C20H26O8
APtclcactv06291801023D 0   0.00000     0.00000
 
 54 57  0  0  0  0  0  0  0  0999 V2000
    2.0491    0.0582   -1.4418 C   0  0  0  0  0  0  0  0  0  0  0  0
    2.3181    0.1269    0.0628 C   0  0  0  0  0  0  0  0  0  0  0  0
    2.9928    1.4636    0.4135 C   0  0  0  0  0  0  0  0  0  0  0  0
    2.0938    2.6488    0.0755 C   0  0  0  0  0  0  0  0  0  0  0  0
    0.7133    2.5190    0.7392 C   0  0  0  0  0  0  0  0  0  0  0  0
    0.1044    1.2144    0.2619 C   0  0  0  0  0  0  0  0  0  0  0  0
    1.0096    0.0715    0.8237 C   0  0  0  0  0  0  0  0  0  0  0  0
    0.1661   -1.1951    0.6380 C   0  0  0  0  0  0  0  0  0  0  0  0
   -1.2770   -0.6995    0.5833 C   0  0  0  0  0  0  0  0  0  0  0  0
   -1.2324    0.8165    0.8517 C   0  0  0  0  0  0  0  0  0  0  0  0
   -2.4513    1.5757    0.4915 C   0  0  0  0  0  0  0  0  0  0  0  0
   -3.4223    0.9503   -0.4836 C   0  0  0  0  0  0  0  0  0  0  0  0
   -3.3601   -0.5740   -0.5144 C   0  0  0  0  0  0  0  0  0  0  0  0
   -1.8785   -0.9352   -0.8199 C   0  0  0  0  0  0  0  0  0  0  0  0
   -3.6225   -1.1601    0.8603 C   0  0  0  0  0  0  0  0  0  0  0  0
   -4.7936   -1.4518    1.3696 C   0  0  0  0  0  0  0  0  0  0  0  0
   -2.2691   -1.3465    1.5391 C   0  0  0  0  0  0  0  0  0  0  0  0
   -4.7479    1.3466   -0.1265 O   0  0  0  0  0  0  0  0  0  0  0  0
    0.5328   -1.8851   -0.6506 C   0  0  0  0  0  0  0  0  0  0  0  0
   -0.2695   -1.9479   -1.5518 O   0  0  0  0  0  0  0  0  0  0  0  0
    1.7508   -2.4299   -0.7971 O   0  0  0  0  0  0  0  0  0  0  0  0
    0.0692    1.1707   -1.2440 C   0  0  0  0  0  0  0  0  0  0  0  0
    0.0952    2.1983   -1.8790 O   0  0  0  0  0  0  0  0  0  0  0  0
    0.0090   -0.0099   -1.8800 O   0  0  0  0  0  0  0  0  0  0  0  0
    3.2882    1.4851    1.8115 O   0  0  0  0  0  0  0  0  0  0  0  0
    3.2038   -1.0194    0.4781 C   0  0  0  0  0  0  0  0  0  0  0  0
    2.8127   -1.8203    1.2940 O   0  0  0  0  0  0  0  0  0  0  0  0
    4.4273   -1.1507   -0.0582 O   0  0  0  0  0  0  0  0  0  0  0  0
    2.9839   -0.1300   -1.9698 H   0  0  0  0  0  0  0  0  0  0  0  0
    1.3461   -0.7487   -1.6487 H   0  0  0  0  0  0  0  0  0  0  0  0
    1.6256    1.0044   -1.7787 H   0  0  0  0  0  0  0  0  0  0  0  0
    3.9234    1.5509   -0.1474 H   0  0  0  0  0  0  0  0  0  0  0  0
    2.5699    3.5665    0.4210 H   0  0  0  0  0  0  0  0  0  0  0  0
    1.9654    2.7012   -1.0056 H   0  0  0  0  0  0  0  0  0  0  0  0
    0.8232    2.5022    1.8235 H   0  0  0  0  0  0  0  0  0  0  0  0
    0.0793    3.3546    0.4428 H   0  0  0  0  0  0  0  0  0  0  0  0
    1.1940    0.2364    1.8852 H   0  0  0  0  0  0  0  0  0  0  0  0
    0.3037   -1.8697    1.4830 H   0  0  0  0  0  0  0  0  0  0  0  0
   -1.1260    0.9214    1.9314 H   0  0  0  0  0  0  0  0  0  0  0  0
   -2.9954    1.7846    1.4125 H   0  0  0  0  0  0  0  0  0  0  0  0
   -2.1347    2.5323    0.0757 H   0  0  0  0  0  0  0  0  0  0  0  0
   -3.2055    1.3284   -1.4827 H   0  0  0  0  0  0  0  0  0  0  0  0
   -4.0333   -0.9826   -1.2681 H   0  0  0  0  0  0  0  0  0  0  0  0
   -1.4469   -0.2591   -1.5579 H   0  0  0  0  0  0  0  0  0  0  0  0
   -1.7767   -1.9757   -1.1282 H   0  0  0  0  0  0  0  0  0  0  0  0
   -5.6911   -1.2768    0.7950 H   0  0  0  0  0  0  0  0  0  0  0  0
   -4.8616   -1.8674    2.3642 H   0  0  0  0  0  0  0  0  0  0  0  0
   -2.0460   -2.4066    1.6599 H   0  0  0  0  0  0  0  0  0  0  0  0
   -2.2539   -0.8404    2.5044 H   0  0  0  0  0  0  0  0  0  0  0  0
   -4.8907    2.3029   -0.1440 H   0  0  0  0  0  0  0  0  0  0  0  0
    1.9398   -2.8617   -1.6415 H   0  0  0  0  0  0  0  0  0  0  0  0
   -0.0116    0.0127   -2.8465 H   0  0  0  0  0  0  0  0  0  0  0  0
    3.7164    2.2989    2.1105 H   0  0  0  0  0  0  0  0  0  0  0  0
    4.9588   -1.9018    0.2394 H   0  0  0  0  0  0  0  0  0  0  0  0
  1  2  1  0  0  0  0
  2  3  1  0  0  0  0
  3  4  1  0  0  0  0
  4  5  1  0  0  0  0
  5  6  1  0  0  0  0
  6  7  1  0  0  0  0
  2  7  1  0  0  0  0
  7  8  1  0  0  0  0
  8  9  1  0  0  0  0
  9 10  1  0  0  0  0
  6 10  1  0  0  0  0
 10 11  1  0  0  0  0
 11 12  1  0  0  0  0
 12 13  1  0  0  0  0
 13 14  1  0  0  0  0
  9 14  1  0  0  0  0
 13 15  1  0  0  0  0
 15 16  2  0  0  0  0
 15 17  1  0  0  0  0
  9 17  1  0  0  0  0
 12 18  1  0  0  0  0
  8 19  1  0  0  0  0
 19 20  2  0  0  0  0
 19 21  1  0  0  0  0
  6 22  1  0  0  0  0
 22 23  2  0  0  0  0
 22 24  1  0  0  0  0
  3 25  1  0  0  0  0
  2 26  1  0  0  0  0
 26 27  2  0  0  0  0
 26 28  1  0  0  0  0
  1 29  1  0  0  0  0
  1 30  1  0  0  0  0
  1 31  1  0  0  0  0
  3 32  1  0  0  0  0
  4 33  1  0  0  0  0
  4 34  1  0  0  0  0
  5 35  1  0  0  0  0
  5 36  1  0  0  0  0
  7 37  1  0  0  0  0
  8 38  1  0  0  0  0
 10 39  1  0  0  0  0
 11 40  1  0  0  0  0
 11 41  1  0  0  0  0
 12 42  1  0  0  0  0
 13 43  1  0  0  0  0
 14 44  1  0  0  0  0
 14 45  1  0  0  0  0
 16 46  1  0  0  0  0
 16 47  1  0  0  0  0
 17 48  1  0  0  0  0
 17 49  1  0  0  0  0
 18 50  1  0  0  0  0
 21 51  1  0  0  0  0
 24 52  1  0  0  0  0
 25 53  1  0  0  0  0
 28 54  1  0  0  0  0
M  END
$$$$
