C15H20O4
APtclcactv06291801023D 0   0.00000     0.00000
 
 39 39  0  0  0  0  0  0  0  0999 V2000
   -5.5913    1.4393    0.2642 C   0  0  0  0  0  0  0  0  0  0  0  0
   -5.6894   -0.0580    0.1255 C   0  0  0  0  0  0  0  0  0  0  0  0
   -4.5796   -0.7965    0.0620 C   0  0  0  0  0  0  0  0  0  0  0  0
   -3.2734   -0.1464   -0.0397 C   0  0  0  0  0  0  0  0  0  0  0  0
   -3.2039    1.0568   -0.1797 O   0  0  0  0  0  0  0  0  0  0  0  0
   -2.0139   -0.9709    0.0294 C   0  0  0  0  0  0  0  0  0  0  0  0
   -0.7962   -0.0538   -0.1012 C   0  0  0  0  0  0  0  0  0  0  0  0
   -0.8012    0.9662    1.0392 C   0  0  0  0  0  0  0  0  0  0  0  0
    0.4826   -0.8909   -0.0310 C   0  0  0  0  0  0  0  0  0  0  0  0
    1.6998    0.0360   -0.0362 C   0  0  0  0  0  0  0  0  0  0  0  0
    2.9594   -0.7886    0.0329 C   0  0  0  0  0  0  0  0  0  0  0  0
    2.8902   -1.9989    0.0816 O   0  0  0  0  0  0  0  0  0  0  0  0
    4.2681   -0.1283    0.0414 C   0  0  0  0  0  0  0  0  0  0  0  0
    4.5176    1.2163   -0.0074 C   0  0  0  0  0  0  0  0  0  0  0  0
    5.8401    1.3994    0.0217 O   0  0  0  0  0  0  0  0  0  0  0  0
    6.4866    0.2249    0.0883 C   0  0  0  0  0  0  0  0  0  0  0  0
    5.5901   -0.7720    0.1107 C   0  0  0  0  0  0  0  0  0  0  0  0
   -0.8485    0.6319   -1.3538 O   0  0  0  0  0  0  0  0  0  0  0  0
   -7.0409   -0.7216    0.0585 C   0  0  0  0  0  0  0  0  0  0  0  0
   -5.4501    1.8869   -0.7196 H   0  0  0  0  0  0  0  0  0  0  0  0
   -6.5085    1.8238    0.7101 H   0  0  0  0  0  0  0  0  0  0  0  0
   -4.7440    1.6903    0.9025 H   0  0  0  0  0  0  0  0  0  0  0  0
   -4.6460   -1.8742    0.0857 H   0  0  0  0  0  0  0  0  0  0  0  0
   -1.9740   -1.4939    0.9849 H   0  0  0  0  0  0  0  0  0  0  0  0
   -2.0103   -1.6976   -0.7830 H   0  0  0  0  0  0  0  0  0  0  0  0
   -0.7613    0.4431    1.9947 H   0  0  0  0  0  0  0  0  0  0  0  0
    0.0663    1.6195    0.9461 H   0  0  0  0  0  0  0  0  0  0  0  0
   -1.7122    1.5626    0.9892 H   0  0  0  0  0  0  0  0  0  0  0  0
    0.4800   -1.4822    0.8847 H   0  0  0  0  0  0  0  0  0  0  0  0
    0.5290   -1.5564   -0.8931 H   0  0  0  0  0  0  0  0  0  0  0  0
    1.7024    0.6272   -0.9519 H   0  0  0  0  0  0  0  0  0  0  0  0
    1.6535    0.7014    0.8258 H   0  0  0  0  0  0  0  0  0  0  0  0
    3.7723    1.9961   -0.0609 H   0  0  0  0  0  0  0  0  0  0  0  0
    7.5591    0.1024    0.1228 H   0  0  0  0  0  0  0  0  0  0  0  0
    5.7960   -1.8309    0.1618 H   0  0  0  0  0  0  0  0  0  0  0  0
   -0.8483    0.0461   -2.1232 H   0  0  0  0  0  0  0  0  0  0  0  0
   -7.3623   -0.7870   -0.9810 H   0  0  0  0  0  0  0  0  0  0  0  0
   -6.9750   -1.7237    0.4822 H   0  0  0  0  0  0  0  0  0  0  0  0
   -7.7627   -0.1339    0.6257 H   0  0  0  0  0  0  0  0  0  0  0  0
  1  2  1  0  0  0  0
  2  3  2  0  0  0  0
  3  4  1  0  0  0  0
  4  5  2  0  0  0  0
  4  6  1  0  0  0  0
  6  7  1  0  0  0  0
  7  8  1  0  0  0  0
  7  9  1  0  0  0  0
  9 10  1  0  0  0  0
 10 11  1  0  0  0  0
 11 12  2  0  0  0  0
 11 13  1  0  0  0  0
 13 14  2  0  0  0  0
 14 15  1  0  0  0  0
 15 16  1  0  0  0  0
 16 17  2  0  0  0  0
 13 17  1  0  0  0  0
  7 18  1  0  0  0  0
  2 19  1  0  0  0  0
  1 20  1  0  0  0  0
  1 21  1  0  0  0  0
  1 22  1  0  0  0  0
  3 23  1  0  0  0  0
  6 24  1  0  0  0  0
  6 25  1  0  0  0  0
  8 26  1  0  0  0  0
  8 27  1  0  0  0  0
  8 28  1  0  0  0  0
  9 29  1  0  0  0  0
  9 30  1  0  0  0  0
 10 31  1  0  0  0  0
 10 32  1  0  0  0  0
 14 33  1  0  0  0  0
 16 34  1  0  0  0  0
 17 35  1  0  0  0  0
 18 36  1  0  0  0  0
 19 37  1  0  0  0  0
 19 38  1  0  0  0  0
 19 39  1  0  0  0  0
M  END
$$$$
