C10H16O
APtclcactv06291801023D 0   0.00000     0.00000
 
 27 27  0  0  0  0  0  0  0  0999 V2000
    3.6070    0.2725   -0.0437 C   0  0  0  0  0  0  0  0  0  0  0  0
    2.1005    0.2405   -0.0697 C   0  0  0  0  0  0  0  0  0  0  0  0
    1.4627    1.0533    0.7101 C   0  0  0  0  0  0  0  0  0  0  0  0
   -0.0332    1.1302    0.8019 C   0  0  0  0  0  0  0  0  0  0  0  0
   -0.6713    0.4556   -0.4144 C   0  0  0  0  0  0  0  0  0  0  0  0
   -0.0299   -0.9261   -0.5949 C   0  0  0  0  0  0  0  0  0  0  0  0
    1.4333   -0.7275   -1.0023 C   0  0  0  0  0  0  0  0  0  0  0  0
   -0.0968   -1.6511    0.6347 O   0  0  0  0  0  0  0  0  0  0  0  0
   -2.1532    0.3005   -0.1882 C   0  0  0  0  0  0  0  0  0  0  0  0
   -3.0037    0.8690   -1.0065 C   0  0  0  0  0  0  0  0  0  0  0  0
   -2.6567   -0.5085    0.9793 C   0  0  0  0  0  0  0  0  0  0  0  0
    3.9422    1.0224    0.6728 H   0  0  0  0  0  0  0  0  0  0  0  0
    3.9862   -0.7061    0.2504 H   0  0  0  0  0  0  0  0  0  0  0  0
    3.9822    0.5245   -1.0356 H   0  0  0  0  0  0  0  0  0  0  0  0
    2.0431    1.7171    1.3337 H   0  0  0  0  0  0  0  0  0  0  0  0
   -0.3659    0.6273    1.7099 H   0  0  0  0  0  0  0  0  0  0  0  0
   -0.3397    2.1757    0.8373 H   0  0  0  0  0  0  0  0  0  0  0  0
   -0.4946    1.0606   -1.3037 H   0  0  0  0  0  0  0  0  0  0  0  0
   -0.5555   -1.4748   -1.3764 H   0  0  0  0  0  0  0  0  0  0  0  0
    1.4756   -0.3436   -2.0216 H   0  0  0  0  0  0  0  0  0  0  0  0
    1.9540   -1.6840   -0.9567 H   0  0  0  0  0  0  0  0  0  0  0  0
    0.2917   -2.5355    0.5915 H   0  0  0  0  0  0  0  0  0  0  0  0
   -4.0656    0.7578   -0.8445 H   0  0  0  0  0  0  0  0  0  0  0  0
   -2.6429    1.4487   -1.8432 H   0  0  0  0  0  0  0  0  0  0  0  0
   -1.8094   -0.9000    1.5423 H   0  0  0  0  0  0  0  0  0  0  0  0
   -3.2615    0.1260    1.6271 H   0  0  0  0  0  0  0  0  0  0  0  0
   -3.2632   -1.3367    0.6128 H   0  0  0  0  0  0  0  0  0  0  0  0
  1  2  1  0  0  0  0
  2  3  2  0  0  0  0
  3  4  1  0  0  0  0
  4  5  1  0  0  0  0
  5  6  1  0  0  0  0
  6  7  1  0  0  0  0
  2  7  1  0  0  0  0
  6  8  1  0  0  0  0
  5  9  1  0  0  0  0
  9 10  2  0  0  0  0
  9 11  1  0  0  0  0
  1 12  1  0  0  0  0
  1 13  1  0  0  0  0
  1 14  1  0  0  0  0
  3 15  1  0  0  0  0
  4 16  1  0  0  0  0
  4 17  1  0  0  0  0
  5 18  1  0  0  0  0
  6 19  1  0  0  0  0
  7 20  1  0  0  0  0
  7 21  1  0  0  0  0
  8 22  1  0  0  0  0
 10 23  1  0  0  0  0
 10 24  1  0  0  0  0
 11 25  1  0  0  0  0
 11 26  1  0  0  0  0
 11 27  1  0  0  0  0
M  END
$$$$
