C19H18O5
APtclcactv06291801023D 0   0.00000     0.00000
 
 42 44  0  0  0  0  0  0  0  0999 V2000
   -6.5188   -0.4089    0.8654 C   0  0  0  0  0  0  0  0  0  0  0  0
   -5.8477    0.4279   -0.1932 C   0  0  0  0  0  0  0  0  0  0  0  0
   -4.6569    0.9284    0.0249 C   0  0  0  0  0  0  0  0  0  0  0  0
   -3.9026    0.5604    1.2766 C   0  0  0  0  0  0  0  0  0  0  0  0
   -2.5429    0.0272    0.9053 C   0  0  0  0  0  0  0  0  0  0  0  0
   -2.4094   -1.2905    0.4773 C   0  0  0  0  0  0  0  0  0  0  0  0
   -1.1684   -1.7967    0.1323 C   0  0  0  0  0  0  0  0  0  0  0  0
   -0.0453   -0.9850    0.2131 C   0  0  0  0  0  0  0  0  0  0  0  0
   -0.1887    0.3456    0.6466 C   0  0  0  0  0  0  0  0  0  0  0  0
   -1.4484    0.8418    0.9854 C   0  0  0  0  0  0  0  0  0  0  0  0
    1.1599    0.9177    0.6195 C   0  0  0  0  0  0  0  0  0  0  0  0
    1.9787   -0.0711    0.1896 C   0  0  0  0  0  0  0  0  0  0  0  0
    1.2621   -1.1882   -0.0477 O   0  0  0  0  0  0  0  0  0  0  0  0
    3.4401    0.0552    0.0075 C   0  0  0  0  0  0  0  0  0  0  0  0
    4.1858   -1.0348   -0.4428 C   0  0  0  0  0  0  0  0  0  0  0  0
    5.5550   -0.9121   -0.6120 C   0  0  0  0  0  0  0  0  0  0  0  0
    6.1851    0.2925   -0.3345 C   0  0  0  0  0  0  0  0  0  0  0  0
    5.4473    1.3789    0.1134 C   0  0  0  0  0  0  0  0  0  0  0  0
    4.0769    1.2665    0.2798 C   0  0  0  0  0  0  0  0  0  0  0  0
    6.0694    2.5565    0.3837 O   0  0  0  0  0  0  0  0  0  0  0  0
    6.2823   -1.9732   -1.0501 O   0  0  0  0  0  0  0  0  0  0  0  0
   -3.5075   -2.0873    0.3978 O   0  0  0  0  0  0  0  0  0  0  0  0
   -6.5465    0.6889   -1.5026 C   0  0  0  0  0  0  0  0  0  0  0  0
   -5.7139    1.5005   -2.3333 O   0  0  0  0  0  0  0  0  0  0  0  0
   -6.5627    0.1526    1.7986 H   0  0  0  0  0  0  0  0  0  0  0  0
   -7.5299   -0.6589    0.5439 H   0  0  0  0  0  0  0  0  0  0  0  0
   -5.9493   -1.3254    1.0191 H   0  0  0  0  0  0  0  0  0  0  0  0
   -4.2157    1.6046   -0.6923 H   0  0  0  0  0  0  0  0  0  0  0  0
   -3.7874    1.4441    1.9043 H   0  0  0  0  0  0  0  0  0  0  0  0
   -4.4558   -0.2036    1.8228 H   0  0  0  0  0  0  0  0  0  0  0  0
   -1.0740   -2.8205   -0.1984 H   0  0  0  0  0  0  0  0  0  0  0  0
   -1.5568    1.8637    1.3176 H   0  0  0  0  0  0  0  0  0  0  0  0
    1.4434    1.9247    0.8879 H   0  0  0  0  0  0  0  0  0  0  0  0
    3.6962   -1.9729   -0.6587 H   0  0  0  0  0  0  0  0  0  0  0  0
    7.2529    0.3847   -0.4672 H   0  0  0  0  0  0  0  0  0  0  0  0
    3.5033    2.1126    0.6285 H   0  0  0  0  0  0  0  0  0  0  0  0
    6.1230    3.1559   -0.3732 H   0  0  0  0  0  0  0  0  0  0  0  0
    6.3665   -2.0221   -2.0121 H   0  0  0  0  0  0  0  0  0  0  0  0
   -3.9524   -2.0595   -0.4603 H   0  0  0  0  0  0  0  0  0  0  0  0
   -6.7460   -0.2585   -2.0032 H   0  0  0  0  0  0  0  0  0  0  0  0
   -7.4875    1.2062   -1.3154 H   0  0  0  0  0  0  0  0  0  0  0  0
   -6.1012    1.7088   -3.1946 H   0  0  0  0  0  0  0  0  0  0  0  0
  1  2  1  0  0  0  0
  2  3  2  0  0  0  0
  3  4  1  0  0  0  0
  4  5  1  0  0  0  0
  5  6  2  0  0  0  0
  6  7  1  0  0  0  0
  7  8  2  0  0  0  0
  8  9  1  0  0  0  0
  9 10  2  0  0  0  0
  5 10  1  0  0  0  0
  9 11  1  0  0  0  0
 11 12  2  0  0  0  0
 12 13  1  0  0  0  0
  8 13  1  0  0  0  0
 12 14  1  0  0  0  0
 14 15  2  0  0  0  0
 15 16  1  0  0  0  0
 16 17  2  0  0  0  0
 17 18  1  0  0  0  0
 18 19  2  0  0  0  0
 14 19  1  0  0  0  0
 18 20  1  0  0  0  0
 16 21  1  0  0  0  0
  6 22  1  0  0  0  0
  2 23  1  0  0  0  0
 23 24  1  0  0  0  0
  1 25  1  0  0  0  0
  1 26  1  0  0  0  0
  1 27  1  0  0  0  0
  3 28  1  0  0  0  0
  4 29  1  0  0  0  0
  4 30  1  0  0  0  0
  7 31  1  0  0  0  0
 10 32  1  0  0  0  0
 11 33  1  0  0  0  0
 15 34  1  0  0  0  0
 17 35  1  0  0  0  0
 19 36  1  0  0  0  0
 20 37  1  0  0  0  0
 21 38  1  0  0  0  0
 22 39  1  0  0  0  0
 23 40  1  0  0  0  0
 23 41  1  0  0  0  0
 24 42  1  0  0  0  0
M  END
$$$$
