C34H43O21
APtclcactv06291801023D 0   0.00000     0.00000
 
 98103  0  0  0  0  0  0  0  0999 V2000
    6.8530    3.5492    1.1131 C   0  0  0  0  0  0  0  0  0  0  0  0
    7.3232    2.3008    0.6009 O   0  0  0  0  0  0  0  0  0  0  0  0
    6.4035    1.4879    0.0152 C   0  0  0  0  0  0  0  0  0  0  0  0
    6.7937    0.2558   -0.5055 C   0  0  0  0  0  0  0  0  0  0  0  0
    5.8575   -0.5754   -1.1041 C   0  0  0  0  0  0  0  0  0  0  0  0
    4.5375   -0.1857   -1.1856 C   0  0  0  0  0  0  0  0  0  0  0  0
    4.1401    1.0472   -0.6654 C   0  0  0  0  0  0  0  0  0  0  0  0
    5.0806    1.8814   -0.0585 C   0  0  0  0  0  0  0  0  0  0  0  0
    2.7243    1.4667   -0.7527 C   0  0  0  0  0  0  0  0  0  0  0  0
    1.7216    0.5055   -0.5308 C   0  0  0  0  0  0  0  0  0  0  0  0
    0.4080    0.9136   -0.6154 C   0  0  0  0  0  0  0  0  0  0  0  0
    0.2136    2.2768   -0.9213 C   0  0  0  0  0  0  0  0  0  0  0  0
   -1.0754    2.8282   -1.0378 C   0  0  0  0  0  0  0  0  0  0  0  0
   -1.2184    4.1548   -1.3353 C   0  0  0  0  0  0  0  0  0  0  0  0
   -0.0967    4.9645   -1.5243 C   0  0  0  0  0  0  0  0  0  0  0  0
    1.1767    4.4496   -1.4158 C   0  0  0  0  0  0  0  0  0  0  0  0
    1.3582    3.0919   -1.1111 C   0  0  0  0  0  0  0  0  0  0  0  0
    2.4771    2.6230   -1.0070 O   0  3  0  0  0  0  0  0  0  0  0  0
   -0.2633    6.2795   -1.8200 O   0  0  0  0  0  0  0  0  0  0  0  0
   -2.1710    2.0473   -0.8563 O   0  0  0  0  0  0  0  0  0  0  0  0
   -3.4464    2.6776   -0.9907 C   0  0  0  0  0  0  0  0  0  0  0  0
   -4.5512    1.6239   -0.8768 C   0  0  0  0  0  0  0  0  0  0  0  0
   -4.4935    0.9830    0.5133 C   0  0  0  0  0  0  0  0  0  0  0  0
   -4.6244    2.0795    1.5748 C   0  0  0  0  0  0  0  0  0  0  0  0
   -3.5168    3.1157    1.3662 C   0  0  0  0  0  0  0  0  0  0  0  0
   -3.6089    3.6498    0.0440 O   0  0  0  0  0  0  0  0  0  0  0  0
   -3.6768    4.2456    2.3853 C   0  0  0  0  0  0  0  0  0  0  0  0
   -2.5783    5.1521    2.2678 O   0  0  0  0  0  0  0  0  0  0  0  0
   -5.8997    2.7126    1.4526 O   0  0  0  0  0  0  0  0  0  0  0  0
   -5.5668    0.0503    0.6546 O   0  0  0  0  0  0  0  0  0  0  0  0
   -5.8245    2.2448   -1.0639 O   0  0  0  0  0  0  0  0  0  0  0  0
    2.0381   -0.7846   -0.2425 O   0  0  0  0  0  0  0  0  0  0  0  0
    0.9510   -1.6881   -0.0331 C   0  0  0  0  0  0  0  0  0  0  0  0
    1.4949   -3.1069    0.1538 C   0  0  0  0  0  0  0  0  0  0  0  0
    2.3790   -3.1457    1.4041 C   0  0  0  0  0  0  0  0  0  0  0  0
    1.5606   -2.6734    2.6096 C   0  0  0  0  0  0  0  0  0  0  0  0
    1.0140   -1.2714    2.3278 C   0  0  0  0  0  0  0  0  0  0  0  0
    0.2266   -1.2993    1.1357 O   0  0  0  0  0  0  0  0  0  0  0  0
    0.1456   -0.8167    3.5025 C   0  0  0  0  0  0  0  0  0  0  0  0
   -0.2691    0.5347    3.2932 O   0  0  0  0  0  0  0  0  0  0  0  0
    0.4735   -3.5741    2.8312 O   0  0  0  0  0  0  0  0  0  0  0  0
    2.8320   -4.4824    1.6279 O   0  0  0  0  0  0  0  0  0  0  0  0
    0.4061   -4.0190    0.3103 O   0  0  0  0  0  0  0  0  0  0  0  0
   -0.0694   -4.5728   -0.9182 C   0  0  0  0  0  0  0  0  0  0  0  0
   -1.1441   -5.6224   -0.6230 C   0  0  0  0  0  0  0  0  0  0  0  0
   -2.3299   -4.9462    0.0718 C   0  0  0  0  0  0  0  0  0  0  0  0
   -2.8518   -3.8144   -0.8187 C   0  0  0  0  0  0  0  0  0  0  0  0
   -1.7111   -2.8346   -1.1064 C   0  0  0  0  0  0  0  0  0  0  0  0
   -0.6288   -3.5338   -1.7243 O   0  0  0  0  0  0  0  0  0  0  0  0
   -2.2090   -1.7333   -2.0445 C   0  0  0  0  0  0  0  0  0  0  0  0
   -1.1808   -0.7565   -2.2203 O   0  0  0  0  0  0  0  0  0  0  0  0
   -3.3353   -4.3587   -2.0484 O   0  0  0  0  0  0  0  0  0  0  0  0
   -3.3686   -5.9041    0.2853 O   0  0  0  0  0  0  0  0  0  0  0  0
   -1.5824   -6.2145   -1.8475 O   0  0  0  0  0  0  0  0  0  0  0  0
    8.0936   -0.1324   -0.4275 O   0  0  0  0  0  0  0  0  0  0  0  0
    7.6857    4.0985    1.5523 H   0  0  0  0  0  0  0  0  0  0  0  0
    6.4191    4.1343    0.3022 H   0  0  0  0  0  0  0  0  0  0  0  0
    6.0955    3.3670    1.8754 H   0  0  0  0  0  0  0  0  0  0  0  0
    6.1636   -1.5294   -1.5073 H   0  0  0  0  0  0  0  0  0  0  0  0
    3.8109   -0.8342   -1.6522 H   0  0  0  0  0  0  0  0  0  0  0  0
    4.7766    2.8358    0.3453 H   0  0  0  0  0  0  0  0  0  0  0  0
   -0.4174    0.2350   -0.4585 H   0  0  0  0  0  0  0  0  0  0  0  0
   -2.2071    4.5800   -1.4252 H   0  0  0  0  0  0  0  0  0  0  0  0
    2.0336    5.0899   -1.5648 H   0  0  0  0  0  0  0  0  0  0  0  0
   -0.3067    6.8547   -1.0439 H   0  0  0  0  0  0  0  0  0  0  0  0
   -3.5095    3.1668   -1.9626 H   0  0  0  0  0  0  0  0  0  0  0  0
   -4.4033    0.8575   -1.6377 H   0  0  0  0  0  0  0  0  0  0  0  0
   -3.5415    0.4669    0.6376 H   0  0  0  0  0  0  0  0  0  0  0  0
   -4.5289    1.6390    2.5672 H   0  0  0  0  0  0  0  0  0  0  0  0
   -2.5449    2.6406    1.4995 H   0  0  0  0  0  0  0  0  0  0  0  0
   -4.6088    4.7776    2.1946 H   0  0  0  0  0  0  0  0  0  0  0  0
   -3.6965    3.8273    3.3916 H   0  0  0  0  0  0  0  0  0  0  0  0
   -2.6140    5.8954    2.8852 H   0  0  0  0  0  0  0  0  0  0  0  0
   -6.6492    2.1128    1.5687 H   0  0  0  0  0  0  0  0  0  0  0  0
   -5.5504   -0.6691    0.0085 H   0  0  0  0  0  0  0  0  0  0  0  0
   -5.9294    2.6759   -1.9231 H   0  0  0  0  0  0  0  0  0  0  0  0
    0.2870   -1.6643   -0.8972 H   0  0  0  0  0  0  0  0  0  0  0  0
    2.0849   -3.3886   -0.7184 H   0  0  0  0  0  0  0  0  0  0  0  0
    3.2365   -2.4873    1.2649 H   0  0  0  0  0  0  0  0  0  0  0  0
    2.1974   -2.6452    3.4938 H   0  0  0  0  0  0  0  0  0  0  0  0
    1.8441   -0.5768    2.1990 H   0  0  0  0  0  0  0  0  0  0  0  0
   -0.7321   -1.4590    3.5755 H   0  0  0  0  0  0  0  0  0  0  0  0
    0.7208   -0.8813    4.4261 H   0  0  0  0  0  0  0  0  0  0  0  0
   -0.8245    0.8897    4.0008 H   0  0  0  0  0  0  0  0  0  0  0  0
   -0.0883   -3.3356    3.5813 H   0  0  0  0  0  0  0  0  0  0  0  0
    3.3983   -4.5808    2.4055 H   0  0  0  0  0  0  0  0  0  0  0  0
    0.7588   -5.0403   -1.4509 H   0  0  0  0  0  0  0  0  0  0  0  0
   -0.7314   -6.3930    0.0281 H   0  0  0  0  0  0  0  0  0  0  0  0
   -2.0068   -4.5373    1.0292 H   0  0  0  0  0  0  0  0  0  0  0  0
   -3.6604   -3.2921   -0.3076 H   0  0  0  0  0  0  0  0  0  0  0  0
   -1.3699   -2.3895   -0.1718 H   0  0  0  0  0  0  0  0  0  0  0  0
   -2.4663   -2.1677   -3.0105 H   0  0  0  0  0  0  0  0  0  0  0  0
   -3.0905   -1.2593   -1.6129 H   0  0  0  0  0  0  0  0  0  0  0  0
   -1.4274   -0.0267   -2.8047 H   0  0  0  0  0  0  0  0  0  0  0  0
   -4.0575   -4.9927   -1.9409 H   0  0  0  0  0  0  0  0  0  0  0  0
   -3.1051   -6.6536    0.8367 H   0  0  0  0  0  0  0  0  0  0  0  0
   -0.8804   -6.6573   -2.3436 H   0  0  0  0  0  0  0  0  0  0  0  0
    8.3092   -0.6256    0.3759 H   0  0  0  0  0  0  0  0  0  0  0  0
  1  2  1  0  0  0  0
  2  3  1  0  0  0  0
  3  4  2  0  0  0  0
  4  5  1  0  0  0  0
  5  6  2  0  0  0  0
  6  7  1  0  0  0  0
  7  8  2  0  0  0  0
  3  8  1  0  0  0  0
  7  9  1  0  0  0  0
  9 10  2  0  0  0  0
 10 11  1  0  0  0  0
 11 12  2  0  0  0  0
 12 13  1  0  0  0  0
 13 14  2  0  0  0  0
 14 15  1  0  0  0  0
 15 16  2  0  0  0  0
 16 17  1  0  0  0  0
 12 17  1  0  0  0  0
 17 18  2  0  0  0  0
  9 18  1  0  0  0  0
 15 19  1  0  0  0  0
 13 20  1  0  0  0  0
 20 21  1  0  0  0  0
 21 22  1  0  0  0  0
 22 23  1  0  0  0  0
 23 24  1  0  0  0  0
 24 25  1  0  0  0  0
 25 26  1  0  0  0  0
 21 26  1  0  0  0  0
 25 27  1  0  0  0  0
 27 28  1  0  0  0  0
 24 29  1  0  0  0  0
 23 30  1  0  0  0  0
 22 31  1  0  0  0  0
 10 32  1  0  0  0  0
 32 33  1  0  0  0  0
 33 34  1  0  0  0  0
 34 35  1  0  0  0  0
 35 36  1  0  0  0  0
 36 37  1  0  0  0  0
 37 38  1  0  0  0  0
 33 38  1  0  0  0  0
 37 39  1  0  0  0  0
 39 40  1  0  0  0  0
 36 41  1  0  0  0  0
 35 42  1  0  0  0  0
 34 43  1  0  0  0  0
 43 44  1  0  0  0  0
 44 45  1  0  0  0  0
 45 46  1  0  0  0  0
 46 47  1  0  0  0  0
 47 48  1  0  0  0  0
 48 49  1  0  0  0  0
 44 49  1  0  0  0  0
 48 50  1  0  0  0  0
 50 51  1  0  0  0  0
 47 52  1  0  0  0  0
 46 53  1  0  0  0  0
 45 54  1  0  0  0  0
  4 55  1  0  0  0  0
  1 56  1  0  0  0  0
  1 57  1  0  0  0  0
  1 58  1  0  0  0  0
  5 59  1  0  0  0  0
  6 60  1  0  0  0  0
  8 61  1  0  0  0  0
 11 62  1  0  0  0  0
 14 63  1  0  0  0  0
 16 64  1  0  0  0  0
 19 65  1  0  0  0  0
 21 66  1  0  0  0  0
 22 67  1  0  0  0  0
 23 68  1  0  0  0  0
 24 69  1  0  0  0  0
 25 70  1  0  0  0  0
 27 71  1  0  0  0  0
 27 72  1  0  0  0  0
 28 73  1  0  0  0  0
 29 74  1  0  0  0  0
 30 75  1  0  0  0  0
 31 76  1  0  0  0  0
 33 77  1  0  0  0  0
 34 78  1  0  0  0  0
 35 79  1  0  0  0  0
 36 80  1  0  0  0  0
 37 81  1  0  0  0  0
 39 82  1  0  0  0  0
 39 83  1  0  0  0  0
 40 84  1  0  0  0  0
 41 85  1  0  0  0  0
 42 86  1  0  0  0  0
 44 87  1  0  0  0  0
 45 88  1  0  0  0  0
 46 89  1  0  0  0  0
 47 90  1  0  0  0  0
 48 91  1  0  0  0  0
 50 92  1  0  0  0  0
 50 93  1  0  0  0  0
 51 94  1  0  0  0  0
 52 95  1  0  0  0  0
 53 96  1  0  0  0  0
 54 97  1  0  0  0  0
 55 98  1  0  0  0  0
M  CHG  1  18   1
M  END
$$$$
