C15H22O3
APtclcactv06291801023D 0   0.00000     0.00000
 
 40 42  0  0  0  0  0  0  0  0999 V2000
    2.7482   -1.3875   -1.1437 C   0  0  0  0  0  0  0  0  0  0  0  0
    2.4863   -1.0350    0.3220 C   0  0  0  0  0  0  0  0  0  0  0  0
    3.6077   -0.1315    0.8356 C   0  0  0  0  0  0  0  0  0  0  0  0
    3.6482    1.1464   -0.0060 C   0  0  0  0  0  0  0  0  0  0  0  0
    2.3129    1.8787    0.1281 C   0  0  0  0  0  0  0  0  0  0  0  0
    1.1764    0.9822   -0.3719 C   0  0  0  0  0  0  0  0  0  0  0  0
    1.1420   -0.3113    0.4390 C   0  0  0  0  0  0  0  0  0  0  0  0
    0.0439   -1.2487   -0.0969 C   0  0  0  0  0  0  0  0  0  0  0  0
   -1.2219   -0.4355   -0.1887 C   0  0  0  0  0  0  0  0  0  0  0  0
   -2.4355   -0.6849    0.2575 C   0  0  0  0  0  0  0  0  0  0  0  0
   -3.2957    0.4771   -0.0027 C   0  0  0  0  0  0  0  0  0  0  0  0
   -4.4781    0.5455    0.2702 O   0  0  0  0  0  0  0  0  0  0  0  0
   -2.5775    1.4575   -0.5905 O   0  0  0  0  0  0  0  0  0  0  0  0
   -1.2624    0.9227   -0.8697 C   0  0  0  0  0  0  0  0  0  0  0  0
   -0.1427    1.7556   -0.2448 C   0  0  0  0  0  0  0  0  0  0  0  0
   -2.8730   -1.9613    0.9284 C   0  0  0  0  0  0  0  0  0  0  0  0
    0.4064   -1.7348   -1.3909 O   0  0  0  0  0  0  0  0  0  0  0  0
    0.8640    0.0145    1.9078 C   0  0  0  0  0  0  0  0  0  0  0  0
    3.8139   -1.5635   -1.2902 H   0  0  0  0  0  0  0  0  0  0  0  0
    2.1919   -2.2875   -1.4059 H   0  0  0  0  0  0  0  0  0  0  0  0
    2.4255   -0.5628   -1.7790 H   0  0  0  0  0  0  0  0  0  0  0  0
    2.4573   -1.9492    0.9149 H   0  0  0  0  0  0  0  0  0  0  0  0
    3.4202    0.1248    1.8783 H   0  0  0  0  0  0  0  0  0  0  0  0
    4.5617   -0.6523    0.7533 H   0  0  0  0  0  0  0  0  0  0  0  0
    4.4537    1.7900    0.3477 H   0  0  0  0  0  0  0  0  0  0  0  0
    3.8190    0.8889   -1.0513 H   0  0  0  0  0  0  0  0  0  0  0  0
    2.1416    2.1311    1.1745 H   0  0  0  0  0  0  0  0  0  0  0  0
    2.3402    2.7933   -0.4643 H   0  0  0  0  0  0  0  0  0  0  0  0
    1.3417    0.7440   -1.4226 H   0  0  0  0  0  0  0  0  0  0  0  0
   -0.0993   -2.0839    0.5887 H   0  0  0  0  0  0  0  0  0  0  0  0
   -1.1164    0.8146   -1.9445 H   0  0  0  0  0  0  0  0  0  0  0  0
   -0.3627    1.9325    0.8080 H   0  0  0  0  0  0  0  0  0  0  0  0
   -0.0598    2.7081   -0.7682 H   0  0  0  0  0  0  0  0  0  0  0  0
   -2.7230   -1.8760    2.0047 H   0  0  0  0  0  0  0  0  0  0  0  0
   -3.9286   -2.1372    0.7215 H   0  0  0  0  0  0  0  0  0  0  0  0
   -2.2838   -2.7941    0.5444 H   0  0  0  0  0  0  0  0  0  0  0  0
   -0.2454   -2.3316   -1.7835 H   0  0  0  0  0  0  0  0  0  0  0  0
   -0.0972    0.5216    1.9919 H   0  0  0  0  0  0  0  0  0  0  0  0
    0.8395   -0.9089    2.4864 H   0  0  0  0  0  0  0  0  0  0  0  0
    1.6516    0.6630    2.2915 H   0  0  0  0  0  0  0  0  0  0  0  0
  1  2  1  0  0  0  0
  2  3  1  0  0  0  0
  3  4  1  0  0  0  0
  4  5  1  0  0  0  0
  5  6  1  0  0  0  0
  6  7  1  0  0  0  0
  2  7  1  0  0  0  0
  7  8  1  0  0  0  0
  8  9  1  0  0  0  0
  9 10  2  0  0  0  0
 10 11  1  0  0  0  0
 11 12  2  0  0  0  0
 11 13  1  0  0  0  0
 13 14  1  0  0  0  0
  9 14  1  0  0  0  0
 14 15  1  0  0  0  0
  6 15  1  0  0  0  0
 10 16  1  0  0  0  0
  8 17  1  0  0  0  0
  7 18  1  0  0  0  0
  1 19  1  0  0  0  0
  1 20  1  0  0  0  0
  1 21  1  0  0  0  0
  2 22  1  0  0  0  0
  3 23  1  0  0  0  0
  3 24  1  0  0  0  0
  4 25  1  0  0  0  0
  4 26  1  0  0  0  0
  5 27  1  0  0  0  0
  5 28  1  0  0  0  0
  6 29  1  0  0  0  0
  8 30  1  0  0  0  0
 14 31  1  0  0  0  0
 15 32  1  0  0  0  0
 15 33  1  0  0  0  0
 16 34  1  0  0  0  0
 16 35  1  0  0  0  0
 16 36  1  0  0  0  0
 17 37  1  0  0  0  0
 18 38  1  0  0  0  0
 18 39  1  0  0  0  0
 18 40  1  0  0  0  0
M  END
$$$$
