C19H18O7
APtclcactv06291801023D 0   0.00000     0.00000
 
 44 46  0  0  0  0  0  0  0  0999 V2000
    2.8567   -2.5897   -2.3144 C   0  0  0  0  0  0  0  0  0  0  0  0
    2.2939   -1.5587   -1.5005 O   0  0  0  0  0  0  0  0  0  0  0  0
    3.0591   -1.0915   -0.4812 C   0  0  0  0  0  0  0  0  0  0  0  0
    4.3643   -1.5315   -0.3327 C   0  0  0  0  0  0  0  0  0  0  0  0
    5.1424   -1.0552    0.7055 C   0  0  0  0  0  0  0  0  0  0  0  0
    4.6260   -0.1367    1.6037 C   0  0  0  0  0  0  0  0  0  0  0  0
    3.3291    0.3122    1.4711 C   0  0  0  0  0  0  0  0  0  0  0  0
    2.5337   -0.1569    0.4228 C   0  0  0  0  0  0  0  0  0  0  0  0
    1.1465    0.3190    0.2745 C   0  0  0  0  0  0  0  0  0  0  0  0
    0.9205    1.6584    0.1625 C   0  0  0  0  0  0  0  0  0  0  0  0
   -0.4089    2.1325    0.0192 C   0  0  0  0  0  0  0  0  0  0  0  0
   -0.6491    3.3249   -0.0843 O   0  0  0  0  0  0  0  0  0  0  0  0
   -1.4870    1.1308   -0.0004 C   0  0  0  0  0  0  0  0  0  0  0  0
   -1.1444   -0.2269    0.1226 C   0  0  0  0  0  0  0  0  0  0  0  0
    0.1516   -0.5842    0.2493 O   0  0  0  0  0  0  0  0  0  0  0  0
   -2.1482   -1.1879    0.1064 C   0  0  0  0  0  0  0  0  0  0  0  0
   -3.4752   -0.8026   -0.0304 C   0  0  0  0  0  0  0  0  0  0  0  0
   -3.8136    0.5407   -0.1521 C   0  0  0  0  0  0  0  0  0  0  0  0
   -2.8286    1.5101   -0.1376 C   0  0  0  0  0  0  0  0  0  0  0  0
   -3.1591    2.8219   -0.2560 O   0  0  0  0  0  0  0  0  0  0  0  0
   -4.4520   -1.7468   -0.0460 O   0  0  0  0  0  0  0  0  0  0  0  0
   -5.7971   -1.2863   -0.1895 C   0  0  0  0  0  0  0  0  0  0  0  0
   -1.8305   -2.5068    0.2241 O   0  0  0  0  0  0  0  0  0  0  0  0
   -1.7837   -3.0473    1.5462 C   0  0  0  0  0  0  0  0  0  0  0  0
    1.9620    2.5342    0.1883 O   0  0  0  0  0  0  0  0  0  0  0  0
    2.2228    3.2676   -1.0100 C   0  0  0  0  0  0  0  0  0  0  0  0
    3.7242   -2.1995   -2.8467 H   0  0  0  0  0  0  0  0  0  0  0  0
    3.1626   -3.4243   -1.6836 H   0  0  0  0  0  0  0  0  0  0  0  0
    2.1126   -2.9316   -3.0337 H   0  0  0  0  0  0  0  0  0  0  0  0
    4.7743   -2.2481   -1.0290 H   0  0  0  0  0  0  0  0  0  0  0  0
    6.1592   -1.4018    0.8170 H   0  0  0  0  0  0  0  0  0  0  0  0
    5.2416    0.2294    2.4120 H   0  0  0  0  0  0  0  0  0  0  0  0
    2.9301    1.0283    2.1742 H   0  0  0  0  0  0  0  0  0  0  0  0
   -4.8494    0.8274   -0.2579 H   0  0  0  0  0  0  0  0  0  0  0  0
   -3.3277    3.2628    0.5880 H   0  0  0  0  0  0  0  0  0  0  0  0
   -6.4755   -2.1395   -0.1866 H   0  0  0  0  0  0  0  0  0  0  0  0
   -6.0444   -0.6228    0.6391 H   0  0  0  0  0  0  0  0  0  0  0  0
   -5.8976   -0.7454   -1.1305 H   0  0  0  0  0  0  0  0  0  0  0  0
   -1.0354   -2.5124    2.1311 H   0  0  0  0  0  0  0  0  0  0  0  0
   -2.7601   -2.9379    2.0182 H   0  0  0  0  0  0  0  0  0  0  0  0
   -1.5199   -4.1038    1.4976 H   0  0  0  0  0  0  0  0  0  0  0  0
    3.1295    3.8592   -0.8839 H   0  0  0  0  0  0  0  0  0  0  0  0
    2.3547    2.5730   -1.8396 H   0  0  0  0  0  0  0  0  0  0  0  0
    1.3831    3.9299   -1.2207 H   0  0  0  0  0  0  0  0  0  0  0  0
  1  2  1  0  0  0  0
  2  3  1  0  0  0  0
  3  4  2  0  0  0  0
  4  5  1  0  0  0  0
  5  6  2  0  0  0  0
  6  7  1  0  0  0  0
  7  8  2  0  0  0  0
  3  8  1  0  0  0  0
  8  9  1  0  0  0  0
  9 10  2  0  0  0  0
 10 11  1  0  0  0  0
 11 12  2  0  0  0  0
 11 13  1  0  0  0  0
 13 14  2  0  0  0  0
 14 15  1  0  0  0  0
  9 15  1  0  0  0  0
 14 16  1  0  0  0  0
 16 17  2  0  0  0  0
 17 18  1  0  0  0  0
 18 19  2  0  0  0  0
 13 19  1  0  0  0  0
 19 20  1  0  0  0  0
 17 21  1  0  0  0  0
 21 22  1  0  0  0  0
 16 23  1  0  0  0  0
 23 24  1  0  0  0  0
 10 25  1  0  0  0  0
 25 26  1  0  0  0  0
  1 27  1  0  0  0  0
  1 28  1  0  0  0  0
  1 29  1  0  0  0  0
  4 30  1  0  0  0  0
  5 31  1  0  0  0  0
  6 32  1  0  0  0  0
  7 33  1  0  0  0  0
 18 34  1  0  0  0  0
 20 35  1  0  0  0  0
 22 36  1  0  0  0  0
 22 37  1  0  0  0  0
 22 38  1  0  0  0  0
 24 39  1  0  0  0  0
 24 40  1  0  0  0  0
 24 41  1  0  0  0  0
 26 42  1  0  0  0  0
 26 43  1  0  0  0  0
 26 44  1  0  0  0  0
M  END
$$$$
