C6H8O6
APtclcactv06211806073D 0   0.00000     0.00000
 
 20 19  0  0  0  0  0  0  0  0999 V2000
    1.2896   -1.0817    0.4134 C   0  0  0  0  0  0  0  0  0  0  0  0
    0.0195   -0.4017   -0.1015 C   0  0  0  0  0  0  0  0  0  0  0  0
   -1.2081   -1.1231    0.4586 C   0  0  0  0  0  0  0  0  0  0  0  0
   -2.4565   -0.5321   -0.1442 C   0  0  0  0  0  0  0  0  0  0  0  0
   -2.3729    0.3732   -0.9401 O   0  0  0  0  0  0  0  0  0  0  0  0
   -3.6612   -1.0114    0.2030 O   0  0  0  0  0  0  0  0  0  0  0  0
    0.0037    1.0375    0.3454 C   0  0  0  0  0  0  0  0  0  0  0  0
    0.9149    1.4744    1.0078 O   0  0  0  0  0  0  0  0  0  0  0  0
   -1.0226    1.8339    0.0076 O   0  0  0  0  0  0  0  0  0  0  0  0
    2.4952   -0.4501   -0.2337 C   0  0  0  0  0  0  0  0  0  0  0  0
    2.3531    0.4515   -1.0254 O   0  0  0  0  0  0  0  0  0  0  0  0
    3.7269   -0.8890    0.0696 O   0  0  0  0  0  0  0  0  0  0  0  0
    1.3531   -0.9617    1.4950 H   0  0  0  0  0  0  0  0  0  0  0  0
    1.2591   -2.1430    0.1668 H   0  0  0  0  0  0  0  0  0  0  0  0
    0.0005   -0.4442   -1.1905 H   0  0  0  0  0  0  0  0  0  0  0  0
   -1.1513   -2.1829    0.2103 H   0  0  0  0  0  0  0  0  0  0  0  0
   -1.2364   -1.0046    1.5417 H   0  0  0  0  0  0  0  0  0  0  0  0
   -4.4329   -0.6004   -0.2100 H   0  0  0  0  0  0  0  0  0  0  0  0
   -0.9883    2.7493    0.3174 H   0  0  0  0  0  0  0  0  0  0  0  0
    4.4692   -0.4529   -0.3708 H   0  0  0  0  0  0  0  0  0  0  0  0
  1  2  1  0  0  0  0
  2  3  1  0  0  0  0
  3  4  1  0  0  0  0
  4  5  2  0  0  0  0
  4  6  1  0  0  0  0
  2  7  1  0  0  0  0
  7  8  2  0  0  0  0
  7  9  1  0  0  0  0
  1 10  1  0  0  0  0
 10 11  2  0  0  0  0
 10 12  1  0  0  0  0
  1 13  1  0  0  0  0
  1 14  1  0  0  0  0
  2 15  1  0  0  0  0
  3 16  1  0  0  0  0
  3 17  1  0  0  0  0
  6 18  1  0  0  0  0
  9 19  1  0  0  0  0
 12 20  1  0  0  0  0
M  END
$$$$
