C29H50O2
APtclcactv06211803283D 0   0.00000     0.00000
 
 81 82  0  0  0  0  0  0  0  0999 V2000
    6.6278    3.7672   -0.0762 C   0  0  0  0  0  0  0  0  0  0  0  0
    6.4645    2.2707   -0.0075 C   0  0  0  0  0  0  0  0  0  0  0  0
    7.5669    1.4439   -0.1635 C   0  0  0  0  0  0  0  0  0  0  0  0
    7.4121    0.0683   -0.1011 C   0  0  0  0  0  0  0  0  0  0  0  0
    6.1614   -0.4843    0.1171 C   0  0  0  0  0  0  0  0  0  0  0  0
    6.0325   -1.9855    0.1727 C   0  0  0  0  0  0  0  0  0  0  0  0
    4.7089   -2.3650    0.8413 C   0  0  0  0  0  0  0  0  0  0  0  0
    3.5891   -1.5380    0.1967 C   0  0  0  0  0  0  0  0  0  0  0  0
    3.8171   -0.1604    0.4969 O   0  0  0  0  0  0  0  0  0  0  0  0
    5.0614    0.3404    0.2757 C   0  0  0  0  0  0  0  0  0  0  0  0
    5.2187    1.7211    0.2165 C   0  0  0  0  0  0  0  0  0  0  0  0
    4.0224    2.6206    0.3914 C   0  0  0  0  0  0  0  0  0  0  0  0
    3.6034   -1.7443   -1.3193 C   0  0  0  0  0  0  0  0  0  0  0  0
    2.2360   -1.9721    0.7638 C   0  0  0  0  0  0  0  0  0  0  0  0
    1.1148   -1.2339    0.0297 C   0  0  0  0  0  0  0  0  0  0  0  0
   -0.2382   -1.6679    0.5969 C   0  0  0  0  0  0  0  0  0  0  0  0
   -1.3594   -0.9297   -0.1372 C   0  0  0  0  0  0  0  0  0  0  0  0
   -1.3785   -1.3613   -1.6050 C   0  0  0  0  0  0  0  0  0  0  0  0
   -2.7031   -1.2684    0.5115 C   0  0  0  0  0  0  0  0  0  0  0  0
   -3.8086   -0.4358   -0.1409 C   0  0  0  0  0  0  0  0  0  0  0  0
   -5.1523   -0.7744    0.5078 C   0  0  0  0  0  0  0  0  0  0  0  0
   -6.2578    0.0581   -0.1446 C   0  0  0  0  0  0  0  0  0  0  0  0
   -6.4032   -0.3480   -1.6125 C   0  0  0  0  0  0  0  0  0  0  0  0
   -7.5795   -0.1874    0.5859 C   0  0  0  0  0  0  0  0  0  0  0  0
   -8.6570    0.7368    0.0151 C   0  0  0  0  0  0  0  0  0  0  0  0
   -9.9788    0.4913    0.7455 C   0  0  0  0  0  0  0  0  0  0  0  0
  -11.0562    1.4155    0.1747 C   0  0  0  0  0  0  0  0  0  0  0  0
  -11.3254    1.0444   -1.2850 C   0  0  0  0  0  0  0  0  0  0  0  0
  -12.3439    1.2599    0.9863 C   0  0  0  0  0  0  0  0  0  0  0  0
    8.6099   -0.8301   -0.2717 C   0  0  0  0  0  0  0  0  0  0  0  0
    8.7972    1.9820   -0.3779 O   0  0  0  0  0  0  0  0  0  0  0  0
    6.5022    4.0995   -1.1067 H   0  0  0  0  0  0  0  0  0  0  0  0
    5.8765    4.2440    0.5534 H   0  0  0  0  0  0  0  0  0  0  0  0
    7.6228    4.0407    0.2751 H   0  0  0  0  0  0  0  0  0  0  0  0
    6.0563   -2.3893   -0.8395 H   0  0  0  0  0  0  0  0  0  0  0  0
    6.8609   -2.3997    0.7473 H   0  0  0  0  0  0  0  0  0  0  0  0
    4.5134   -3.4270    0.6927 H   0  0  0  0  0  0  0  0  0  0  0  0
    4.7600   -2.1461    1.9078 H   0  0  0  0  0  0  0  0  0  0  0  0
    3.9005    2.8620    1.4473 H   0  0  0  0  0  0  0  0  0  0  0  0
    4.1722    3.5390   -0.1763 H   0  0  0  0  0  0  0  0  0  0  0  0
    3.1290    2.1115    0.0296 H   0  0  0  0  0  0  0  0  0  0  0  0
    3.4484   -2.7996   -1.5438 H   0  0  0  0  0  0  0  0  0  0  0  0
    2.8067   -1.1553   -1.7736 H   0  0  0  0  0  0  0  0  0  0  0  0
    4.5653   -1.4249   -1.7204 H   0  0  0  0  0  0  0  0  0  0  0  0
    2.1131   -3.0466    0.6284 H   0  0  0  0  0  0  0  0  0  0  0  0
    2.1938   -1.7326    1.8264 H   0  0  0  0  0  0  0  0  0  0  0  0
    1.2378   -0.1593    0.1652 H   0  0  0  0  0  0  0  0  0  0  0  0
    1.1571   -1.4733   -1.0328 H   0  0  0  0  0  0  0  0  0  0  0  0
   -0.3612   -2.7424    0.4614 H   0  0  0  0  0  0  0  0  0  0  0  0
   -0.2805   -1.4285    1.6594 H   0  0  0  0  0  0  0  0  0  0  0  0
   -1.1873    0.1449   -0.0767 H   0  0  0  0  0  0  0  0  0  0  0  0
   -2.1773   -0.8354   -2.1280 H   0  0  0  0  0  0  0  0  0  0  0  0
   -0.4213   -1.1200   -2.0671 H   0  0  0  0  0  0  0  0  0  0  0  0
   -1.5506   -2.4359   -1.6655 H   0  0  0  0  0  0  0  0  0  0  0  0
   -2.9166   -2.3282    0.3728 H   0  0  0  0  0  0  0  0  0  0  0  0
   -2.6592   -1.0429    1.5770 H   0  0  0  0  0  0  0  0  0  0  0  0
   -3.5951    0.6241   -0.0023 H   0  0  0  0  0  0  0  0  0  0  0  0
   -3.8525   -0.6612   -1.2064 H   0  0  0  0  0  0  0  0  0  0  0  0
   -5.3658   -1.8343    0.3692 H   0  0  0  0  0  0  0  0  0  0  0  0
   -5.1084   -0.5490    1.5733 H   0  0  0  0  0  0  0  0  0  0  0  0
   -6.0001    1.1155   -0.0839 H   0  0  0  0  0  0  0  0  0  0  0  0
   -6.6609   -1.4053   -1.6732 H   0  0  0  0  0  0  0  0  0  0  0  0
   -7.1908    0.2452   -2.0773 H   0  0  0  0  0  0  0  0  0  0  0  0
   -5.4615   -0.1731   -2.1329 H   0  0  0  0  0  0  0  0  0  0  0  0
   -7.8823   -1.2256    0.4501 H   0  0  0  0  0  0  0  0  0  0  0  0
   -7.4508    0.0176    1.6487 H   0  0  0  0  0  0  0  0  0  0  0  0
   -8.3542    1.7751    0.1508 H   0  0  0  0  0  0  0  0  0  0  0  0
   -8.7857    0.5319   -1.0477 H   0  0  0  0  0  0  0  0  0  0  0  0
  -10.2815   -0.5469    0.6097 H   0  0  0  0  0  0  0  0  0  0  0  0
   -9.8501    0.6963    1.8083 H   0  0  0  0  0  0  0  0  0  0  0  0
  -10.7147    2.4492    0.2298 H   0  0  0  0  0  0  0  0  0  0  0  0
  -11.6670    0.0108   -1.3401 H   0  0  0  0  0  0  0  0  0  0  0  0
  -12.0930    1.7029   -1.6917 H   0  0  0  0  0  0  0  0  0  0  0  0
  -10.4081    1.1553   -1.8632 H   0  0  0  0  0  0  0  0  0  0  0  0
  -12.1521    1.5243    2.0262 H   0  0  0  0  0  0  0  0  0  0  0  0
  -13.1114    1.9184    0.5796 H   0  0  0  0  0  0  0  0  0  0  0  0
  -12.6854    0.2263    0.9312 H   0  0  0  0  0  0  0  0  0  0  0  0
    9.0638   -1.0192    0.7011 H   0  0  0  0  0  0  0  0  0  0  0  0
    8.2954   -1.7746   -0.7157 H   0  0  0  0  0  0  0  0  0  0  0  0
    9.3370   -0.3463   -0.9240 H   0  0  0  0  0  0  0  0  0  0  0  0
    9.2944    2.1617    0.4318 H   0  0  0  0  0  0  0  0  0  0  0  0
  1  2  1  0  0  0  0
  2  3  2  0  0  0  0
  3  4  1  0  0  0  0
  4  5  2  0  0  0  0
  5  6  1  0  0  0  0
  6  7  1  0  0  0  0
  7  8  1  0  0  0  0
  8  9  1  0  0  0  0
  9 10  1  0  0  0  0
  5 10  1  0  0  0  0
 10 11  2  0  0  0  0
  2 11  1  0  0  0  0
 11 12  1  0  0  0  0
  8 13  1  0  0  0  0
  8 14  1  0  0  0  0
 14 15  1  0  0  0  0
 15 16  1  0  0  0  0
 16 17  1  0  0  0  0
 17 18  1  0  0  0  0
 17 19  1  0  0  0  0
 19 20  1  0  0  0  0
 20 21  1  0  0  0  0
 21 22  1  0  0  0  0
 22 23  1  0  0  0  0
 22 24  1  0  0  0  0
 24 25  1  0  0  0  0
 25 26  1  0  0  0  0
 26 27  1  0  0  0  0
 27 28  1  0  0  0  0
 27 29  1  0  0  0  0
  4 30  1  0  0  0  0
  3 31  1  0  0  0  0
  1 32  1  0  0  0  0
  1 33  1  0  0  0  0
  1 34  1  0  0  0  0
  6 35  1  0  0  0  0
  6 36  1  0  0  0  0
  7 37  1  0  0  0  0
  7 38  1  0  0  0  0
 12 39  1  0  0  0  0
 12 40  1  0  0  0  0
 12 41  1  0  0  0  0
 13 42  1  0  0  0  0
 13 43  1  0  0  0  0
 13 44  1  0  0  0  0
 14 45  1  0  0  0  0
 14 46  1  0  0  0  0
 15 47  1  0  0  0  0
 15 48  1  0  0  0  0
 16 49  1  0  0  0  0
 16 50  1  0  0  0  0
 17 51  1  0  0  0  0
 18 52  1  0  0  0  0
 18 53  1  0  0  0  0
 18 54  1  0  0  0  0
 19 55  1  0  0  0  0
 19 56  1  0  0  0  0
 20 57  1  0  0  0  0
 20 58  1  0  0  0  0
 21 59  1  0  0  0  0
 21 60  1  0  0  0  0
 22 61  1  0  0  0  0
 23 62  1  0  0  0  0
 23 63  1  0  0  0  0
 23 64  1  0  0  0  0
 24 65  1  0  0  0  0
 24 66  1  0  0  0  0
 25 67  1  0  0  0  0
 25 68  1  0  0  0  0
 26 69  1  0  0  0  0
 26 70  1  0  0  0  0
 27 71  1  0  0  0  0
 28 72  1  0  0  0  0
 28 73  1  0  0  0  0
 28 74  1  0  0  0  0
 29 75  1  0  0  0  0
 29 76  1  0  0  0  0
 29 77  1  0  0  0  0
 30 78  1  0  0  0  0
 30 79  1  0  0  0  0
 30 80  1  0  0  0  0
 31 81  1  0  0  0  0
M  END
$$$$
