C12H6N2O6
APtclcactv06211806393D 0   0.00000     0.00000
 
 26 28  0  0  0  0  0  0  0  0999 V2000
    3.3224   -1.4891   -0.0003 C   0  0  0  0  0  0  0  0  0  0  0  0
    1.9992   -1.8923   -0.0001 C   0  0  0  0  0  0  0  0  0  0  0  0
    0.9877   -0.9463    0.0001 C   0  0  0  0  0  0  0  0  0  0  0  0
    1.3055    0.4084    0.0002 C   0  0  0  0  0  0  0  0  0  0  0  0
    2.6321    0.8060   -0.0000 C   0  0  0  0  0  0  0  0  0  0  0  0
    3.6380   -0.1435   -0.0002 C   0  0  0  0  0  0  0  0  0  0  0  0
    5.0557    0.2825    0.0001 N   0  3  0  0  0  0  0  0  0  0  0  0
    5.3353    1.4679    0.0005 O   0  0  0  0  0  0  0  0  0  0  0  0
    5.9425   -0.5525   -0.0001 O   0  5  0  0  0  0  0  0  0  0  0  0
    0.3143    1.3398   -0.0001 O   0  0  0  0  0  0  0  0  0  0  0  0
   -0.9877    0.9462   -0.0003 C   0  0  0  0  0  0  0  0  0  0  0  0
   -1.3055   -0.4084   -0.0004 C   0  0  0  0  0  0  0  0  0  0  0  0
   -0.3143   -1.3399   -0.0001 O   0  0  0  0  0  0  0  0  0  0  0  0
   -2.6322   -0.8060   -0.0002 C   0  0  0  0  0  0  0  0  0  0  0  0
   -3.6380    0.1436    0.0000 C   0  0  0  0  0  0  0  0  0  0  0  0
   -3.3224    1.4891   -0.0004 C   0  0  0  0  0  0  0  0  0  0  0  0
   -1.9992    1.8923   -0.0001 C   0  0  0  0  0  0  0  0  0  0  0  0
   -5.0557   -0.2824    0.0002 N   0  3  0  0  0  0  0  0  0  0  0  0
   -5.3354   -1.4679    0.0002 O   0  0  0  0  0  0  0  0  0  0  0  0
   -5.9424    0.5526    0.0004 O   0  5  0  0  0  0  0  0  0  0  0  0
    4.1106   -2.2274    0.0040 H   0  0  0  0  0  0  0  0  0  0  0  0
    1.7550   -2.9444   -0.0005 H   0  0  0  0  0  0  0  0  0  0  0  0
    2.8812    1.8568    0.0000 H   0  0  0  0  0  0  0  0  0  0  0  0
   -2.8812   -1.8569   -0.0006 H   0  0  0  0  0  0  0  0  0  0  0  0
   -4.1106    2.2274   -0.0006 H   0  0  0  0  0  0  0  0  0  0  0  0
   -1.7550    2.9443   -0.0004 H   0  0  0  0  0  0  0  0  0  0  0  0
  1  2  2  0  0  0  0
  2  3  1  0  0  0  0
  3  4  2  0  0  0  0
  4  5  1  0  0  0  0
  5  6  2  0  0  0  0
  1  6  1  0  0  0  0
  6  7  1  0  0  0  0
  7  8  2  0  0  0  0
  7  9  1  0  0  0  0
  4 10  1  0  0  0  0
 10 11  1  0  0  0  0
 11 12  2  0  0  0  0
 12 13  1  0  0  0  0
  3 13  1  0  0  0  0
 12 14  1  0  0  0  0
 14 15  2  0  0  0  0
 15 16  1  0  0  0  0
 16 17  2  0  0  0  0
 11 17  1  0  0  0  0
 15 18  1  0  0  0  0
 18 19  2  0  0  0  0
 18 20  1  0  0  0  0
  1 21  1  0  0  0  0
  2 22  1  0  0  0  0
  5 23  1  0  0  0  0
 14 24  1  0  0  0  0
 16 25  1  0  0  0  0
 17 26  1  0  0  0  0
M  CHG  4   7   1   9  -1  18   1  20  -1
M  END
$$$$
