C11H9NO2
APtclcactv06291801033D 0   0.00000     0.00000
 
 23 24  0  0  0  0  0  0  0  0999 V2000
   -4.3781    0.3337    0.0002 C   0  0  0  0  0  0  0  0  0  0  0  0
   -4.1322   -1.0332    0.0001 C   0  0  0  0  0  0  0  0  0  0  0  0
   -2.8414   -1.5147   -0.0001 C   0  0  0  0  0  0  0  0  0  0  0  0
   -1.7714   -0.6257   -0.0002 C   0  0  0  0  0  0  0  0  0  0  0  0
   -2.0232    0.7611   -0.0001 C   0  0  0  0  0  0  0  0  0  0  0  0
   -3.3450    1.2257    0.0001 C   0  0  0  0  0  0  0  0  0  0  0  0
   -0.7658    1.4098    0.0002 C   0  0  0  0  0  0  0  0  0  0  0  0
    0.1984    0.4458    0.0002 C   0  0  0  0  0  0  0  0  0  0  0  0
   -0.4056   -0.7969   -0.0000 N   0  0  0  0  0  0  0  0  0  0  0  0
    1.6403    0.6882    0.0001 C   0  0  0  0  0  0  0  0  0  0  0  0
    2.5029   -0.3567    0.0001 C   0  0  0  0  0  0  0  0  0  0  0  0
    3.8990   -0.1220   -0.0000 C   0  0  0  0  0  0  0  0  0  0  0  0
    4.3243    1.0180   -0.0002 O   0  0  0  0  0  0  0  0  0  0  0  0
    4.7583   -1.1628    0.0000 O   0  0  0  0  0  0  0  0  0  0  0  0
   -5.3962    0.6942   -0.0041 H   0  0  0  0  0  0  0  0  0  0  0  0
   -4.9611   -1.7255    0.0006 H   0  0  0  0  0  0  0  0  0  0  0  0
   -2.6606   -2.5795    0.0001 H   0  0  0  0  0  0  0  0  0  0  0  0
   -3.5459    2.2869   -0.0001 H   0  0  0  0  0  0  0  0  0  0  0  0
   -0.5996    2.4769    0.0000 H   0  0  0  0  0  0  0  0  0  0  0  0
    0.0568   -1.6496   -0.0001 H   0  0  0  0  0  0  0  0  0  0  0  0
    2.0177    1.7001   -0.0001 H   0  0  0  0  0  0  0  0  0  0  0  0
    2.1255   -1.3686    0.0003 H   0  0  0  0  0  0  0  0  0  0  0  0
    5.6899   -0.9036   -0.0001 H   0  0  0  0  0  0  0  0  0  0  0  0
  1  2  2  0  0  0  0
  2  3  1  0  0  0  0
  3  4  2  0  0  0  0
  4  5  1  0  0  0  0
  5  6  2  0  0  0  0
  1  6  1  0  0  0  0
  5  7  1  0  0  0  0
  7  8  2  0  0  0  0
  8  9  1  0  0  0  0
  4  9  1  0  0  0  0
  8 10  1  0  0  0  0
 10 11  2  0  0  0  0
 11 12  1  0  0  0  0
 12 13  2  0  0  0  0
 12 14  1  0  0  0  0
  1 15  1  0  0  0  0
  2 16  1  0  0  0  0
  3 17  1  0  0  0  0
  6 18  1  0  0  0  0
  7 19  1  0  0  0  0
  9 20  1  0  0  0  0
 10 21  1  0  0  0  0
 11 22  1  0  0  0  0
 14 23  1  0  0  0  0
M  END
$$$$
