C24H29NO2
APtclcactv06291801033D 0   0.00000     0.00000
 
 56 58  0  0  0  0  0  0  0  0999 V2000
    6.5256    1.4013   -1.4343 C   0  0  0  0  0  0  0  0  0  0  0  0
    5.2829    1.0883   -0.6413 C   0  0  0  0  0  0  0  0  0  0  0  0
    5.0672    1.7099    0.5841 C   0  0  0  0  0  0  0  0  0  0  0  0
    3.9303    1.4310    1.3214 C   0  0  0  0  0  0  0  0  0  0  0  0
    2.9935    0.5242    0.8384 C   0  0  0  0  0  0  0  0  0  0  0  0
    3.2149   -0.1003   -0.3986 C   0  0  0  0  0  0  0  0  0  0  0  0
    4.3607    0.1916   -1.1348 C   0  0  0  0  0  0  0  0  0  0  0  0
    2.0617   -0.9903   -0.6304 C   0  0  0  0  0  0  0  0  0  0  0  0
    1.2179   -0.8465    0.4809 C   0  0  0  0  0  0  0  0  0  0  0  0
    1.7924    0.0647    1.3502 N   0  0  0  0  0  0  0  0  0  0  0  0
    0.0349   -1.5757    0.5376 C   0  0  0  0  0  0  0  0  0  0  0  0
   -0.2994   -2.4327   -0.4952 C   0  0  0  0  0  0  0  0  0  0  0  0
    0.5403   -2.5723   -1.5955 C   0  0  0  0  0  0  0  0  0  0  0  0
    1.7149   -1.8563   -1.6653 C   0  0  0  0  0  0  0  0  0  0  0  0
   -1.4561   -3.1437   -0.4345 O   0  0  0  0  0  0  0  0  0  0  0  0
   -1.7430   -4.0110   -1.5334 C   0  0  0  0  0  0  0  0  0  0  0  0
   -0.8823   -1.4325    1.7247 C   0  0  0  0  0  0  0  0  0  0  0  0
   -1.8720   -0.3263    1.4642 C   0  0  0  0  0  0  0  0  0  0  0  0
   -3.1569   -0.5583    1.5709 C   0  0  0  0  0  0  0  0  0  0  0  0
   -3.6510   -1.9591    1.8252 C   0  0  0  0  0  0  0  0  0  0  0  0
   -4.1409    0.5755    1.4393 C   0  0  0  0  0  0  0  0  0  0  0  0
   -4.6448    0.6485   -0.0035 C   0  0  0  0  0  0  0  0  0  0  0  0
   -5.6288    1.7823   -0.1350 C   0  0  0  0  0  0  0  0  0  0  0  0
   -5.4024    2.7504   -0.9880 C   0  0  0  0  0  0  0  0  0  0  0  0
   -4.0987    2.8006   -1.7423 C   0  0  0  0  0  0  0  0  0  0  0  0
   -6.4456    3.8140   -1.2151 C   0  0  0  0  0  0  0  0  0  0  0  0
    5.9799    2.5971    1.0607 O   0  0  0  0  0  0  0  0  0  0  0  0
    7.3209    0.7121   -1.1504 H   0  0  0  0  0  0  0  0  0  0  0  0
    6.3144    1.2938   -2.4982 H   0  0  0  0  0  0  0  0  0  0  0  0
    6.8404    2.4242   -1.2278 H   0  0  0  0  0  0  0  0  0  0  0  0
    3.7706    1.9174    2.2724 H   0  0  0  0  0  0  0  0  0  0  0  0
    4.5294   -0.2896   -2.0868 H   0  0  0  0  0  0  0  0  0  0  0  0
    1.4085    0.3410    2.1971 H   0  0  0  0  0  0  0  0  0  0  0  0
    0.2708   -3.2442   -2.3969 H   0  0  0  0  0  0  0  0  0  0  0  0
    2.3655   -1.9658   -2.5203 H   0  0  0  0  0  0  0  0  0  0  0  0
   -2.6924   -4.5171   -1.3587 H   0  0  0  0  0  0  0  0  0  0  0  0
   -1.8066   -3.4260   -2.4509 H   0  0  0  0  0  0  0  0  0  0  0  0
   -0.9488   -4.7514   -1.6289 H   0  0  0  0  0  0  0  0  0  0  0  0
   -1.4175   -2.3684    1.8854 H   0  0  0  0  0  0  0  0  0  0  0  0
   -0.2948   -1.1930    2.6111 H   0  0  0  0  0  0  0  0  0  0  0  0
   -1.5220    0.6579    1.1896 H   0  0  0  0  0  0  0  0  0  0  0  0
   -3.6230   -2.1657    2.8951 H   0  0  0  0  0  0  0  0  0  0  0  0
   -4.6748   -2.0546    1.4634 H   0  0  0  0  0  0  0  0  0  0  0  0
   -3.0126   -2.6704    1.3010 H   0  0  0  0  0  0  0  0  0  0  0  0
   -4.9830    0.4054    2.1101 H   0  0  0  0  0  0  0  0  0  0  0  0
   -3.6514    1.5135    1.7011 H   0  0  0  0  0  0  0  0  0  0  0  0
   -3.8027    0.8186   -0.6743 H   0  0  0  0  0  0  0  0  0  0  0  0
   -5.1343   -0.2895   -0.2653 H   0  0  0  0  0  0  0  0  0  0  0  0
   -6.5207    1.7968    0.4739 H   0  0  0  0  0  0  0  0  0  0  0  0
   -4.1681    2.1719   -2.6300 H   0  0  0  0  0  0  0  0  0  0  0  0
   -3.8905    3.8282   -2.0402 H   0  0  0  0  0  0  0  0  0  0  0  0
   -3.2944    2.4378   -1.1022 H   0  0  0  0  0  0  0  0  0  0  0  0
   -7.3130    3.6122   -0.5865 H   0  0  0  0  0  0  0  0  0  0  0  0
   -6.0314    4.7895   -0.9603 H   0  0  0  0  0  0  0  0  0  0  0  0
   -6.7471    3.8096   -2.2625 H   0  0  0  0  0  0  0  0  0  0  0  0
    5.8182    3.5113    0.7901 H   0  0  0  0  0  0  0  0  0  0  0  0
  1  2  1  0  0  0  0
  2  3  2  0  0  0  0
  3  4  1  0  0  0  0
  4  5  2  0  0  0  0
  5  6  1  0  0  0  0
  6  7  2  0  0  0  0
  2  7  1  0  0  0  0
  6  8  1  0  0  0  0
  8  9  2  0  0  0  0
  9 10  1  0  0  0  0
  5 10  1  0  0  0  0
  9 11  1  0  0  0  0
 11 12  2  0  0  0  0
 12 13  1  0  0  0  0
 13 14  2  0  0  0  0
  8 14  1  0  0  0  0
 12 15  1  0  0  0  0
 15 16  1  0  0  0  0
 11 17  1  0  0  0  0
 17 18  1  0  0  0  0
 18 19  2  0  0  0  0
 19 20  1  0  0  0  0
 19 21  1  0  0  0  0
 21 22  1  0  0  0  0
 22 23  1  0  0  0  0
 23 24  2  0  0  0  0
 24 25  1  0  0  0  0
 24 26  1  0  0  0  0
  3 27  1  0  0  0  0
  1 28  1  0  0  0  0
  1 29  1  0  0  0  0
  1 30  1  0  0  0  0
  4 31  1  0  0  0  0
  7 32  1  0  0  0  0
 10 33  1  0  0  0  0
 13 34  1  0  0  0  0
 14 35  1  0  0  0  0
 16 36  1  0  0  0  0
 16 37  1  0  0  0  0
 16 38  1  0  0  0  0
 17 39  1  0  0  0  0
 17 40  1  0  0  0  0
 18 41  1  0  0  0  0
 20 42  1  0  0  0  0
 20 43  1  0  0  0  0
 20 44  1  0  0  0  0
 21 45  1  0  0  0  0
 21 46  1  0  0  0  0
 22 47  1  0  0  0  0
 22 48  1  0  0  0  0
 23 49  1  0  0  0  0
 25 50  1  0  0  0  0
 25 51  1  0  0  0  0
 25 52  1  0  0  0  0
 26 53  1  0  0  0  0
 26 54  1  0  0  0  0
 26 55  1  0  0  0  0
 27 56  1  0  0  0  0
M  END
$$$$
