C21H18O6
APtclcactv06291801033D 0   0.00000     0.00000
 
 45 48  0  0  0  0  0  0  0  0999 V2000
   -5.3327    0.5075    1.5910 C   0  0  0  0  0  0  0  0  0  0  0  0
   -5.1949    0.8931    0.1169 C   0  0  0  0  0  0  0  0  0  0  0  0
   -4.3878    2.1600    0.0080 C   0  0  0  0  0  0  0  0  0  0  0  0
   -3.0607    2.0963   -0.0909 C   0  0  0  0  0  0  0  0  0  0  0  0
   -2.4274    0.7611   -0.1020 C   0  0  0  0  0  0  0  0  0  0  0  0
   -1.0601    0.6058    0.1385 C   0  0  0  0  0  0  0  0  0  0  0  0
   -0.5132   -0.6891    0.1110 C   0  0  0  0  0  0  0  0  0  0  0  0
   -1.3259   -1.8018   -0.1429 C   0  0  0  0  0  0  0  0  0  0  0  0
   -2.6796   -1.6296   -0.3779 C   0  0  0  0  0  0  0  0  0  0  0  0
   -3.2314   -0.3583   -0.3599 C   0  0  0  0  0  0  0  0  0  0  0  0
   -4.5559   -0.1700   -0.5905 O   0  0  0  0  0  0  0  0  0  0  0  0
   -0.7869   -3.0466   -0.1590 O   0  0  0  0  0  0  0  0  0  0  0  0
   -1.6747   -4.1345   -0.4246 C   0  0  0  0  0  0  0  0  0  0  0  0
    0.9333   -0.8342    0.3483 C   0  0  0  0  0  0  0  0  0  0  0  0
    1.4485   -1.9180    0.5645 O   0  0  0  0  0  0  0  0  0  0  0  0
    1.7205    0.4140    0.3077 C   0  0  0  0  0  0  0  0  0  0  0  0
    1.0480    1.5936    0.3276 C   0  0  0  0  0  0  0  0  0  0  0  0
   -0.2814    1.6713    0.3991 O   0  0  0  0  0  0  0  0  0  0  0  0
    3.2020    0.3807    0.2474 C   0  0  0  0  0  0  0  0  0  0  0  0
    3.8618    0.6700   -0.9511 C   0  0  0  0  0  0  0  0  0  0  0  0
    5.2449    0.6377   -1.0009 C   0  0  0  0  0  0  0  0  0  0  0  0
    5.9729    0.3191    0.1358 C   0  0  0  0  0  0  0  0  0  0  0  0
    5.3184    0.0312    1.3262 C   0  0  0  0  0  0  0  0  0  0  0  0
    3.9406    0.0667    1.3862 C   0  0  0  0  0  0  0  0  0  0  0  0
    7.3306    0.2881    0.0844 O   0  0  0  0  0  0  0  0  0  0  0  0
    3.1471    0.9816   -2.0640 O   0  0  0  0  0  0  0  0  0  0  0  0
   -6.5858    1.1282   -0.4755 C   0  0  0  0  0  0  0  0  0  0  0  0
   -5.8368    1.3092    2.1307 H   0  0  0  0  0  0  0  0  0  0  0  0
   -5.9165   -0.4093    1.6737 H   0  0  0  0  0  0  0  0  0  0  0  0
   -4.3430    0.3478    2.0189 H   0  0  0  0  0  0  0  0  0  0  0  0
   -4.8843    3.1191    0.0097 H   0  0  0  0  0  0  0  0  0  0  0  0
   -2.4650    2.9944   -0.1613 H   0  0  0  0  0  0  0  0  0  0  0  0
   -3.3060   -2.4868   -0.5759 H   0  0  0  0  0  0  0  0  0  0  0  0
   -1.1169   -5.0708   -0.4085 H   0  0  0  0  0  0  0  0  0  0  0  0
   -2.4534   -4.1623    0.3376 H   0  0  0  0  0  0  0  0  0  0  0  0
   -2.1308   -4.0001   -1.4054 H   0  0  0  0  0  0  0  0  0  0  0  0
    1.6160    2.5111    0.2833 H   0  0  0  0  0  0  0  0  0  0  0  0
    5.7572    0.8604   -1.9253 H   0  0  0  0  0  0  0  0  0  0  0  0
    5.8897   -0.2171    2.2085 H   0  0  0  0  0  0  0  0  0  0  0  0
    3.4344   -0.1574    2.3136 H   0  0  0  0  0  0  0  0  0  0  0  0
    7.7514    1.1337    0.2912 H   0  0  0  0  0  0  0  0  0  0  0  0
    2.9679    1.9265   -2.1646 H   0  0  0  0  0  0  0  0  0  0  0  0
   -7.0808    1.9332    0.0678 H   0  0  0  0  0  0  0  0  0  0  0  0
   -6.4916    1.4033   -1.5260 H   0  0  0  0  0  0  0  0  0  0  0  0
   -7.1760    0.2158   -0.3903 H   0  0  0  0  0  0  0  0  0  0  0  0
  1  2  1  0  0  0  0
  2  3  1  0  0  0  0
  3  4  2  0  0  0  0
  4  5  1  0  0  0  0
  5  6  2  0  0  0  0
  6  7  1  0  0  0  0
  7  8  2  0  0  0  0
  8  9  1  0  0  0  0
  9 10  2  0  0  0  0
  5 10  1  0  0  0  0
 10 11  1  0  0  0  0
  2 11  1  0  0  0  0
  8 12  1  0  0  0  0
 12 13  1  0  0  0  0
  7 14  1  0  0  0  0
 14 15  2  0  0  0  0
 14 16  1  0  0  0  0
 16 17  2  0  0  0  0
 17 18  1  0  0  0  0
  6 18  1  0  0  0  0
 16 19  1  0  0  0  0
 19 20  2  0  0  0  0
 20 21  1  0  0  0  0
 21 22  2  0  0  0  0
 22 23  1  0  0  0  0
 23 24  2  0  0  0  0
 19 24  1  0  0  0  0
 22 25  1  0  0  0  0
 20 26  1  0  0  0  0
  2 27  1  0  0  0  0
  1 28  1  0  0  0  0
  1 29  1  0  0  0  0
  1 30  1  0  0  0  0
  3 31  1  0  0  0  0
  4 32  1  0  0  0  0
  9 33  1  0  0  0  0
 13 34  1  0  0  0  0
 13 35  1  0  0  0  0
 13 36  1  0  0  0  0
 17 37  1  0  0  0  0
 21 38  1  0  0  0  0
 23 39  1  0  0  0  0
 24 40  1  0  0  0  0
 25 41  1  0  0  0  0
 26 42  1  0  0  0  0
 27 43  1  0  0  0  0
 27 44  1  0  0  0  0
 27 45  1  0  0  0  0
M  END
$$$$
