C34H30N2O8
APtclcactv06291801033D 0   0.00000     0.00000
 
 74 78  0  0  0  0  0  0  0  0999 V2000
   -6.9525    2.0999   -1.3394 C   0  0  0  0  0  0  0  0  0  0  0  0
   -8.2301    1.5979   -1.4951 C   0  0  0  0  0  0  0  0  0  0  0  0
   -8.9002    1.0599   -0.4060 C   0  0  0  0  0  0  0  0  0  0  0  0
   -8.2851    1.0275    0.8371 C   0  0  0  0  0  0  0  0  0  0  0  0
   -7.0074    1.5307    0.9875 C   0  0  0  0  0  0  0  0  0  0  0  0
   -6.3416    2.0664   -0.0995 C   0  0  0  0  0  0  0  0  0  0  0  0
   -4.9479    2.6147    0.0675 C   0  0  0  0  0  0  0  0  0  0  0  0
   -3.9286    1.5010   -0.1809 C   0  0  0  0  0  0  0  0  0  0  0  0
   -2.5737    2.0340   -0.0186 N   0  0  0  0  0  0  0  0  0  0  0  0
   -1.5073    1.2279   -0.1907 C   0  0  0  0  0  0  0  0  0  0  0  0
   -1.6699    0.0585   -0.4806 O   0  0  0  0  0  0  0  0  0  0  0  0
   -0.1416    1.7652   -0.0271 C   0  0  0  0  0  0  0  0  0  0  0  0
    0.9759    0.9124   -0.2093 C   0  0  0  0  0  0  0  0  0  0  0  0
    2.2704    1.4105   -0.0575 C   0  0  0  0  0  0  0  0  0  0  0  0
    2.4593    2.7727    0.2796 C   0  0  0  0  0  0  0  0  0  0  0  0
    3.7490    3.2991    0.4377 C   0  0  0  0  0  0  0  0  0  0  0  0
    3.9082    4.6264    0.7653 C   0  0  0  0  0  0  0  0  0  0  0  0
    2.7916    5.4568    0.9428 C   0  0  0  0  0  0  0  0  0  0  0  0
    1.5263    4.9664    0.7940 C   0  0  0  0  0  0  0  0  0  0  0  0
    1.3332    3.6153    0.4593 C   0  0  0  0  0  0  0  0  0  0  0  0
    0.0369    3.0958    0.2968 C   0  0  0  0  0  0  0  0  0  0  0  0
    2.9714    6.7641    1.2669 O   0  0  0  0  0  0  0  0  0  0  0  0
    5.1580    5.1368    0.9185 O   0  0  0  0  0  0  0  0  0  0  0  0
    3.4365    0.5222   -0.2469 C   0  0  0  0  0  0  0  0  0  0  0  0
    4.3270    0.7510   -1.2979 C   0  0  0  0  0  0  0  0  0  0  0  0
    5.4162   -0.0822   -1.4705 C   0  0  0  0  0  0  0  0  0  0  0  0
    5.6237   -1.1477   -0.5968 C   0  0  0  0  0  0  0  0  0  0  0  0
    4.7384   -1.3752    0.4472 C   0  0  0  0  0  0  0  0  0  0  0  0
    3.6531   -0.5442    0.6283 C   0  0  0  0  0  0  0  0  0  0  0  0
    6.6951   -1.9661   -0.7678 O   0  0  0  0  0  0  0  0  0  0  0  0
    6.2852    0.1376   -2.4933 O   0  0  0  0  0  0  0  0  0  0  0  0
    0.7700   -0.5034   -0.5595 C   0  0  0  0  0  0  0  0  0  0  0  0
    0.7086   -0.8384   -1.7270 O   0  0  0  0  0  0  0  0  0  0  0  0
    0.6497   -1.4277    0.4140 N   0  0  0  0  0  0  0  0  0  0  0  0
    0.4450   -2.8359    0.0657 C   0  0  0  0  0  0  0  0  0  0  0  0
    0.3414   -3.6679    1.3456 C   0  0  0  0  0  0  0  0  0  0  0  0
    0.1308   -5.1165    0.9873 C   0  0  0  0  0  0  0  0  0  0  0  0
    1.2204   -5.9489    0.8094 C   0  0  0  0  0  0  0  0  0  0  0  0
    1.0300   -7.2772    0.4809 C   0  0  0  0  0  0  0  0  0  0  0  0
   -0.2558   -7.7756    0.3297 C   0  0  0  0  0  0  0  0  0  0  0  0
   -1.3474   -6.9384    0.5088 C   0  0  0  0  0  0  0  0  0  0  0  0
   -1.1518   -5.6122    0.8427 C   0  0  0  0  0  0  0  0  0  0  0  0
   -0.4458   -9.0818    0.0062 O   0  0  0  0  0  0  0  0  0  0  0  0
  -10.1572    0.5659   -0.5565 O   0  0  0  0  0  0  0  0  0  0  0  0
   -6.4287    2.5147   -2.1879 H   0  0  0  0  0  0  0  0  0  0  0  0
   -8.7069    1.6246   -2.4637 H   0  0  0  0  0  0  0  0  0  0  0  0
   -8.8048    0.6095    1.6865 H   0  0  0  0  0  0  0  0  0  0  0  0
   -6.5282    1.5060    1.9551 H   0  0  0  0  0  0  0  0  0  0  0  0
   -4.7865    3.4211   -0.6479 H   0  0  0  0  0  0  0  0  0  0  0  0
   -4.8273    2.9982    1.0806 H   0  0  0  0  0  0  0  0  0  0  0  0
   -4.0899    0.6946    0.5345 H   0  0  0  0  0  0  0  0  0  0  0  0
   -4.0492    1.1175   -1.1941 H   0  0  0  0  0  0  0  0  0  0  0  0
   -2.4440    2.9671    0.2127 H   0  0  0  0  0  0  0  0  0  0  0  0
    4.6136    2.6660    0.3034 H   0  0  0  0  0  0  0  0  0  0  0  0
    0.6748    5.6158    0.9337 H   0  0  0  0  0  0  0  0  0  0  0  0
   -0.8214    3.7379    0.4291 H   0  0  0  0  0  0  0  0  0  0  0  0
    3.0433    7.3525    0.5029 H   0  0  0  0  0  0  0  0  0  0  0  0
    5.5395    5.4940    0.1049 H   0  0  0  0  0  0  0  0  0  0  0  0
    4.1648    1.5769   -1.9745 H   0  0  0  0  0  0  0  0  0  0  0  0
    4.9023   -2.2022    1.1222 H   0  0  0  0  0  0  0  0  0  0  0  0
    2.9657   -0.7232    1.4419 H   0  0  0  0  0  0  0  0  0  0  0  0
    7.4881   -1.6800   -0.2942 H   0  0  0  0  0  0  0  0  0  0  0  0
    7.0195    0.7243   -2.2663 H   0  0  0  0  0  0  0  0  0  0  0  0
    0.6987   -1.1605    1.3452 H   0  0  0  0  0  0  0  0  0  0  0  0
   -0.4753   -2.9378   -0.5094 H   0  0  0  0  0  0  0  0  0  0  0  0
    1.2867   -3.1889   -0.5300 H   0  0  0  0  0  0  0  0  0  0  0  0
    1.2617   -3.5660    1.9207 H   0  0  0  0  0  0  0  0  0  0  0  0
   -0.5003   -3.3149    1.9413 H   0  0  0  0  0  0  0  0  0  0  0  0
    2.2212   -5.5603    0.9269 H   0  0  0  0  0  0  0  0  0  0  0  0
    1.8814   -7.9269    0.3417 H   0  0  0  0  0  0  0  0  0  0  0  0
   -2.3494   -7.3241    0.3916 H   0  0  0  0  0  0  0  0  0  0  0  0
   -2.0012   -4.9600    0.9822 H   0  0  0  0  0  0  0  0  0  0  0  0
   -0.5204   -9.6695    0.7705 H   0  0  0  0  0  0  0  0  0  0  0  0
  -10.1860   -0.3728   -0.7869 H   0  0  0  0  0  0  0  0  0  0  0  0
  1  2  2  0  0  0  0
  2  3  1  0  0  0  0
  3  4  2  0  0  0  0
  4  5  1  0  0  0  0
  5  6  2  0  0  0  0
  1  6  1  0  0  0  0
  6  7  1  0  0  0  0
  7  8  1  0  0  0  0
  8  9  1  0  0  0  0
  9 10  1  0  0  0  0
 10 11  2  0  0  0  0
 10 12  1  0  0  0  0
 12 13  2  0  0  0  0
 13 14  1  0  0  0  0
 14 15  2  0  0  0  0
 15 16  1  0  0  0  0
 16 17  2  0  0  0  0
 17 18  1  0  0  0  0
 18 19  2  0  0  0  0
 19 20  1  0  0  0  0
 15 20  1  0  0  0  0
 20 21  2  0  0  0  0
 12 21  1  0  0  0  0
 18 22  1  0  0  0  0
 17 23  1  0  0  0  0
 14 24  1  0  0  0  0
 24 25  2  0  0  0  0
 25 26  1  0  0  0  0
 26 27  2  0  0  0  0
 27 28  1  0  0  0  0
 28 29  2  0  0  0  0
 24 29  1  0  0  0  0
 27 30  1  0  0  0  0
 26 31  1  0  0  0  0
 13 32  1  0  0  0  0
 32 33  2  0  0  0  0
 32 34  1  0  0  0  0
 34 35  1  0  0  0  0
 35 36  1  0  0  0  0
 36 37  1  0  0  0  0
 37 38  2  0  0  0  0
 38 39  1  0  0  0  0
 39 40  2  0  0  0  0
 40 41  1  0  0  0  0
 41 42  2  0  0  0  0
 37 42  1  0  0  0  0
 40 43  1  0  0  0  0
  3 44  1  0  0  0  0
  1 45  1  0  0  0  0
  2 46  1  0  0  0  0
  4 47  1  0  0  0  0
  5 48  1  0  0  0  0
  7 49  1  0  0  0  0
  7 50  1  0  0  0  0
  8 51  1  0  0  0  0
  8 52  1  0  0  0  0
  9 53  1  0  0  0  0
 16 54  1  0  0  0  0
 19 55  1  0  0  0  0
 21 56  1  0  0  0  0
 22 57  1  0  0  0  0
 23 58  1  0  0  0  0
 25 59  1  0  0  0  0
 28 60  1  0  0  0  0
 29 61  1  0  0  0  0
 30 62  1  0  0  0  0
 31 63  1  0  0  0  0
 34 64  1  0  0  0  0
 35 65  1  0  0  0  0
 35 66  1  0  0  0  0
 36 67  1  0  0  0  0
 36 68  1  0  0  0  0
 38 69  1  0  0  0  0
 39 70  1  0  0  0  0
 41 71  1  0  0  0  0
 42 72  1  0  0  0  0
 43 73  1  0  0  0  0
 44 74  1  0  0  0  0
M  END
$$$$
