C5H11NO2Se
APtclcactv06211806073D 0   0.00000     0.00000
 
 20 19  0  0  0  0  0  0  0  0999 V2000
    3.5400   -0.7165    0.5901 C   0  0  0  0  0  0  0  0  0  0  0  0
    2.1269    0.3644   -0.2323 Se  0  0  0  0  0  0  0  0  0  0  0  0
    0.5241   -0.5239    0.4630 C   0  0  0  0  0  0  0  0  0  0  0  0
   -0.7232    0.1824   -0.0722 C   0  0  0  0  0  0  0  0  0  0  0  0
   -1.9743   -0.5110    0.4706 C   0  0  0  0  0  0  0  0  0  0  0  0
   -3.1991    0.2567    0.0443 C   0  0  0  0  0  0  0  0  0  0  0  0
   -3.8528   -0.1236   -0.8980 O   0  0  0  0  0  0  0  0  0  0  0  0
   -3.5636    1.3630    0.7114 O   0  0  0  0  0  0  0  0  0  0  0  0
   -2.0449   -1.8792   -0.0596 N   0  0  0  0  0  0  0  0  0  0  0  0
    3.4509   -0.6661    1.6753 H   0  0  0  0  0  0  0  0  0  0  0  0
    3.4410   -1.7521    0.2651 H   0  0  0  0  0  0  0  0  0  0  0  0
    4.5141   -0.3322    0.2874 H   0  0  0  0  0  0  0  0  0  0  0  0
    0.5177   -1.5655    0.1418 H   0  0  0  0  0  0  0  0  0  0  0  0
    0.5276   -0.4795    1.5521 H   0  0  0  0  0  0  0  0  0  0  0  0
   -0.7168    1.2240    0.2490 H   0  0  0  0  0  0  0  0  0  0  0  0
   -0.7267    0.1380   -1.1613 H   0  0  0  0  0  0  0  0  0  0  0  0
   -1.9276   -0.5451    1.5591 H   0  0  0  0  0  0  0  0  0  0  0  0
   -4.3563    1.8217    0.4009 H   0  0  0  0  0  0  0  0  0  0  0  0
   -2.0892   -1.8745   -1.0676 H   0  0  0  0  0  0  0  0  0  0  0  0
   -1.2671   -2.4336    0.2656 H   0  0  0  0  0  0  0  0  0  0  0  0
  1  2  1  0  0  0  0
  2  3  1  0  0  0  0
  3  4  1  0  0  0  0
  4  5  1  0  0  0  0
  5  6  1  0  0  0  0
  6  7  2  0  0  0  0
  6  8  1  0  0  0  0
  5  9  1  0  0  0  0
  1 10  1  0  0  0  0
  1 11  1  0  0  0  0
  1 12  1  0  0  0  0
  3 13  1  0  0  0  0
  3 14  1  0  0  0  0
  4 15  1  0  0  0  0
  4 16  1  0  0  0  0
  5 17  1  0  0  0  0
  8 18  1  0  0  0  0
  9 19  1  0  0  0  0
  9 20  1  0  0  0  0
M  END
$$$$
