C7H14O6
APtclcactv06211806393D 0   0.00000     0.00000
 
 27 27  0  0  0  0  0  0  0  0999 V2000
    3.3296    0.4450   -0.9660 C   0  0  0  0  0  0  0  0  0  0  0  0
    2.5067    0.0608    0.1373 O   0  0  0  0  0  0  0  0  0  0  0  0
    1.1137   -0.0100   -0.1735 C   0  0  0  0  0  0  0  0  0  0  0  0
    0.4476   -1.0685    0.7079 C   0  0  0  0  0  0  0  0  0  0  0  0
   -1.0438   -1.1442    0.3752 C   0  0  0  0  0  0  0  0  0  0  0  0
   -1.6937    0.2166    0.6331 C   0  0  0  0  0  0  0  0  0  0  0  0
   -1.0276    1.2751   -0.2483 C   0  0  0  0  0  0  0  0  0  0  0  0
    0.4638    1.3509    0.0845 C   0  0  0  0  0  0  0  0  0  0  0  0
    0.6278    1.7041    1.4594 O   0  0  0  0  0  0  0  0  0  0  0  0
   -1.1916    0.9219   -1.6232 O   0  0  0  0  0  0  0  0  0  0  0  0
   -3.0867    0.1459    0.3223 O   0  0  0  0  0  0  0  0  0  0  0  0
   -1.2078   -1.4974   -0.9997 O   0  0  0  0  0  0  0  0  0  0  0  0
    1.0546   -2.3395    0.4670 O   0  0  0  0  0  0  0  0  0  0  0  0
    4.3719    0.4754   -0.6486 H   0  0  0  0  0  0  0  0  0  0  0  0
    3.2164   -0.2788   -1.7730 H   0  0  0  0  0  0  0  0  0  0  0  0
    3.0280    1.4316   -1.3178 H   0  0  0  0  0  0  0  0  0  0  0  0
    0.9886   -0.2794   -1.2222 H   0  0  0  0  0  0  0  0  0  0  0  0
    0.5727   -0.7991    1.7567 H   0  0  0  0  0  0  0  0  0  0  0  0
   -1.5183   -1.8983    1.0031 H   0  0  0  0  0  0  0  0  0  0  0  0
   -1.5686    0.4861    1.6819 H   0  0  0  0  0  0  0  0  0  0  0  0
   -1.4906    2.2447   -0.0645 H   0  0  0  0  0  0  0  0  0  0  0  0
    0.9383    2.1050   -0.5434 H   0  0  0  0  0  0  0  0  0  0  0  0
    0.2391    2.5575    1.6953 H   0  0  0  0  0  0  0  0  0  0  0  0
   -2.1143    0.8555   -1.9049 H   0  0  0  0  0  0  0  0  0  0  0  0
   -3.5636    0.9753    0.4627 H   0  0  0  0  0  0  0  0  0  0  0  0
   -2.1305   -1.5639   -1.2814 H   0  0  0  0  0  0  0  0  0  0  0  0
    0.6811   -3.0598    0.9931 H   0  0  0  0  0  0  0  0  0  0  0  0
  1  2  1  0  0  0  0
  2  3  1  0  0  0  0
  3  4  1  0  0  0  0
  4  5  1  0  0  0  0
  5  6  1  0  0  0  0
  6  7  1  0  0  0  0
  7  8  1  0  0  0  0
  3  8  1  0  0  0  0
  8  9  1  0  0  0  0
  7 10  1  0  0  0  0
  6 11  1  0  0  0  0
  5 12  1  0  0  0  0
  4 13  1  0  0  0  0
  1 14  1  0  0  0  0
  1 15  1  0  0  0  0
  1 16  1  0  0  0  0
  3 17  1  0  0  0  0
  4 18  1  0  0  0  0
  5 19  1  0  0  0  0
  6 20  1  0  0  0  0
  7 21  1  0  0  0  0
  8 22  1  0  0  0  0
  9 23  1  0  0  0  0
 10 24  1  0  0  0  0
 11 25  1  0  0  0  0
 12 26  1  0  0  0  0
 13 27  1  0  0  0  0
M  END
$$$$
