C32H50O4
APtclcactv06211806393D 0   0.00000     0.00000
 
 86 90  0  0  0  0  0  0  0  0999 V2000
    6.7868    2.3206   -2.4532 C   0  0  0  0  0  0  0  0  0  0  0  0
    6.5101    1.6205   -1.1477 C   0  0  0  0  0  0  0  0  0  0  0  0
    7.3153    1.6780   -0.2487 O   0  0  0  0  0  0  0  0  0  0  0  0
    5.3689    0.9330   -0.9835 O   0  0  0  0  0  0  0  0  0  0  0  0
    5.1686    0.2820    0.3039 C   0  0  0  0  0  0  0  0  0  0  0  0
    4.4583    1.2363    1.2516 C   0  0  0  0  0  0  0  0  0  0  0  0
    2.9809    1.3852    0.8969 C   0  0  0  0  0  0  0  0  0  0  0  0
    2.2968    0.0108    1.0109 C   0  0  0  0  0  0  0  0  0  0  0  0
    2.9476   -0.9060   -0.0175 C   0  0  0  0  0  0  0  0  0  0  0  0
    4.4492   -1.0453    0.0914 C   0  0  0  0  0  0  0  0  0  0  0  0
    4.9716   -1.6078   -1.2593 C   0  0  0  0  0  0  0  0  0  0  0  0
    4.8723   -2.0490    1.1673 C   0  0  0  0  0  0  0  0  0  0  0  0
    2.2341   -2.2554   -0.0495 C   0  0  0  0  0  0  0  0  0  0  0  0
    0.7956   -2.0057   -0.5301 C   0  0  0  0  0  0  0  0  0  0  0  0
    0.0579   -1.1138    0.4688 C   0  0  0  0  0  0  0  0  0  0  0  0
    0.8161    0.1845    0.6813 C   0  0  0  0  0  0  0  0  0  0  0  0
    0.1093    1.0192    1.7518 C   0  0  0  0  0  0  0  0  0  0  0  0
   -1.3217    1.2130    1.3407 C   0  0  0  0  0  0  0  0  0  0  0  0
   -1.9624    0.4139    0.5300 C   0  0  0  0  0  0  0  0  0  0  0  0
   -1.3662   -0.8407   -0.0343 C   0  0  0  0  0  0  0  0  0  0  0  0
   -1.4799   -0.8654   -1.5451 C   0  0  0  0  0  0  0  0  0  0  0  0
   -2.4421    0.1852   -2.1065 C   0  0  0  0  0  0  0  0  0  0  0  0
   -3.7025    0.3008   -1.2729 C   0  0  0  0  0  0  0  0  0  0  0  0
   -3.3399    0.8383    0.1135 C   0  0  0  0  0  0  0  0  0  0  0  0
   -4.4742    0.5796    1.0747 C   0  0  0  0  0  0  0  0  0  0  0  0
   -5.7186    1.3239    0.5776 C   0  0  0  0  0  0  0  0  0  0  0  0
   -5.9664    1.2482   -0.9184 C   0  0  0  0  0  0  0  0  0  0  0  0
   -4.7205    1.3210   -1.8037 C   0  0  0  0  0  0  0  0  0  0  0  0
   -6.9389    0.7170    1.2959 C   0  0  0  0  0  0  0  0  0  0  0  0
   -5.6248    2.7997    0.9996 C   0  0  0  0  0  0  0  0  0  0  0  0
   -4.4042   -1.0293   -1.2495 C   0  0  0  0  0  0  0  0  0  0  0  0
   -4.0092   -1.9331   -1.9473 O   0  0  0  0  0  0  0  0  0  0  0  0
   -5.4693   -1.2123   -0.4533 O   0  0  0  0  0  0  0  0  0  0  0  0
   -2.1627   -2.0299    0.5379 C   0  0  0  0  0  0  0  0  0  0  0  0
   -0.1258   -1.9058    1.7767 C   0  0  0  0  0  0  0  0  0  0  0  0
    2.4910   -0.4807    2.4405 C   0  0  0  0  0  0  0  0  0  0  0  0
    7.3126    1.6421   -3.1250 H   0  0  0  0  0  0  0  0  0  0  0  0
    5.8447    2.6254   -2.9088 H   0  0  0  0  0  0  0  0  0  0  0  0
    7.4033    3.2007   -2.2700 H   0  0  0  0  0  0  0  0  0  0  0  0
    6.1656    0.0615    0.7229 H   0  0  0  0  0  0  0  0  0  0  0  0
    4.5934    0.9256    2.2840 H   0  0  0  0  0  0  0  0  0  0  0  0
    4.9324    2.2279    1.1678 H   0  0  0  0  0  0  0  0  0  0  0  0
    2.5045    2.0796    1.5870 H   0  0  0  0  0  0  0  0  0  0  0  0
    2.8842    1.7495   -0.1251 H   0  0  0  0  0  0  0  0  0  0  0  0
    2.7477   -0.4341   -1.0149 H   0  0  0  0  0  0  0  0  0  0  0  0
    4.7124   -0.9198   -2.0640 H   0  0  0  0  0  0  0  0  0  0  0  0
    6.0548   -1.7197   -1.2117 H   0  0  0  0  0  0  0  0  0  0  0  0
    4.5140   -2.5786   -1.4498 H   0  0  0  0  0  0  0  0  0  0  0  0
    4.5305   -3.0458    0.8888 H   0  0  0  0  0  0  0  0  0  0  0  0
    5.9586   -2.0492    1.2569 H   0  0  0  0  0  0  0  0  0  0  0  0
    4.4290   -1.7665    2.1222 H   0  0  0  0  0  0  0  0  0  0  0  0
    2.7156   -2.9187   -0.7743 H   0  0  0  0  0  0  0  0  0  0  0  0
    2.2297   -2.7352    0.9199 H   0  0  0  0  0  0  0  0  0  0  0  0
    0.8497   -1.5223   -1.5041 H   0  0  0  0  0  0  0  0  0  0  0  0
    0.2882   -2.9615   -0.6285 H   0  0  0  0  0  0  0  0  0  0  0  0
    0.7643    0.7634   -0.2707 H   0  0  0  0  0  0  0  0  0  0  0  0
    0.1323    0.5410    2.7249 H   0  0  0  0  0  0  0  0  0  0  0  0
    0.5871    1.9977    1.8270 H   0  0  0  0  0  0  0  0  0  0  0  0
   -1.8535    2.0692    1.7244 H   0  0  0  0  0  0  0  0  0  0  0  0
   -0.4952   -0.6621   -1.9856 H   0  0  0  0  0  0  0  0  0  0  0  0
   -1.7885   -1.8600   -1.8753 H   0  0  0  0  0  0  0  0  0  0  0  0
   -1.9357    1.1557   -2.1348 H   0  0  0  0  0  0  0  0  0  0  0  0
   -2.7127   -0.0831   -3.1356 H   0  0  0  0  0  0  0  0  0  0  0  0
   -3.2786    1.9536   -0.0057 H   0  0  0  0  0  0  0  0  0  0  0  0
   -4.6815   -0.4740    1.2113 H   0  0  0  0  0  0  0  0  0  0  0  0
   -4.2027    0.9879    2.0634 H   0  0  0  0  0  0  0  0  0  0  0  0
   -6.5550    0.3587   -1.1547 H   0  0  0  0  0  0  0  0  0  0  0  0
   -6.6136    2.1072   -1.1839 H   0  0  0  0  0  0  0  0  0  0  0  0
   -4.2871    2.3158   -1.7643 H   0  0  0  0  0  0  0  0  0  0  0  0
   -4.9790    1.0619   -2.8319 H   0  0  0  0  0  0  0  0  0  0  0  0
   -6.8256    0.8414    2.3728 H   0  0  0  0  0  0  0  0  0  0  0  0
   -7.8449    1.2247    0.9649 H   0  0  0  0  0  0  0  0  0  0  0  0
   -7.0097   -0.3444    1.0582 H   0  0  0  0  0  0  0  0  0  0  0  0
   -4.7317    3.2464    0.5627 H   0  0  0  0  0  0  0  0  0  0  0  0
   -6.5074    3.3346    0.6489 H   0  0  0  0  0  0  0  0  0  0  0  0
   -5.5689    2.8640    2.0862 H   0  0  0  0  0  0  0  0  0  0  0  0
   -5.8871   -2.0842   -0.4724 H   0  0  0  0  0  0  0  0  0  0  0  0
   -3.1758   -2.0157    0.1361 H   0  0  0  0  0  0  0  0  0  0  0  0
   -1.6738   -2.9630    0.2580 H   0  0  0  0  0  0  0  0  0  0  0  0
   -2.2016   -1.9519    1.6244 H   0  0  0  0  0  0  0  0  0  0  0  0
    0.8501   -2.1170    2.2137 H   0  0  0  0  0  0  0  0  0  0  0  0
   -0.7181   -1.3175    2.4776 H   0  0  0  0  0  0  0  0  0  0  0  0
   -0.6395   -2.8435    1.5646 H   0  0  0  0  0  0  0  0  0  0  0  0
    1.7835    0.0248    3.0978 H   0  0  0  0  0  0  0  0  0  0  0  0
    2.3201   -1.5565    2.4812 H   0  0  0  0  0  0  0  0  0  0  0  0
    3.5084   -0.2620    2.7648 H   0  0  0  0  0  0  0  0  0  0  0  0
  1  2  1  0  0  0  0
  2  3  2  0  0  0  0
  2  4  1  0  0  0  0
  4  5  1  0  0  0  0
  5  6  1  0  0  0  0
  6  7  1  0  0  0  0
  7  8  1  0  0  0  0
  8  9  1  0  0  0  0
  9 10  1  0  0  0  0
  5 10  1  0  0  0  0
 10 11  1  0  0  0  0
 10 12  1  0  0  0  0
  9 13  1  0  0  0  0
 13 14  1  0  0  0  0
 14 15  1  0  0  0  0
 15 16  1  0  0  0  0
  8 16  1  0  0  0  0
 16 17  1  0  0  0  0
 17 18  1  0  0  0  0
 18 19  2  0  0  0  0
 19 20  1  0  0  0  0
 15 20  1  0  0  0  0
 20 21  1  0  0  0  0
 21 22  1  0  0  0  0
 22 23  1  0  0  0  0
 23 24  1  0  0  0  0
 19 24  1  0  0  0  0
 24 25  1  0  0  0  0
 25 26  1  0  0  0  0
 26 27  1  0  0  0  0
 27 28  1  0  0  0  0
 23 28  1  0  0  0  0
 26 29  1  0  0  0  0
 26 30  1  0  0  0  0
 23 31  1  0  0  0  0
 31 32  2  0  0  0  0
 31 33  1  0  0  0  0
 20 34  1  0  0  0  0
 15 35  1  0  0  0  0
  8 36  1  0  0  0  0
  1 37  1  0  0  0  0
  1 38  1  0  0  0  0
  1 39  1  0  0  0  0
  5 40  1  0  0  0  0
  6 41  1  0  0  0  0
  6 42  1  0  0  0  0
  7 43  1  0  0  0  0
  7 44  1  0  0  0  0
  9 45  1  0  0  0  0
 11 46  1  0  0  0  0
 11 47  1  0  0  0  0
 11 48  1  0  0  0  0
 12 49  1  0  0  0  0
 12 50  1  0  0  0  0
 12 51  1  0  0  0  0
 13 52  1  0  0  0  0
 13 53  1  0  0  0  0
 14 54  1  0  0  0  0
 14 55  1  0  0  0  0
 16 56  1  0  0  0  0
 17 57  1  0  0  0  0
 17 58  1  0  0  0  0
 18 59  1  0  0  0  0
 21 60  1  0  0  0  0
 21 61  1  0  0  0  0
 22 62  1  0  0  0  0
 22 63  1  0  0  0  0
 24 64  1  0  0  0  0
 25 65  1  0  0  0  0
 25 66  1  0  0  0  0
 27 67  1  0  0  0  0
 27 68  1  0  0  0  0
 28 69  1  0  0  0  0
 28 70  1  0  0  0  0
 29 71  1  0  0  0  0
 29 72  1  0  0  0  0
 29 73  1  0  0  0  0
 30 74  1  0  0  0  0
 30 75  1  0  0  0  0
 30 76  1  0  0  0  0
 33 77  1  0  0  0  0
 34 78  1  0  0  0  0
 34 79  1  0  0  0  0
 34 80  1  0  0  0  0
 35 81  1  0  0  0  0
 35 82  1  0  0  0  0
 35 83  1  0  0  0  0
 36 84  1  0  0  0  0
 36 85  1  0  0  0  0
 36 86  1  0  0  0  0
M  END
$$$$
