C11H8O3
APtclcactv06211806393D 0   0.00000     0.00000
 
 22 24  0  0  0  0  0  0  0  0999 V2000
   -3.3042    1.0469   -0.0789 C   0  0  0  0  0  0  0  0  0  0  0  0
   -3.9498   -0.3046    0.3080 C   0  0  0  0  0  0  0  0  0  0  0  0
   -2.9657   -1.2626   -0.1153 O   0  0  0  0  0  0  0  0  0  0  0  0
   -1.7322   -0.6890   -0.0777 C   0  0  0  0  0  0  0  0  0  0  0  0
   -1.8264    0.7035   -0.0628 C   0  0  0  0  0  0  0  0  0  0  0  0
   -0.7129    1.4859   -0.0357 C   0  0  0  0  0  0  0  0  0  0  0  0
    0.5536    0.8909   -0.0161 C   0  0  0  0  0  0  0  0  0  0  0  0
    1.7709    1.7035    0.0135 C   0  0  0  0  0  0  0  0  0  0  0  0
    2.9691    1.0633    0.0339 C   0  0  0  0  0  0  0  0  0  0  0  0
    3.0104   -0.3461    0.0265 C   0  0  0  0  0  0  0  0  0  0  0  0
    4.0910   -0.9077    0.0461 O   0  0  0  0  0  0  0  0  0  0  0  0
    1.8905   -1.0850   -0.0012 O   0  0  0  0  0  0  0  0  0  0  0  0
    0.6673   -0.5120   -0.0238 C   0  0  0  0  0  0  0  0  0  0  0  0
   -0.4776   -1.2903   -0.0544 C   0  0  0  0  0  0  0  0  0  0  0  0
   -3.6208    1.3593   -1.0740 H   0  0  0  0  0  0  0  0  0  0  0  0
   -3.5339    1.8142    0.6604 H   0  0  0  0  0  0  0  0  0  0  0  0
   -4.1067   -0.3629    1.3851 H   0  0  0  0  0  0  0  0  0  0  0  0
   -4.8873   -0.4518   -0.2282 H   0  0  0  0  0  0  0  0  0  0  0  0
   -0.8065    2.5619   -0.0296 H   0  0  0  0  0  0  0  0  0  0  0  0
    1.7179    2.7822    0.0193 H   0  0  0  0  0  0  0  0  0  0  0  0
    3.8869    1.6321    0.0554 H   0  0  0  0  0  0  0  0  0  0  0  0
   -0.3965   -2.3672   -0.0598 H   0  0  0  0  0  0  0  0  0  0  0  0
  1  2  1  0  0  0  0
  2  3  1  0  0  0  0
  3  4  1  0  0  0  0
  4  5  2  0  0  0  0
  1  5  1  0  0  0  0
  5  6  1  0  0  0  0
  6  7  2  0  0  0  0
  7  8  1  0  0  0  0
  8  9  2  0  0  0  0
  9 10  1  0  0  0  0
 10 11  2  0  0  0  0
 10 12  1  0  0  0  0
 12 13  1  0  0  0  0
  7 13  1  0  0  0  0
 13 14  2  0  0  0  0
  4 14  1  0  0  0  0
  1 15  1  0  0  0  0
  1 16  1  0  0  0  0
  2 17  1  0  0  0  0
  2 18  1  0  0  0  0
  6 19  1  0  0  0  0
  8 20  1  0  0  0  0
  9 21  1  0  0  0  0
 14 22  1  0  0  0  0
M  END
$$$$
