C7H12O6
APtclcactv06291801033D 0   0.00000     0.00000
 
 25 24  0  0  0  0  0  0  0  0999 V2000
    3.5535    1.5810   -0.5639 C   0  0  0  0  0  0  0  0  0  0  0  0
    3.0057    0.1976   -0.2076 C   0  0  0  0  0  0  0  0  0  0  0  0
    3.8352   -0.4020    0.9297 C   0  0  0  0  0  0  0  0  0  0  0  0
    1.6218    0.3190    0.2146 O   0  0  0  0  0  0  0  0  0  0  0  0
    0.8176   -0.7288   -0.0245 C   0  0  0  0  0  0  0  0  0  0  0  0
    1.2555   -1.7147   -0.5686 O   0  0  0  0  0  0  0  0  0  0  0  0
   -0.6316   -0.6754    0.3856 C   0  0  0  0  0  0  0  0  0  0  0  0
   -1.3499    0.4093   -0.4195 C   0  0  0  0  0  0  0  0  0  0  0  0
   -2.7990    0.4627   -0.0094 C   0  0  0  0  0  0  0  0  0  0  0  0
   -3.2369    1.4487    0.5347 O   0  0  0  0  0  0  0  0  0  0  0  0
   -3.6032   -0.5850   -0.2485 O   0  0  0  0  0  0  0  0  0  0  0  0
   -0.7364    1.6750   -0.1669 O   0  0  0  0  0  0  0  0  0  0  0  0
   -1.2451   -1.9410    0.1330 O   0  0  0  0  0  0  0  0  0  0  0  0
    4.5924    1.4898   -0.8809 H   0  0  0  0  0  0  0  0  0  0  0  0
    2.9626    2.0081   -1.3742 H   0  0  0  0  0  0  0  0  0  0  0  0
    3.4957    2.2306    0.3094 H   0  0  0  0  0  0  0  0  0  0  0  0
    3.0635   -0.4521   -1.0810 H   0  0  0  0  0  0  0  0  0  0  0  0
    3.4449   -1.3876    1.1835 H   0  0  0  0  0  0  0  0  0  0  0  0
    4.8741   -0.4931    0.6127 H   0  0  0  0  0  0  0  0  0  0  0  0
    3.7774    0.2476    1.8030 H   0  0  0  0  0  0  0  0  0  0  0  0
   -0.7000   -0.4442    1.4486 H   0  0  0  0  0  0  0  0  0  0  0  0
   -1.2814    0.1781   -1.4825 H   0  0  0  0  0  0  0  0  0  0  0  0
   -4.5249   -0.5042    0.0327 H   0  0  0  0  0  0  0  0  0  0  0  0
   -0.7604    1.9455    0.7612 H   0  0  0  0  0  0  0  0  0  0  0  0
   -1.2210   -2.2115   -0.7951 H   0  0  0  0  0  0  0  0  0  0  0  0
  1  2  1  0  0  0  0
  2  3  1  0  0  0  0
  2  4  1  0  0  0  0
  4  5  1  0  0  0  0
  5  6  2  0  0  0  0
  5  7  1  0  0  0  0
  7  8  1  0  0  0  0
  8  9  1  0  0  0  0
  9 10  2  0  0  0  0
  9 11  1  0  0  0  0
  8 12  1  0  0  0  0
  7 13  1  0  0  0  0
  1 14  1  0  0  0  0
  1 15  1  0  0  0  0
  1 16  1  0  0  0  0
  2 17  1  0  0  0  0
  3 18  1  0  0  0  0
  3 19  1  0  0  0  0
  3 20  1  0  0  0  0
  7 21  1  0  0  0  0
  8 22  1  0  0  0  0
 11 23  1  0  0  0  0
 12 24  1  0  0  0  0
 13 25  1  0  0  0  0
M  END
$$$$
