C18H28O2
APtclcactv06211806393D 0   0.00000     0.00000
 
 48 48  0  0  0  0  0  0  0  0999 V2000
   -8.6845   -1.1709   -0.0007 C   0  0  0  0  0  0  0  0  0  0  0  0
   -8.1005   -0.8018    1.1967 C   0  0  0  0  0  0  0  0  0  0  0  0
   -6.9335   -0.0609    1.1971 C   0  0  0  0  0  0  0  0  0  0  0  0
   -6.3503    0.3107    0.0002 C   0  0  0  0  0  0  0  0  0  0  0  0
   -6.9338   -0.0591   -1.1972 C   0  0  0  0  0  0  0  0  0  0  0  0
   -8.1015   -0.7989   -1.1976 C   0  0  0  0  0  0  0  0  0  0  0  0
   -5.0786    1.1193    0.0007 C   0  0  0  0  0  0  0  0  0  0  0  0
   -3.8742    0.1758    0.0001 C   0  0  0  0  0  0  0  0  0  0  0  0
   -2.5831    0.9967    0.0006 C   0  0  0  0  0  0  0  0  0  0  0  0
   -1.3788    0.0532    0.0000 C   0  0  0  0  0  0  0  0  0  0  0  0
   -0.0877    0.8741    0.0005 C   0  0  0  0  0  0  0  0  0  0  0  0
    1.1167   -0.0695   -0.0000 C   0  0  0  0  0  0  0  0  0  0  0  0
    2.4078    0.7515    0.0004 C   0  0  0  0  0  0  0  0  0  0  0  0
    3.6122   -0.1921   -0.0001 C   0  0  0  0  0  0  0  0  0  0  0  0
    4.9033    0.6289    0.0004 C   0  0  0  0  0  0  0  0  0  0  0  0
    6.1077   -0.3147   -0.0002 C   0  0  0  0  0  0  0  0  0  0  0  0
    7.3987    0.5063    0.0003 C   0  0  0  0  0  0  0  0  0  0  0  0
    8.5850   -0.4231   -0.0003 C   0  0  0  0  0  0  0  0  0  0  0  0
    8.4153   -1.6194   -0.0010 O   0  0  0  0  0  0  0  0  0  0  0  0
    9.8302    0.0781    0.0000 O   0  0  0  0  0  0  0  0  0  0  0  0
   -9.5938   -1.7536   -0.0010 H   0  0  0  0  0  0  0  0  0  0  0  0
   -8.5562   -1.0921    2.1318 H   0  0  0  0  0  0  0  0  0  0  0  0
   -6.4777    0.2280    2.1326 H   0  0  0  0  0  0  0  0  0  0  0  0
   -6.4785    0.2318   -2.1323 H   0  0  0  0  0  0  0  0  0  0  0  0
   -8.5576   -1.0875   -2.1331 H   0  0  0  0  0  0  0  0  0  0  0  0
   -5.0477    1.7484   -0.8890 H   0  0  0  0  0  0  0  0  0  0  0  0
   -5.0477    1.7474    0.8910 H   0  0  0  0  0  0  0  0  0  0  0  0
   -3.9051   -0.4533    0.8897 H   0  0  0  0  0  0  0  0  0  0  0  0
   -3.9051   -0.4523   -0.8902 H   0  0  0  0  0  0  0  0  0  0  0  0
   -2.5523    1.6258   -0.8890 H   0  0  0  0  0  0  0  0  0  0  0  0
   -2.5523    1.6248    0.8909 H   0  0  0  0  0  0  0  0  0  0  0  0
   -1.4096   -0.5759    0.8897 H   0  0  0  0  0  0  0  0  0  0  0  0
   -1.4096   -0.5749   -0.8903 H   0  0  0  0  0  0  0  0  0  0  0  0
   -0.0568    1.5032   -0.8891 H   0  0  0  0  0  0  0  0  0  0  0  0
   -0.0568    1.5022    0.8908 H   0  0  0  0  0  0  0  0  0  0  0  0
    1.0858   -0.6985    0.8896 H   0  0  0  0  0  0  0  0  0  0  0  0
    1.0858   -0.6975   -0.8904 H   0  0  0  0  0  0  0  0  0  0  0  0
    2.4387    1.3806   -0.8892 H   0  0  0  0  0  0  0  0  0  0  0  0
    2.4387    1.3796    0.8908 H   0  0  0  0  0  0  0  0  0  0  0  0
    3.5813   -0.8211    0.8895 H   0  0  0  0  0  0  0  0  0  0  0  0
    3.5813   -0.8201   -0.8905 H   0  0  0  0  0  0  0  0  0  0  0  0
    4.9341    1.2580   -0.8893 H   0  0  0  0  0  0  0  0  0  0  0  0
    4.9341    1.2570    0.8907 H   0  0  0  0  0  0  0  0  0  0  0  0
    6.0768   -0.9437    0.8894 H   0  0  0  0  0  0  0  0  0  0  0  0
    6.0768   -0.9427   -0.8905 H   0  0  0  0  0  0  0  0  0  0  0  0
    7.4296    1.1354   -0.8893 H   0  0  0  0  0  0  0  0  0  0  0  0
    7.4296    1.1344    0.8906 H   0  0  0  0  0  0  0  0  0  0  0  0
   10.5592   -0.5573   -0.0003 H   0  0  0  0  0  0  0  0  0  0  0  0
  1  2  2  0  0  0  0
  2  3  1  0  0  0  0
  3  4  2  0  0  0  0
  4  5  1  0  0  0  0
  5  6  2  0  0  0  0
  1  6  1  0  0  0  0
  4  7  1  0  0  0  0
  7  8  1  0  0  0  0
  8  9  1  0  0  0  0
  9 10  1  0  0  0  0
 10 11  1  0  0  0  0
 11 12  1  0  0  0  0
 12 13  1  0  0  0  0
 13 14  1  0  0  0  0
 14 15  1  0  0  0  0
 15 16  1  0  0  0  0
 16 17  1  0  0  0  0
 17 18  1  0  0  0  0
 18 19  2  0  0  0  0
 18 20  1  0  0  0  0
  1 21  1  0  0  0  0
  2 22  1  0  0  0  0
  3 23  1  0  0  0  0
  5 24  1  0  0  0  0
  6 25  1  0  0  0  0
  7 26  1  0  0  0  0
  7 27  1  0  0  0  0
  8 28  1  0  0  0  0
  8 29  1  0  0  0  0
  9 30  1  0  0  0  0
  9 31  1  0  0  0  0
 10 32  1  0  0  0  0
 10 33  1  0  0  0  0
 11 34  1  0  0  0  0
 11 35  1  0  0  0  0
 12 36  1  0  0  0  0
 12 37  1  0  0  0  0
 13 38  1  0  0  0  0
 13 39  1  0  0  0  0
 14 40  1  0  0  0  0
 14 41  1  0  0  0  0
 15 42  1  0  0  0  0
 15 43  1  0  0  0  0
 16 44  1  0  0  0  0
 16 45  1  0  0  0  0
 17 46  1  0  0  0  0
 17 47  1  0  0  0  0
 20 48  1  0  0  0  0
M  END
$$$$
