C18H16O7
APtclcactv06291801033D 0   0.00000     0.00000
 
 41 43  0  0  0  0  0  0  0  0999 V2000
    6.5091    1.9659   -0.0104 C   0  0  0  0  0  0  0  0  0  0  0  0
    5.1135    2.2733   -0.0061 O   0  0  0  0  0  0  0  0  0  0  0  0
    4.2515    1.2246   -0.0061 C   0  0  0  0  0  0  0  0  0  0  0  0
    4.7474   -0.0743   -0.0102 C   0  0  0  0  0  0  0  0  0  0  0  0
    3.8782   -1.1499   -0.0107 C   0  0  0  0  0  0  0  0  0  0  0  0
    2.4969   -0.9202   -0.0066 C   0  0  0  0  0  0  0  0  0  0  0  0
    1.9982    0.3941   -0.0020 C   0  0  0  0  0  0  0  0  0  0  0  0
    2.8849    1.4591    0.0037 C   0  0  0  0  0  0  0  0  0  0  0  0
    0.6648    0.6051    0.0011 O   0  0  0  0  0  0  0  0  0  0  0  0
   -0.2208   -0.4039   -0.0003 C   0  0  0  0  0  0  0  0  0  0  0  0
    0.1591   -1.7101   -0.0042 C   0  0  0  0  0  0  0  0  0  0  0  0
    1.5360   -2.0363   -0.0075 C   0  0  0  0  0  0  0  0  0  0  0  0
    1.9125   -3.1972   -0.0106 O   0  0  0  0  0  0  0  0  0  0  0  0
   -1.6607   -0.0840    0.0031 C   0  0  0  0  0  0  0  0  0  0  0  0
   -2.0817    1.2485    0.0076 C   0  0  0  0  0  0  0  0  0  0  0  0
   -3.4320    1.5454    0.0108 C   0  0  0  0  0  0  0  0  0  0  0  0
   -4.3719    0.5185    0.0095 C   0  0  0  0  0  0  0  0  0  0  0  0
   -3.9553   -0.8099    0.0055 C   0  0  0  0  0  0  0  0  0  0  0  0
   -2.6064   -1.1128   -0.0040 C   0  0  0  0  0  0  0  0  0  0  0  0
   -4.8763   -1.8107    0.0052 O   0  0  0  0  0  0  0  0  0  0  0  0
   -4.3787   -3.1502    0.0009 C   0  0  0  0  0  0  0  0  0  0  0  0
   -5.6989    0.8133    0.0127 O   0  0  0  0  0  0  0  0  0  0  0  0
   -3.8424    2.8420    0.0157 O   0  0  0  0  0  0  0  0  0  0  0  0
   -2.8243    3.8448    0.0172 C   0  0  0  0  0  0  0  0  0  0  0  0
    4.3603   -2.4185   -0.0155 O   0  0  0  0  0  0  0  0  0  0  0  0
    6.7557    1.3841    0.8777 H   0  0  0  0  0  0  0  0  0  0  0  0
    6.7510    1.3879   -0.9023 H   0  0  0  0  0  0  0  0  0  0  0  0
    7.0849    2.8914   -0.0100 H   0  0  0  0  0  0  0  0  0  0  0  0
    5.8140   -0.2437   -0.0133 H   0  0  0  0  0  0  0  0  0  0  0  0
    2.5113    2.4724    0.0073 H   0  0  0  0  0  0  0  0  0  0  0  0
   -0.5851   -2.4927   -0.0048 H   0  0  0  0  0  0  0  0  0  0  0  0
   -1.3530    2.0456    0.0090 H   0  0  0  0  0  0  0  0  0  0  0  0
   -2.2839   -2.1435   -0.0075 H   0  0  0  0  0  0  0  0  0  0  0  0
   -3.7725   -3.3098   -0.8908 H   0  0  0  0  0  0  0  0  0  0  0  0
   -3.7686   -3.3140    0.8892 H   0  0  0  0  0  0  0  0  0  0  0  0
   -5.2155   -3.8487    0.0011 H   0  0  0  0  0  0  0  0  0  0  0  0
   -6.0844    0.9012   -0.8698 H   0  0  0  0  0  0  0  0  0  0  0  0
   -2.2034    3.7308    0.9058 H   0  0  0  0  0  0  0  0  0  0  0  0
   -2.2064    3.7365   -0.8742 H   0  0  0  0  0  0  0  0  0  0  0  0
   -3.2866    4.8319    0.0211 H   0  0  0  0  0  0  0  0  0  0  0  0
    4.5025   -2.7886    0.8665 H   0  0  0  0  0  0  0  0  0  0  0  0
  1  2  1  0  0  0  0
  2  3  1  0  0  0  0
  3  4  2  0  0  0  0
  4  5  1  0  0  0  0
  5  6  2  0  0  0  0
  6  7  1  0  0  0  0
  7  8  2  0  0  0  0
  3  8  1  0  0  0  0
  7  9  1  0  0  0  0
  9 10  1  0  0  0  0
 10 11  2  0  0  0  0
 11 12  1  0  0  0  0
  6 12  1  0  0  0  0
 12 13  2  0  0  0  0
 10 14  1  0  0  0  0
 14 15  2  0  0  0  0
 15 16  1  0  0  0  0
 16 17  2  0  0  0  0
 17 18  1  0  0  0  0
 18 19  2  0  0  0  0
 14 19  1  0  0  0  0
 18 20  1  0  0  0  0
 20 21  1  0  0  0  0
 17 22  1  0  0  0  0
 16 23  1  0  0  0  0
 23 24  1  0  0  0  0
  5 25  1  0  0  0  0
  1 26  1  0  0  0  0
  1 27  1  0  0  0  0
  1 28  1  0  0  0  0
  4 29  1  0  0  0  0
  8 30  1  0  0  0  0
 11 31  1  0  0  0  0
 15 32  1  0  0  0  0
 19 33  1  0  0  0  0
 21 34  1  0  0  0  0
 21 35  1  0  0  0  0
 21 36  1  0  0  0  0
 22 37  1  0  0  0  0
 24 38  1  0  0  0  0
 24 39  1  0  0  0  0
 24 40  1  0  0  0  0
 25 41  1  0  0  0  0
M  END
$$$$
