C26H28O7
APtclcactv06291801033D 0   0.00000     0.00000
 
 61 63  0  0  0  0  0  0  0  0999 V2000
    6.4126   -0.9997   -1.5536 C   0  0  0  0  0  0  0  0  0  0  0  0
    5.4158    0.0132   -2.0549 C   0  0  0  0  0  0  0  0  0  0  0  0
    4.1317   -0.2199   -1.9416 C   0  0  0  0  0  0  0  0  0  0  0  0
    3.6499   -1.4376   -1.1958 C   0  0  0  0  0  0  0  0  0  0  0  0
    2.7304   -1.0122   -0.0802 C   0  0  0  0  0  0  0  0  0  0  0  0
    1.3701   -0.9003   -0.3106 C   0  0  0  0  0  0  0  0  0  0  0  0
    0.5160   -0.5046    0.7293 C   0  0  0  0  0  0  0  0  0  0  0  0
    1.0448   -0.2254    1.9940 C   0  0  0  0  0  0  0  0  0  0  0  0
    2.4025   -0.3403    2.2125 C   0  0  0  0  0  0  0  0  0  0  0  0
    3.2474   -0.7392    1.1768 C   0  0  0  0  0  0  0  0  0  0  0  0
    4.5830   -0.8505    1.3979 O   0  0  0  0  0  0  0  0  0  0  0  0
    5.0632   -2.1206    1.8435 C   0  0  0  0  0  0  0  0  0  0  0  0
    2.9176   -0.0685    3.4423 O   0  0  0  0  0  0  0  0  0  0  0  0
   -0.9320   -0.3831    0.4906 C   0  0  0  0  0  0  0  0  0  0  0  0
   -1.5194    0.8374    0.6327 C   0  0  0  0  0  0  0  0  0  0  0  0
   -2.9081    0.9731    0.4072 C   0  0  0  0  0  0  0  0  0  0  0  0
   -3.4671    2.0518    0.5251 O   0  0  0  0  0  0  0  0  0  0  0  0
   -3.6546   -0.2375    0.0237 C   0  0  0  0  0  0  0  0  0  0  0  0
   -5.0327   -0.1949   -0.2196 C   0  0  0  0  0  0  0  0  0  0  0  0
   -5.6973   -1.3536   -0.5779 C   0  0  0  0  0  0  0  0  0  0  0  0
   -5.0002   -2.5508   -0.6948 C   0  0  0  0  0  0  0  0  0  0  0  0
   -3.6353   -2.6000   -0.4553 C   0  0  0  0  0  0  0  0  0  0  0  0
   -2.9522   -1.4491   -0.0956 C   0  0  0  0  0  0  0  0  0  0  0  0
   -1.6224   -1.4787    0.1356 O   0  0  0  0  0  0  0  0  0  0  0  0
   -5.6623   -3.6827   -1.0462 O   0  0  0  0  0  0  0  0  0  0  0  0
   -5.7115    0.9746   -0.1041 O   0  0  0  0  0  0  0  0  0  0  0  0
   -0.6944    2.0349    1.0283 C   0  0  0  0  0  0  0  0  0  0  0  0
   -0.2786    2.7891   -0.2083 C   0  0  0  0  0  0  0  0  0  0  0  0
   -0.6203    4.0452   -0.3553 C   0  0  0  0  0  0  0  0  0  0  0  0
   -1.4116    4.7418    0.7216 C   0  0  0  0  0  0  0  0  0  0  0  0
   -0.2221    4.7936   -1.6013 C   0  0  0  0  0  0  0  0  0  0  0  0
    0.8637   -1.1724   -1.5407 O   0  0  0  0  0  0  0  0  0  0  0  0
    5.8961    1.2944   -2.6866 C   0  0  0  0  0  0  0  0  0  0  0  0
    6.2110   -1.9667   -2.0144 H   0  0  0  0  0  0  0  0  0  0  0  0
    7.4207   -0.6766   -1.8133 H   0  0  0  0  0  0  0  0  0  0  0  0
    6.3272   -1.0884   -0.4706 H   0  0  0  0  0  0  0  0  0  0  0  0
    3.4183    0.4605   -2.3826 H   0  0  0  0  0  0  0  0  0  0  0  0
    3.1117   -2.0935   -1.8801 H   0  0  0  0  0  0  0  0  0  0  0  0
    4.5047   -1.9702   -0.7789 H   0  0  0  0  0  0  0  0  0  0  0  0
    0.3916    0.0799    2.7980 H   0  0  0  0  0  0  0  0  0  0  0  0
    4.5873   -2.3773    2.7899 H   0  0  0  0  0  0  0  0  0  0  0  0
    4.8252   -2.8805    1.0992 H   0  0  0  0  0  0  0  0  0  0  0  0
    6.1434   -2.0726    1.9812 H   0  0  0  0  0  0  0  0  0  0  0  0
    2.9575   -0.8352    4.0302 H   0  0  0  0  0  0  0  0  0  0  0  0
   -6.7603   -1.3285   -0.7671 H   0  0  0  0  0  0  0  0  0  0  0  0
   -3.1043   -3.5358   -0.5488 H   0  0  0  0  0  0  0  0  0  0  0  0
   -5.6986   -3.8369   -2.0002 H   0  0  0  0  0  0  0  0  0  0  0  0
   -5.7525    1.4880   -0.9225 H   0  0  0  0  0  0  0  0  0  0  0  0
   -1.2860    2.6876    1.6703 H   0  0  0  0  0  0  0  0  0  0  0  0
    0.1931    1.7028    1.5670 H   0  0  0  0  0  0  0  0  0  0  0  0
    0.3011    2.2941   -0.9734 H   0  0  0  0  0  0  0  0  0  0  0  0
   -0.7324    5.1124    1.4893 H   0  0  0  0  0  0  0  0  0  0  0  0
   -1.9593    5.5779    0.2867 H   0  0  0  0  0  0  0  0  0  0  0  0
   -2.1154    4.0390    1.1675 H   0  0  0  0  0  0  0  0  0  0  0  0
   -0.6504    4.3003   -2.4739 H   0  0  0  0  0  0  0  0  0  0  0  0
   -0.5924    5.8172   -1.5443 H   0  0  0  0  0  0  0  0  0  0  0  0
    0.8644    4.8045   -1.6869 H   0  0  0  0  0  0  0  0  0  0  0  0
    0.6787   -2.1095   -1.6914 H   0  0  0  0  0  0  0  0  0  0  0  0
    6.0131    1.1485   -3.7604 H   0  0  0  0  0  0  0  0  0  0  0  0
    5.1677    2.0846   -2.5045 H   0  0  0  0  0  0  0  0  0  0  0  0
    6.8548    1.5768   -2.2516 H   0  0  0  0  0  0  0  0  0  0  0  0
  1  2  1  0  0  0  0
  2  3  2  0  0  0  0
  3  4  1  0  0  0  0
  4  5  1  0  0  0  0
  5  6  2  0  0  0  0
  6  7  1  0  0  0  0
  7  8  2  0  0  0  0
  8  9  1  0  0  0  0
  9 10  2  0  0  0  0
  5 10  1  0  0  0  0
 10 11  1  0  0  0  0
 11 12  1  0  0  0  0
  9 13  1  0  0  0  0
  7 14  1  0  0  0  0
 14 15  2  0  0  0  0
 15 16  1  0  0  0  0
 16 17  2  0  0  0  0
 16 18  1  0  0  0  0
 18 19  2  0  0  0  0
 19 20  1  0  0  0  0
 20 21  2  0  0  0  0
 21 22  1  0  0  0  0
 22 23  2  0  0  0  0
 18 23  1  0  0  0  0
 23 24  1  0  0  0  0
 14 24  1  0  0  0  0
 21 25  1  0  0  0  0
 19 26  1  0  0  0  0
 15 27  1  0  0  0  0
 27 28  1  0  0  0  0
 28 29  2  0  0  0  0
 29 30  1  0  0  0  0
 29 31  1  0  0  0  0
  6 32  1  0  0  0  0
  2 33  1  0  0  0  0
  1 34  1  0  0  0  0
  1 35  1  0  0  0  0
  1 36  1  0  0  0  0
  3 37  1  0  0  0  0
  4 38  1  0  0  0  0
  4 39  1  0  0  0  0
  8 40  1  0  0  0  0
 12 41  1  0  0  0  0
 12 42  1  0  0  0  0
 12 43  1  0  0  0  0
 13 44  1  0  0  0  0
 20 45  1  0  0  0  0
 22 46  1  0  0  0  0
 25 47  1  0  0  0  0
 26 48  1  0  0  0  0
 27 49  1  0  0  0  0
 27 50  1  0  0  0  0
 28 51  1  0  0  0  0
 30 52  1  0  0  0  0
 30 53  1  0  0  0  0
 30 54  1  0  0  0  0
 31 55  1  0  0  0  0
 31 56  1  0  0  0  0
 31 57  1  0  0  0  0
 32 58  1  0  0  0  0
 33 59  1  0  0  0  0
 33 60  1  0  0  0  0
 33 61  1  0  0  0  0
M  END
$$$$
