C15H10O6
APtclcactv06291801033D 0   0.00000     0.00000
 
 31 33  0  0  0  0  0  0  0  0999 V2000
   -5.4911   -0.9274   -0.0337 C   0  0  0  0  0  0  0  0  0  0  0  0
   -5.0040    0.0763   -0.8524 C   0  0  0  0  0  0  0  0  0  0  0  0
   -3.6595    0.3840   -0.8464 C   0  0  0  0  0  0  0  0  0  0  0  0
   -2.7889   -0.3202   -0.0112 C   0  0  0  0  0  0  0  0  0  0  0  0
   -3.2877   -1.3322    0.8126 C   0  0  0  0  0  0  0  0  0  0  0  0
   -4.6345   -1.6292    0.7962 C   0  0  0  0  0  0  0  0  0  0  0  0
   -1.3490    0.0030    0.0004 C   0  0  0  0  0  0  0  0  0  0  0  0
   -0.9709    1.3079    0.0907 C   0  0  0  0  0  0  0  0  0  0  0  0
    0.4110    1.6357    0.1036 C   0  0  0  0  0  0  0  0  0  0  0  0
    0.7874    2.7939    0.1838 O   0  0  0  0  0  0  0  0  0  0  0  0
    1.3712    0.5241    0.0169 C   0  0  0  0  0  0  0  0  0  0  0  0
    2.7524    0.7555    0.0235 C   0  0  0  0  0  0  0  0  0  0  0  0
    3.6240   -0.3182   -0.0593 C   0  0  0  0  0  0  0  0  0  0  0  0
    3.1262   -1.6170   -0.1484 C   0  0  0  0  0  0  0  0  0  0  0  0
    1.7603   -1.8505   -0.1556 C   0  0  0  0  0  0  0  0  0  0  0  0
    0.8731   -0.7883   -0.0730 C   0  0  0  0  0  0  0  0  0  0  0  0
   -0.4599   -1.0020   -0.0731 O   0  0  0  0  0  0  0  0  0  0  0  0
    3.9881   -2.6638   -0.2292 O   0  0  0  0  0  0  0  0  0  0  0  0
    4.9686   -0.1043   -0.0542 O   0  0  0  0  0  0  0  0  0  0  0  0
    3.2337    2.0227    0.1099 O   0  0  0  0  0  0  0  0  0  0  0  0
   -1.9094    2.2901    0.1675 O   0  0  0  0  0  0  0  0  0  0  0  0
   -6.5454   -1.1612   -0.0391 H   0  0  0  0  0  0  0  0  0  0  0  0
   -5.6782    0.6197   -1.4978 H   0  0  0  0  0  0  0  0  0  0  0  0
   -3.2807    1.1674   -1.4862 H   0  0  0  0  0  0  0  0  0  0  0  0
   -2.6202   -1.8809    1.4605 H   0  0  0  0  0  0  0  0  0  0  0  0
   -5.0215   -2.4110    1.4328 H   0  0  0  0  0  0  0  0  0  0  0  0
    1.3864   -2.8612   -0.2257 H   0  0  0  0  0  0  0  0  0  0  0  0
    4.2441   -3.0297    0.6285 H   0  0  0  0  0  0  0  0  0  0  0  0
    5.3636   -0.1052    0.8284 H   0  0  0  0  0  0  0  0  0  0  0  0
    3.3794    2.3272    1.0161 H   0  0  0  0  0  0  0  0  0  0  0  0
   -1.5411    3.1821    0.2284 H   0  0  0  0  0  0  0  0  0  0  0  0
  1  2  2  0  0  0  0
  2  3  1  0  0  0  0
  3  4  2  0  0  0  0
  4  5  1  0  0  0  0
  5  6  2  0  0  0  0
  1  6  1  0  0  0  0
  4  7  1  0  0  0  0
  7  8  2  0  0  0  0
  8  9  1  0  0  0  0
  9 10  2  0  0  0  0
  9 11  1  0  0  0  0
 11 12  2  0  0  0  0
 12 13  1  0  0  0  0
 13 14  2  0  0  0  0
 14 15  1  0  0  0  0
 15 16  2  0  0  0  0
 11 16  1  0  0  0  0
 16 17  1  0  0  0  0
  7 17  1  0  0  0  0
 14 18  1  0  0  0  0
 13 19  1  0  0  0  0
 12 20  1  0  0  0  0
  8 21  1  0  0  0  0
  1 22  1  0  0  0  0
  2 23  1  0  0  0  0
  3 24  1  0  0  0  0
  5 25  1  0  0  0  0
  6 26  1  0  0  0  0
 15 27  1  0  0  0  0
 18 28  1  0  0  0  0
 19 29  1  0  0  0  0
 20 30  1  0  0  0  0
 21 31  1  0  0  0  0
M  END
$$$$
