C16H12O8
APtclcactv06291801033D 0   0.00000     0.00000
 
 36 38  0  0  0  0  0  0  0  0999 V2000
    4.0689    3.5759   -0.3409 C   0  0  0  0  0  0  0  0  0  0  0  0
    4.5763    2.2420   -0.2672 O   0  0  0  0  0  0  0  0  0  0  0  0
    3.6648    1.2406   -0.1592 C   0  0  0  0  0  0  0  0  0  0  0  0
    4.0979   -0.0819   -0.0833 C   0  0  0  0  0  0  0  0  0  0  0  0
    3.1754   -1.1097    0.0269 C   0  0  0  0  0  0  0  0  0  0  0  0
    1.8084   -0.8081    0.0612 C   0  0  0  0  0  0  0  0  0  0  0  0
    1.3756    0.5278   -0.0157 C   0  0  0  0  0  0  0  0  0  0  0  0
    2.3133    1.5438   -0.1200 C   0  0  0  0  0  0  0  0  0  0  0  0
    0.0555    0.8089    0.0174 O   0  0  0  0  0  0  0  0  0  0  0  0
   -0.8808   -0.1494    0.1222 C   0  0  0  0  0  0  0  0  0  0  0  0
   -0.5663   -1.4729    0.2034 C   0  0  0  0  0  0  0  0  0  0  0  0
    0.7956   -1.8696    0.1769 C   0  0  0  0  0  0  0  0  0  0  0  0
    1.1149   -3.0458    0.2474 O   0  0  0  0  0  0  0  0  0  0  0  0
   -1.5507   -2.4065    0.3094 O   0  0  0  0  0  0  0  0  0  0  0  0
   -2.3011    0.2458    0.1511 C   0  0  0  0  0  0  0  0  0  0  0  0
   -3.2287   -0.4147   -0.6595 C   0  0  0  0  0  0  0  0  0  0  0  0
   -4.5585   -0.0407   -0.6282 C   0  0  0  0  0  0  0  0  0  0  0  0
   -4.9721    0.9933    0.2098 C   0  0  0  0  0  0  0  0  0  0  0  0
   -4.0512    1.6496    1.0144 C   0  0  0  0  0  0  0  0  0  0  0  0
   -2.7241    1.2779    0.9932 C   0  0  0  0  0  0  0  0  0  0  0  0
   -6.2802    1.3600    0.2388 O   0  0  0  0  0  0  0  0  0  0  0  0
   -5.4637   -0.6812   -1.4155 O   0  0  0  0  0  0  0  0  0  0  0  0
    3.5938   -2.4000    0.1007 O   0  0  0  0  0  0  0  0  0  0  0  0
    5.4294   -0.3643   -0.1180 O   0  0  0  0  0  0  0  0  0  0  0  0
    4.8997    4.2766   -0.4242 H   0  0  0  0  0  0  0  0  0  0  0  0
    3.4239    3.6715   -1.2143 H   0  0  0  0  0  0  0  0  0  0  0  0
    3.4961    3.7970    0.5597 H   0  0  0  0  0  0  0  0  0  0  0  0
    1.9895    2.5724   -0.1791 H   0  0  0  0  0  0  0  0  0  0  0  0
   -1.2263   -3.3161    0.3608 H   0  0  0  0  0  0  0  0  0  0  0  0
   -2.9068   -1.2153   -1.3089 H   0  0  0  0  0  0  0  0  0  0  0  0
   -4.3761    2.4506    1.6620 H   0  0  0  0  0  0  0  0  0  0  0  0
   -2.0097    1.7902    1.6206 H   0  0  0  0  0  0  0  0  0  0  0  0
   -6.8081    0.8826    0.8935 H   0  0  0  0  0  0  0  0  0  0  0  0
   -5.8745   -1.4501   -0.9970 H   0  0  0  0  0  0  0  0  0  0  0  0
    3.7509   -2.7115    1.0026 H   0  0  0  0  0  0  0  0  0  0  0  0
    5.8502   -0.3835    0.7525 H   0  0  0  0  0  0  0  0  0  0  0  0
  1  2  1  0  0  0  0
  2  3  1  0  0  0  0
  3  4  2  0  0  0  0
  4  5  1  0  0  0  0
  5  6  2  0  0  0  0
  6  7  1  0  0  0  0
  7  8  2  0  0  0  0
  3  8  1  0  0  0  0
  7  9  1  0  0  0  0
  9 10  1  0  0  0  0
 10 11  2  0  0  0  0
 11 12  1  0  0  0  0
  6 12  1  0  0  0  0
 12 13  2  0  0  0  0
 11 14  1  0  0  0  0
 10 15  1  0  0  0  0
 15 16  2  0  0  0  0
 16 17  1  0  0  0  0
 17 18  2  0  0  0  0
 18 19  1  0  0  0  0
 19 20  2  0  0  0  0
 15 20  1  0  0  0  0
 18 21  1  0  0  0  0
 17 22  1  0  0  0  0
  5 23  1  0  0  0  0
  4 24  1  0  0  0  0
  1 25  1  0  0  0  0
  1 26  1  0  0  0  0
  1 27  1  0  0  0  0
  8 28  1  0  0  0  0
 14 29  1  0  0  0  0
 16 30  1  0  0  0  0
 19 31  1  0  0  0  0
 20 32  1  0  0  0  0
 21 33  1  0  0  0  0
 22 34  1  0  0  0  0
 23 35  1  0  0  0  0
 24 36  1  0  0  0  0
M  END
$$$$
