C22H22O6
APtclcactv06291801033D 0   0.00000     0.00000
 
 50 52  0  0  0  0  0  0  0  0999 V2000
   -3.2388    3.9032   -0.5593 C   0  0  0  0  0  0  0  0  0  0  0  0
   -2.5035    3.4071    0.6590 C   0  0  0  0  0  0  0  0  0  0  0  0
   -1.7122    2.3671    0.5681 C   0  0  0  0  0  0  0  0  0  0  0  0
   -1.6474    1.5794   -0.7151 C   0  0  0  0  0  0  0  0  0  0  0  0
   -1.9221    0.1260   -0.4267 C   0  0  0  0  0  0  0  0  0  0  0  0
   -3.2270   -0.3410   -0.4033 C   0  0  0  0  0  0  0  0  0  0  0  0
   -3.4961   -1.6795   -0.1386 C   0  0  0  0  0  0  0  0  0  0  0  0
   -2.4594   -2.5613    0.1049 C   0  0  0  0  0  0  0  0  0  0  0  0
   -1.1386   -2.0962    0.0823 C   0  0  0  0  0  0  0  0  0  0  0  0
   -0.8693   -0.7444   -0.1906 C   0  0  0  0  0  0  0  0  0  0  0  0
    0.4074   -0.3057   -0.2105 O   0  0  0  0  0  0  0  0  0  0  0  0
    1.4489   -1.1202    0.0233 C   0  0  0  0  0  0  0  0  0  0  0  0
    1.2940   -2.4453    0.2971 C   0  0  0  0  0  0  0  0  0  0  0  0
   -0.0048   -3.0018    0.3358 C   0  0  0  0  0  0  0  0  0  0  0  0
   -0.1805   -4.1851    0.5784 O   0  0  0  0  0  0  0  0  0  0  0  0
    2.8101   -0.5597   -0.0183 C   0  0  0  0  0  0  0  0  0  0  0  0
    2.9982    0.8246   -0.1496 C   0  0  0  0  0  0  0  0  0  0  0  0
    4.2810    1.3431   -0.1880 C   0  0  0  0  0  0  0  0  0  0  0  0
    5.3754    0.4958   -0.0968 C   0  0  0  0  0  0  0  0  0  0  0  0
    5.1909   -0.8771    0.0330 C   0  0  0  0  0  0  0  0  0  0  0  0
    3.9205   -1.4043    0.0786 C   0  0  0  0  0  0  0  0  0  0  0  0
    6.6320    1.0083   -0.1348 O   0  0  0  0  0  0  0  0  0  0  0  0
    1.9263    1.6521   -0.2391 O   0  0  0  0  0  0  0  0  0  0  0  0
    2.1946    3.0495   -0.3709 C   0  0  0  0  0  0  0  0  0  0  0  0
   -2.7198   -3.8677    0.3643 O   0  0  0  0  0  0  0  0  0  0  0  0
   -4.2523    0.5166   -0.6407 O   0  0  0  0  0  0  0  0  0  0  0  0
   -5.5738   -0.0257   -0.6025 C   0  0  0  0  0  0  0  0  0  0  0  0
   -2.6786    4.1073    1.9819 C   0  0  0  0  0  0  0  0  0  0  0  0
   -4.1815    3.3651   -0.6589 H   0  0  0  0  0  0  0  0  0  0  0  0
   -3.4385    4.9696   -0.4540 H   0  0  0  0  0  0  0  0  0  0  0  0
   -2.6283    3.7338   -1.4462 H   0  0  0  0  0  0  0  0  0  0  0  0
   -1.1061    2.0742    1.4127 H   0  0  0  0  0  0  0  0  0  0  0  0
   -2.3942    1.9589   -1.4124 H   0  0  0  0  0  0  0  0  0  0  0  0
   -0.6551    1.6814   -1.1543 H   0  0  0  0  0  0  0  0  0  0  0  0
   -4.5172   -2.0309   -0.1229 H   0  0  0  0  0  0  0  0  0  0  0  0
    2.1578   -3.0674    0.4796 H   0  0  0  0  0  0  0  0  0  0  0  0
    4.4298    2.4080   -0.2893 H   0  0  0  0  0  0  0  0  0  0  0  0
    6.0476   -1.5310    0.1027 H   0  0  0  0  0  0  0  0  0  0  0  0
    3.7813   -2.4705    0.1798 H   0  0  0  0  0  0  0  0  0  0  0  0
    6.9882    1.2413    0.7335 H   0  0  0  0  0  0  0  0  0  0  0  0
    1.2535    3.5960   -0.4322 H   0  0  0  0  0  0  0  0  0  0  0  0
    2.7593    3.3943    0.4953 H   0  0  0  0  0  0  0  0  0  0  0  0
    2.7758    3.2240   -1.2764 H   0  0  0  0  0  0  0  0  0  0  0  0
   -2.7466   -4.4274   -0.4238 H   0  0  0  0  0  0  0  0  0  0  0  0
   -5.6670   -0.8089   -1.3548 H   0  0  0  0  0  0  0  0  0  0  0  0
   -5.7659   -0.4457    0.3849 H   0  0  0  0  0  0  0  0  0  0  0  0
   -6.2966    0.7637   -0.8084 H   0  0  0  0  0  0  0  0  0  0  0  0
   -3.3688    4.9425    1.8624 H   0  0  0  0  0  0  0  0  0  0  0  0
   -3.0799    3.4063    2.7138 H   0  0  0  0  0  0  0  0  0  0  0  0
   -1.7139    4.4797    2.3264 H   0  0  0  0  0  0  0  0  0  0  0  0
  1  2  1  0  0  0  0
  2  3  2  0  0  0  0
  3  4  1  0  0  0  0
  4  5  1  0  0  0  0
  5  6  2  0  0  0  0
  6  7  1  0  0  0  0
  7  8  2  0  0  0  0
  8  9  1  0  0  0  0
  9 10  2  0  0  0  0
  5 10  1  0  0  0  0
 10 11  1  0  0  0  0
 11 12  1  0  0  0  0
 12 13  2  0  0  0  0
 13 14  1  0  0  0  0
  9 14  1  0  0  0  0
 14 15  2  0  0  0  0
 12 16  1  0  0  0  0
 16 17  2  0  0  0  0
 17 18  1  0  0  0  0
 18 19  2  0  0  0  0
 19 20  1  0  0  0  0
 20 21  2  0  0  0  0
 16 21  1  0  0  0  0
 19 22  1  0  0  0  0
 17 23  1  0  0  0  0
 23 24  1  0  0  0  0
  8 25  1  0  0  0  0
  6 26  1  0  0  0  0
 26 27  1  0  0  0  0
  2 28  1  0  0  0  0
  1 29  1  0  0  0  0
  1 30  1  0  0  0  0
  1 31  1  0  0  0  0
  3 32  1  0  0  0  0
  4 33  1  0  0  0  0
  4 34  1  0  0  0  0
  7 35  1  0  0  0  0
 13 36  1  0  0  0  0
 18 37  1  0  0  0  0
 20 38  1  0  0  0  0
 21 39  1  0  0  0  0
 22 40  1  0  0  0  0
 24 41  1  0  0  0  0
 24 42  1  0  0  0  0
 24 43  1  0  0  0  0
 25 44  1  0  0  0  0
 27 45  1  0  0  0  0
 27 46  1  0  0  0  0
 27 47  1  0  0  0  0
 28 48  1  0  0  0  0
 28 49  1  0  0  0  0
 28 50  1  0  0  0  0
M  END
$$$$
