C20H20O9
APtclcactv06291801033D 0   0.00000     0.00000
 
 49 51  0  0  0  0  0  0  0  0999 V2000
    3.5536    3.6359   -0.8450 C   0  0  0  0  0  0  0  0  0  0  0  0
    4.2559    2.4685   -0.4135 O   0  0  0  0  0  0  0  0  0  0  0  0
    3.5366    1.3182   -0.3091 C   0  0  0  0  0  0  0  0  0  0  0  0
    4.1591    0.1455    0.1054 C   0  0  0  0  0  0  0  0  0  0  0  0
    3.4282   -1.0315    0.2134 C   0  0  0  0  0  0  0  0  0  0  0  0
    2.0743   -1.0383   -0.0927 C   0  0  0  0  0  0  0  0  0  0  0  0
    1.4489    0.1395   -0.5086 C   0  0  0  0  0  0  0  0  0  0  0  0
    2.1858    1.3185   -0.6101 C   0  0  0  0  0  0  0  0  0  0  0  0
    0.0025    0.1368   -0.8367 C   0  0  0  0  0  0  0  0  0  0  0  0
   -0.4498   -0.4071   -1.9958 C   0  0  0  0  0  0  0  0  0  0  0  0
   -1.7377   -0.4171   -2.3413 O   0  0  0  0  0  0  0  0  0  0  0  0
   -2.7070   -0.1799   -1.4361 C   0  0  0  0  0  0  0  0  0  0  0  0
   -4.0254   -0.5124   -1.7154 C   0  0  0  0  0  0  0  0  0  0  0  0
   -5.0201   -0.2568   -0.7859 C   0  0  0  0  0  0  0  0  0  0  0  0
   -4.7161    0.3371    0.4378 C   0  0  0  0  0  0  0  0  0  0  0  0
   -3.4055    0.6737    0.7374 C   0  0  0  0  0  0  0  0  0  0  0  0
   -2.3972    0.4082   -0.1959 C   0  0  0  0  0  0  0  0  0  0  0  0
   -0.9875    0.7198    0.0902 C   0  0  0  0  0  0  0  0  0  0  0  0
   -0.6571    1.4200    1.0322 O   0  0  0  0  0  0  0  0  0  0  0  0
   -3.1025    1.2564    1.9262 O   0  0  0  0  0  0  0  0  0  0  0  0
   -5.7061    0.5861    1.3386 O   0  0  0  0  0  0  0  0  0  0  0  0
   -5.9994   -0.4463    2.2821 C   0  0  0  0  0  0  0  0  0  0  0  0
   -6.3062   -0.5882   -1.0704 O   0  0  0  0  0  0  0  0  0  0  0  0
    1.3578   -2.1902    0.0118 O   0  0  0  0  0  0  0  0  0  0  0  0
    0.8230   -2.5071    1.2985 C   0  0  0  0  0  0  0  0  0  0  0  0
    4.0400   -2.1776    0.6188 O   0  0  0  0  0  0  0  0  0  0  0  0
    4.6093   -3.0039   -0.3986 C   0  0  0  0  0  0  0  0  0  0  0  0
    5.4865    0.1506    0.4054 O   0  0  0  0  0  0  0  0  0  0  0  0
    5.8445    0.4326    1.7598 C   0  0  0  0  0  0  0  0  0  0  0  0
    4.2420    4.4800   -0.8851 H   0  0  0  0  0  0  0  0  0  0  0  0
    3.1338    3.4619   -1.8357 H   0  0  0  0  0  0  0  0  0  0  0  0
    2.7492    3.8561   -0.1431 H   0  0  0  0  0  0  0  0  0  0  0  0
    1.7043    2.2303   -0.9314 H   0  0  0  0  0  0  0  0  0  0  0  0
    0.2673   -0.8520   -2.6697 H   0  0  0  0  0  0  0  0  0  0  0  0
   -4.2764   -0.9715   -2.6602 H   0  0  0  0  0  0  0  0  0  0  0  0
   -2.8922    0.6277    2.6301 H   0  0  0  0  0  0  0  0  0  0  0  0
   -6.8052   -0.1196    2.9394 H   0  0  0  0  0  0  0  0  0  0  0  0
   -6.3064   -1.3473    1.7511 H   0  0  0  0  0  0  0  0  0  0  0  0
   -5.1103   -0.6595    2.8755 H   0  0  0  0  0  0  0  0  0  0  0  0
   -6.5516   -1.4827   -0.7971 H   0  0  0  0  0  0  0  0  0  0  0  0
    1.6400   -2.6889    1.9968 H   0  0  0  0  0  0  0  0  0  0  0  0
    0.2182   -1.6737    1.6559 H   0  0  0  0  0  0  0  0  0  0  0  0
    0.2029   -3.4005    1.2242 H   0  0  0  0  0  0  0  0  0  0  0  0
    3.8447   -3.2533   -1.1343 H   0  0  0  0  0  0  0  0  0  0  0  0
    5.4235   -2.4691   -0.8877 H   0  0  0  0  0  0  0  0  0  0  0  0
    4.9941   -3.9197    0.0502 H   0  0  0  0  0  0  0  0  0  0  0  0
    5.4168    1.3902    2.0568 H   0  0  0  0  0  0  0  0  0  0  0  0
    5.4596   -0.3541    2.4087 H   0  0  0  0  0  0  0  0  0  0  0  0
    6.9301    0.4768    1.8470 H   0  0  0  0  0  0  0  0  0  0  0  0
  1  2  1  0  0  0  0
  2  3  1  0  0  0  0
  3  4  2  0  0  0  0
  4  5  1  0  0  0  0
  5  6  2  0  0  0  0
  6  7  1  0  0  0  0
  7  8  2  0  0  0  0
  3  8  1  0  0  0  0
  7  9  1  0  0  0  0
  9 10  2  0  0  0  0
 10 11  1  0  0  0  0
 11 12  1  0  0  0  0
 12 13  2  0  0  0  0
 13 14  1  0  0  0  0
 14 15  2  0  0  0  0
 15 16  1  0  0  0  0
 16 17  2  0  0  0  0
 12 17  1  0  0  0  0
 17 18  1  0  0  0  0
  9 18  1  0  0  0  0
 18 19  2  0  0  0  0
 16 20  1  0  0  0  0
 15 21  1  0  0  0  0
 21 22  1  0  0  0  0
 14 23  1  0  0  0  0
  6 24  1  0  0  0  0
 24 25  1  0  0  0  0
  5 26  1  0  0  0  0
 26 27  1  0  0  0  0
  4 28  1  0  0  0  0
 28 29  1  0  0  0  0
  1 30  1  0  0  0  0
  1 31  1  0  0  0  0
  1 32  1  0  0  0  0
  8 33  1  0  0  0  0
 10 34  1  0  0  0  0
 13 35  1  0  0  0  0
 20 36  1  0  0  0  0
 22 37  1  0  0  0  0
 22 38  1  0  0  0  0
 22 39  1  0  0  0  0
 23 40  1  0  0  0  0
 25 41  1  0  0  0  0
 25 42  1  0  0  0  0
 25 43  1  0  0  0  0
 27 44  1  0  0  0  0
 27 45  1  0  0  0  0
 27 46  1  0  0  0  0
 29 47  1  0  0  0  0
 29 48  1  0  0  0  0
 29 49  1  0  0  0  0
M  END
$$$$
