C33H44O2
APtclcactv06291801033D 0   0.00000     0.00000
 
 79 78  0  0  0  0  0  0  0  0999 V2000
  -12.7663   -2.8495    1.2647 C   0  0  0  0  0  0  0  0  0  0  0  0
  -13.8088   -2.0519    0.5245 C   0  0  0  0  0  0  0  0  0  0  0  0
  -13.5967   -0.7877    0.2544 C   0  0  0  0  0  0  0  0  0  0  0  0
  -12.2629   -0.1627    0.5729 C   0  0  0  0  0  0  0  0  0  0  0  0
  -11.6896    0.4863   -0.6885 C   0  0  0  0  0  0  0  0  0  0  0  0
  -10.3558    1.1113   -0.3700 C   0  0  0  0  0  0  0  0  0  0  0  0
   -9.2278    0.4297   -0.5937 C   0  0  0  0  0  0  0  0  0  0  0  0
   -7.9734    1.0175   -0.2942 C   0  0  0  0  0  0  0  0  0  0  0  0
   -6.8262    0.3243   -0.5217 C   0  0  0  0  0  0  0  0  0  0  0  0
   -5.5825    0.9071   -0.2247 C   0  0  0  0  0  0  0  0  0  0  0  0
   -4.4300    0.2107   -0.4532 C   0  0  0  0  0  0  0  0  0  0  0  0
   -3.1903    0.7916   -0.1572 C   0  0  0  0  0  0  0  0  0  0  0  0
   -2.0272    0.0889   -0.3879 C   0  0  0  0  0  0  0  0  0  0  0  0
   -0.7895    0.6689   -0.0923 C   0  0  0  0  0  0  0  0  0  0  0  0
    0.3749   -0.0347   -0.3232 C   0  0  0  0  0  0  0  0  0  0  0  0
    1.6117    0.5448   -0.0279 C   0  0  0  0  0  0  0  0  0  0  0  0
    2.7768   -0.1592   -0.2590 C   0  0  0  0  0  0  0  0  0  0  0  0
    4.0130    0.4201    0.0362 C   0  0  0  0  0  0  0  0  0  0  0  0
    5.1784   -0.2841   -0.1949 C   0  0  0  0  0  0  0  0  0  0  0  0
    5.1162   -1.6775   -0.7656 C   0  0  0  0  0  0  0  0  0  0  0  0
    6.4145    0.2951    0.1002 C   0  0  0  0  0  0  0  0  0  0  0  0
    7.5798   -0.4090   -0.1308 C   0  0  0  0  0  0  0  0  0  0  0  0
    8.8163    0.1704    0.1644 C   0  0  0  0  0  0  0  0  0  0  0  0
    9.9808   -0.5332   -0.0665 C   0  0  0  0  0  0  0  0  0  0  0  0
    9.9186   -1.9266   -0.6372 C   0  0  0  0  0  0  0  0  0  0  0  0
   11.2188    0.0468    0.2291 C   0  0  0  0  0  0  0  0  0  0  0  0
   12.3806   -0.6552   -0.0014 C   0  0  0  0  0  0  0  0  0  0  0  0
   13.6254   -0.0720    0.2959 C   0  0  0  0  0  0  0  0  0  0  0  0
   13.6756    1.0543    0.7571 O   0  0  0  0  0  0  0  0  0  0  0  0
   14.7654   -0.7608    0.0698 O   0  0  0  0  0  0  0  0  0  0  0  0
   15.9938   -0.1070    0.3949 C   0  0  0  0  0  0  0  0  0  0  0  0
   -0.7273    2.0623    0.4783 C   0  0  0  0  0  0  0  0  0  0  0  0
   -5.5203    2.3005    0.3460 C   0  0  0  0  0  0  0  0  0  0  0  0
  -10.2936    2.5047    0.2007 C   0  0  0  0  0  0  0  0  0  0  0  0
  -15.0955   -2.7085    0.0952 C   0  0  0  0  0  0  0  0  0  0  0  0
  -12.5229   -2.3485    2.2016 H   0  0  0  0  0  0  0  0  0  0  0  0
  -13.1535   -3.8464    1.4756 H   0  0  0  0  0  0  0  0  0  0  0  0
  -11.8683   -2.9306    0.6521 H   0  0  0  0  0  0  0  0  0  0  0  0
  -14.3776   -0.1934   -0.1965 H   0  0  0  0  0  0  0  0  0  0  0  0
  -12.3921    0.5957    1.3451 H   0  0  0  0  0  0  0  0  0  0  0  0
  -11.5773   -0.9314    0.9296 H   0  0  0  0  0  0  0  0  0  0  0  0
  -11.5604   -0.2720   -1.4607 H   0  0  0  0  0  0  0  0  0  0  0  0
  -12.3751    1.2550   -1.0452 H   0  0  0  0  0  0  0  0  0  0  0  0
   -9.2723   -0.5688   -1.0026 H   0  0  0  0  0  0  0  0  0  0  0  0
   -7.9288    2.0161    0.1148 H   0  0  0  0  0  0  0  0  0  0  0  0
   -6.8707   -0.6742   -0.9306 H   0  0  0  0  0  0  0  0  0  0  0  0
   -4.4745   -0.7879   -0.8622 H   0  0  0  0  0  0  0  0  0  0  0  0
   -3.1457    1.7902    0.2517 H   0  0  0  0  0  0  0  0  0  0  0  0
   -2.0718   -0.9097   -0.7968 H   0  0  0  0  0  0  0  0  0  0  0  0
    0.3304   -1.0333   -0.7322 H   0  0  0  0  0  0  0  0  0  0  0  0
    1.6562    1.5434    0.3810 H   0  0  0  0  0  0  0  0  0  0  0  0
    2.7322   -1.1578   -0.6679 H   0  0  0  0  0  0  0  0  0  0  0  0
    4.0575    1.4187    0.4452 H   0  0  0  0  0  0  0  0  0  0  0  0
    5.1467   -1.6261   -1.8539 H   0  0  0  0  0  0  0  0  0  0  0  0
    5.9668   -2.2560   -0.4052 H   0  0  0  0  0  0  0  0  0  0  0  0
    4.1901   -2.1582   -0.4504 H   0  0  0  0  0  0  0  0  0  0  0  0
    6.4590    1.2937    0.5092 H   0  0  0  0  0  0  0  0  0  0  0  0
    7.5352   -1.4076   -0.5398 H   0  0  0  0  0  0  0  0  0  0  0  0
    8.8608    1.1690    0.5734 H   0  0  0  0  0  0  0  0  0  0  0  0
    9.9492   -1.8752   -1.7255 H   0  0  0  0  0  0  0  0  0  0  0  0
   10.7692   -2.5051   -0.2768 H   0  0  0  0  0  0  0  0  0  0  0  0
    8.9925   -2.4074   -0.3220 H   0  0  0  0  0  0  0  0  0  0  0  0
   11.2633    1.0454    0.6380 H   0  0  0  0  0  0  0  0  0  0  0  0
   12.3361   -1.6538   -0.4103 H   0  0  0  0  0  0  0  0  0  0  0  0
   16.8292   -0.7684    0.1655 H   0  0  0  0  0  0  0  0  0  0  0  0
   16.0839    0.8085   -0.1897 H   0  0  0  0  0  0  0  0  0  0  0  0
   16.0051    0.1376    1.4571 H   0  0  0  0  0  0  0  0  0  0  0  0
   -0.7578    2.0109    1.5667 H   0  0  0  0  0  0  0  0  0  0  0  0
    0.1988    2.5430    0.1631 H   0  0  0  0  0  0  0  0  0  0  0  0
   -1.5779    2.6408    0.1179 H   0  0  0  0  0  0  0  0  0  0  0  0
   -5.5508    2.2491    1.4343 H   0  0  0  0  0  0  0  0  0  0  0  0
   -4.5942    2.7812    0.0308 H   0  0  0  0  0  0  0  0  0  0  0  0
   -6.3709    2.8790   -0.0145 H   0  0  0  0  0  0  0  0  0  0  0  0
  -10.3242    2.4533    1.2890 H   0  0  0  0  0  0  0  0  0  0  0  0
   -9.3676    2.9855   -0.1145 H   0  0  0  0  0  0  0  0  0  0  0  0
  -11.1443    3.0832   -0.1597 H   0  0  0  0  0  0  0  0  0  0  0  0
  -15.8386   -2.6031    0.8856 H   0  0  0  0  0  0  0  0  0  0  0  0
  -15.4616   -2.2308   -0.8136 H   0  0  0  0  0  0  0  0  0  0  0  0
  -14.9171   -3.7664   -0.0970 H   0  0  0  0  0  0  0  0  0  0  0  0
  1  2  1  0  0  0  0
  2  3  2  0  0  0  0
  3  4  1  0  0  0  0
  4  5  1  0  0  0  0
  5  6  1  0  0  0  0
  6  7  2  0  0  0  0
  7  8  1  0  0  0  0
  8  9  2  0  0  0  0
  9 10  1  0  0  0  0
 10 11  2  0  0  0  0
 11 12  1  0  0  0  0
 12 13  2  0  0  0  0
 13 14  1  0  0  0  0
 14 15  2  0  0  0  0
 15 16  1  0  0  0  0
 16 17  2  0  0  0  0
 17 18  1  0  0  0  0
 18 19  2  0  0  0  0
 19 20  1  0  0  0  0
 19 21  1  0  0  0  0
 21 22  2  0  0  0  0
 22 23  1  0  0  0  0
 23 24  2  0  0  0  0
 24 25  1  0  0  0  0
 24 26  1  0  0  0  0
 26 27  2  0  0  0  0
 27 28  1  0  0  0  0
 28 29  2  0  0  0  0
 28 30  1  0  0  0  0
 30 31  1  0  0  0  0
 14 32  1  0  0  0  0
 10 33  1  0  0  0  0
  6 34  1  0  0  0  0
  2 35  1  0  0  0  0
  1 36  1  0  0  0  0
  1 37  1  0  0  0  0
  1 38  1  0  0  0  0
  3 39  1  0  0  0  0
  4 40  1  0  0  0  0
  4 41  1  0  0  0  0
  5 42  1  0  0  0  0
  5 43  1  0  0  0  0
  7 44  1  0  0  0  0
  8 45  1  0  0  0  0
  9 46  1  0  0  0  0
 11 47  1  0  0  0  0
 12 48  1  0  0  0  0
 13 49  1  0  0  0  0
 15 50  1  0  0  0  0
 16 51  1  0  0  0  0
 17 52  1  0  0  0  0
 18 53  1  0  0  0  0
 20 54  1  0  0  0  0
 20 55  1  0  0  0  0
 20 56  1  0  0  0  0
 21 57  1  0  0  0  0
 22 58  1  0  0  0  0
 23 59  1  0  0  0  0
 25 60  1  0  0  0  0
 25 61  1  0  0  0  0
 25 62  1  0  0  0  0
 26 63  1  0  0  0  0
 27 64  1  0  0  0  0
 31 65  1  0  0  0  0
 31 66  1  0  0  0  0
 31 67  1  0  0  0  0
 32 68  1  0  0  0  0
 32 69  1  0  0  0  0
 32 70  1  0  0  0  0
 33 71  1  0  0  0  0
 33 72  1  0  0  0  0
 33 73  1  0  0  0  0
 34 74  1  0  0  0  0
 34 75  1  0  0  0  0
 34 76  1  0  0  0  0
 35 77  1  0  0  0  0
 35 78  1  0  0  0  0
 35 79  1  0  0  0  0
M  END
$$$$
