C17H14O7
APtclcactv06291801033D 0   0.00000     0.00000
 
 38 40  0  0  0  0  0  0  0  0999 V2000
   -5.2826   -0.5480    1.1053 C   0  0  0  0  0  0  0  0  0  0  0  0
   -4.6099   -0.3707   -0.1429 O   0  0  0  0  0  0  0  0  0  0  0  0
   -3.2749   -0.1081   -0.0937 C   0  0  0  0  0  0  0  0  0  0  0  0
   -2.3643   -1.1517   -0.1104 C   0  0  0  0  0  0  0  0  0  0  0  0
   -0.9928   -0.8727   -0.0594 C   0  0  0  0  0  0  0  0  0  0  0  0
   -0.5424    0.4577    0.0082 C   0  0  0  0  0  0  0  0  0  0  0  0
   -1.4696    1.4932    0.0236 C   0  0  0  0  0  0  0  0  0  0  0  0
   -2.8273    1.2102   -0.0324 C   0  0  0  0  0  0  0  0  0  0  0  0
   -3.7287    2.2277   -0.0174 O   0  0  0  0  0  0  0  0  0  0  0  0
   -1.0458    2.7855    0.0893 O   0  0  0  0  0  0  0  0  0  0  0  0
   -0.8065    3.4536   -1.1510 C   0  0  0  0  0  0  0  0  0  0  0  0
    0.7823    0.7170    0.0578 O   0  0  0  0  0  0  0  0  0  0  0  0
    1.7063   -0.2584    0.0454 C   0  0  0  0  0  0  0  0  0  0  0  0
    1.3751   -1.5777   -0.0182 C   0  0  0  0  0  0  0  0  0  0  0  0
    0.0065   -1.9528   -0.0745 C   0  0  0  0  0  0  0  0  0  0  0  0
   -0.3278   -3.1252   -0.1322 O   0  0  0  0  0  0  0  0  0  0  0  0
    2.3478   -2.5291   -0.0288 O   0  0  0  0  0  0  0  0  0  0  0  0
    3.1333    0.1140    0.1023 C   0  0  0  0  0  0  0  0  0  0  0  0
    4.0448   -0.4619   -0.7859 C   0  0  0  0  0  0  0  0  0  0  0  0
    5.3769   -0.1092   -0.7269 C   0  0  0  0  0  0  0  0  0  0  0  0
    5.8112    0.8124    0.2095 C   0  0  0  0  0  0  0  0  0  0  0  0
    4.9139    1.3869    1.0924 C   0  0  0  0  0  0  0  0  0  0  0  0
    3.5778    1.0483    1.0409 C   0  0  0  0  0  0  0  0  0  0  0  0
   -2.7988   -2.4379   -0.1753 O   0  0  0  0  0  0  0  0  0  0  0  0
   -5.1842    0.3581    1.7031 H   0  0  0  0  0  0  0  0  0  0  0  0
   -6.3381   -0.7505    0.9236 H   0  0  0  0  0  0  0  0  0  0  0  0
   -4.8387   -1.3869    1.6413 H   0  0  0  0  0  0  0  0  0  0  0  0
   -3.9611    2.5603   -0.8952 H   0  0  0  0  0  0  0  0  0  0  0  0
   -1.7266    3.4765   -1.7348 H   0  0  0  0  0  0  0  0  0  0  0  0
   -0.4743    4.4733   -0.9562 H   0  0  0  0  0  0  0  0  0  0  0  0
   -0.0359    2.9206   -1.7080 H   0  0  0  0  0  0  0  0  0  0  0  0
    2.0118   -3.4346   -0.0756 H   0  0  0  0  0  0  0  0  0  0  0  0
    3.7073   -1.1819   -1.5168 H   0  0  0  0  0  0  0  0  0  0  0  0
    6.0827   -0.5536   -1.4130 H   0  0  0  0  0  0  0  0  0  0  0  0
    6.8556    1.0844    0.2516 H   0  0  0  0  0  0  0  0  0  0  0  0
    5.2598    2.1052    1.8209 H   0  0  0  0  0  0  0  0  0  0  0  0
    2.8785    1.4975    1.7305 H   0  0  0  0  0  0  0  0  0  0  0  0
   -2.8995   -2.7741   -1.0764 H   0  0  0  0  0  0  0  0  0  0  0  0
  1  2  1  0  0  0  0
  2  3  1  0  0  0  0
  3  4  2  0  0  0  0
  4  5  1  0  0  0  0
  5  6  2  0  0  0  0
  6  7  1  0  0  0  0
  7  8  2  0  0  0  0
  3  8  1  0  0  0  0
  8  9  1  0  0  0  0
  7 10  1  0  0  0  0
 10 11  1  0  0  0  0
  6 12  1  0  0  0  0
 12 13  1  0  0  0  0
 13 14  2  0  0  0  0
 14 15  1  0  0  0  0
  5 15  1  0  0  0  0
 15 16  2  0  0  0  0
 14 17  1  0  0  0  0
 13 18  1  0  0  0  0
 18 19  2  0  0  0  0
 19 20  1  0  0  0  0
 20 21  2  0  0  0  0
 21 22  1  0  0  0  0
 22 23  2  0  0  0  0
 18 23  1  0  0  0  0
  4 24  1  0  0  0  0
  1 25  1  0  0  0  0
  1 26  1  0  0  0  0
  1 27  1  0  0  0  0
  9 28  1  0  0  0  0
 11 29  1  0  0  0  0
 11 30  1  0  0  0  0
 11 31  1  0  0  0  0
 17 32  1  0  0  0  0
 19 33  1  0  0  0  0
 20 34  1  0  0  0  0
 21 35  1  0  0  0  0
 22 36  1  0  0  0  0
 23 37  1  0  0  0  0
 24 38  1  0  0  0  0
M  END
$$$$
