C19H22O4
APtclcactv06291801033D 0   0.00000     0.00000
 
 45 46  0  0  0  0  0  0  0  0999 V2000
   -4.4728   -2.2955    0.4370 C   0  0  0  0  0  0  0  0  0  0  0  0
   -4.5104   -1.0595   -0.4243 C   0  0  0  0  0  0  0  0  0  0  0  0
   -3.7844   -0.0167   -0.1057 C   0  0  0  0  0  0  0  0  0  0  0  0
   -2.8200   -0.0947    1.0497 C   0  0  0  0  0  0  0  0  0  0  0  0
   -1.4224    0.1793    0.5568 C   0  0  0  0  0  0  0  0  0  0  0  0
   -0.9387    1.4741    0.5402 C   0  0  0  0  0  0  0  0  0  0  0  0
    0.3619    1.7179    0.0805 C   0  0  0  0  0  0  0  0  0  0  0  0
    1.1686    0.6539   -0.3602 C   0  0  0  0  0  0  0  0  0  0  0  0
    0.6656   -0.6377   -0.3354 C   0  0  0  0  0  0  0  0  0  0  0  0
   -0.6205   -0.8722    0.1252 C   0  0  0  0  0  0  0  0  0  0  0  0
   -1.1058   -2.1398    0.1464 O   0  0  0  0  0  0  0  0  0  0  0  0
    1.5190   -1.7877   -0.8048 C   0  0  0  0  0  0  0  0  0  0  0  0
    2.3019   -2.3398    0.3585 C   0  0  0  0  0  0  0  0  0  0  0  0
    3.6089   -2.4049    0.2965 C   0  0  0  0  0  0  0  0  0  0  0  0
    4.3204   -2.0608   -0.9866 C   0  0  0  0  0  0  0  0  0  0  0  0
    4.4008   -2.8240    1.5082 C   0  0  0  0  0  0  0  0  0  0  0  0
    2.4192    0.9026   -0.8013 O   0  0  0  0  0  0  0  0  0  0  0  0
    2.9334    2.1372   -0.8381 C   0  0  0  0  0  0  0  0  0  0  0  0
    2.2491    3.2236   -0.4408 C   0  0  0  0  0  0  0  0  0  0  0  0
    0.9204    3.0788    0.0436 C   0  0  0  0  0  0  0  0  0  0  0  0
    0.2703    4.0424    0.4127 O   0  0  0  0  0  0  0  0  0  0  0  0
   -1.7177    2.5008    0.9652 O   0  0  0  0  0  0  0  0  0  0  0  0
   -5.3833   -1.0231   -1.6523 C   0  0  0  0  0  0  0  0  0  0  0  0
   -4.7126   -2.0285    1.4663 H   0  0  0  0  0  0  0  0  0  0  0  0
   -5.2025   -3.0169    0.0694 H   0  0  0  0  0  0  0  0  0  0  0  0
   -3.4761   -2.7350    0.3985 H   0  0  0  0  0  0  0  0  0  0  0  0
   -3.8770    0.8989   -0.6710 H   0  0  0  0  0  0  0  0  0  0  0  0
   -3.0922    0.6468    1.8009 H   0  0  0  0  0  0  0  0  0  0  0  0
   -2.8610   -1.0906    1.4907 H   0  0  0  0  0  0  0  0  0  0  0  0
   -0.9337   -2.6131    0.9719 H   0  0  0  0  0  0  0  0  0  0  0  0
    0.8807   -2.5693   -1.2168 H   0  0  0  0  0  0  0  0  0  0  0  0
    2.2082   -1.4385   -1.5736 H   0  0  0  0  0  0  0  0  0  0  0  0
    1.7856   -2.6816    1.2434 H   0  0  0  0  0  0  0  0  0  0  0  0
    4.4651   -0.9820   -1.0438 H   0  0  0  0  0  0  0  0  0  0  0  0
    5.2895   -2.5592   -1.0096 H   0  0  0  0  0  0  0  0  0  0  0  0
    3.7212   -2.3925   -1.8346 H   0  0  0  0  0  0  0  0  0  0  0  0
    4.5286   -3.9065    1.5022 H   0  0  0  0  0  0  0  0  0  0  0  0
    5.3785   -2.3426    1.4876 H   0  0  0  0  0  0  0  0  0  0  0  0
    3.8680   -2.5261    2.4113 H   0  0  0  0  0  0  0  0  0  0  0  0
    3.9418    2.2663   -1.2025 H   0  0  0  0  0  0  0  0  0  0  0  0
    2.7062    4.2009   -0.4889 H   0  0  0  0  0  0  0  0  0  0  0  0
   -1.6341    2.6933    1.9091 H   0  0  0  0  0  0  0  0  0  0  0  0
   -6.3704   -0.6456   -1.3854 H   0  0  0  0  0  0  0  0  0  0  0  0
   -4.9334   -0.3682   -2.3985 H   0  0  0  0  0  0  0  0  0  0  0  0
   -5.4774   -2.0291   -2.0611 H   0  0  0  0  0  0  0  0  0  0  0  0
  1  2  1  0  0  0  0
  2  3  2  0  0  0  0
  3  4  1  0  0  0  0
  4  5  1  0  0  0  0
  5  6  2  0  0  0  0
  6  7  1  0  0  0  0
  7  8  2  0  0  0  0
  8  9  1  0  0  0  0
  9 10  2  0  0  0  0
  5 10  1  0  0  0  0
 10 11  1  0  0  0  0
  9 12  1  0  0  0  0
 12 13  1  0  0  0  0
 13 14  2  0  0  0  0
 14 15  1  0  0  0  0
 14 16  1  0  0  0  0
  8 17  1  0  0  0  0
 17 18  1  0  0  0  0
 18 19  2  0  0  0  0
 19 20  1  0  0  0  0
  7 20  1  0  0  0  0
 20 21  2  0  0  0  0
  6 22  1  0  0  0  0
  2 23  1  0  0  0  0
  1 24  1  0  0  0  0
  1 25  1  0  0  0  0
  1 26  1  0  0  0  0
  3 27  1  0  0  0  0
  4 28  1  0  0  0  0
  4 29  1  0  0  0  0
 11 30  1  0  0  0  0
 12 31  1  0  0  0  0
 12 32  1  0  0  0  0
 13 33  1  0  0  0  0
 15 34  1  0  0  0  0
 15 35  1  0  0  0  0
 15 36  1  0  0  0  0
 16 37  1  0  0  0  0
 16 38  1  0  0  0  0
 16 39  1  0  0  0  0
 18 40  1  0  0  0  0
 19 41  1  0  0  0  0
 22 42  1  0  0  0  0
 23 43  1  0  0  0  0
 23 44  1  0  0  0  0
 23 45  1  0  0  0  0
M  END
$$$$
