C18H16O6
APtclcactv06291801033D 0   0.00000     0.00000
 
 40 42  0  0  0  0  0  0  0  0999 V2000
    4.7407   -2.1718    0.2144 C   0  0  0  0  0  0  0  0  0  0  0  0
    3.5380   -2.3465   -0.6768 C   0  0  0  0  0  0  0  0  0  0  0  0
    2.3903   -1.8122   -0.3404 C   0  0  0  0  0  0  0  0  0  0  0  0
    2.2993   -0.9255    0.8747 C   0  0  0  0  0  0  0  0  0  0  0  0
    1.6930    0.3984    0.4863 C   0  0  0  0  0  0  0  0  0  0  0  0
    0.3069    0.5431    0.4206 C   0  0  0  0  0  0  0  0  0  0  0  0
   -0.2679    1.7753    0.0682 C   0  0  0  0  0  0  0  0  0  0  0  0
    0.5640    2.8482   -0.2269 C   0  0  0  0  0  0  0  0  0  0  0  0
    1.9383    2.6995   -0.1654 C   0  0  0  0  0  0  0  0  0  0  0  0
    2.5055    1.4762    0.1990 C   0  0  0  0  0  0  0  0  0  0  0  0
    3.8581    1.3443    0.2600 O   0  0  0  0  0  0  0  0  0  0  0  0
    2.7428    3.7539   -0.4571 O   0  0  0  0  0  0  0  0  0  0  0  0
   -1.6073    1.9299    0.0194 O   0  0  0  0  0  0  0  0  0  0  0  0
   -2.4442    0.8734   -0.0207 C   0  0  0  0  0  0  0  0  0  0  0  0
   -3.7643    1.0500   -0.4098 C   0  0  0  0  0  0  0  0  0  0  0  0
   -4.6324   -0.0307   -0.4442 C   0  0  0  0  0  0  0  0  0  0  0  0
   -4.1982   -1.3026   -0.0895 C   0  0  0  0  0  0  0  0  0  0  0  0
   -2.8855   -1.5020    0.2987 C   0  0  0  0  0  0  0  0  0  0  0  0
   -2.0021   -0.4156    0.3265 C   0  0  0  0  0  0  0  0  0  0  0  0
   -0.5904   -0.5943    0.7110 C   0  0  0  0  0  0  0  0  0  0  0  0
   -0.1880   -1.6175    1.2352 O   0  0  0  0  0  0  0  0  0  0  0  0
   -2.4572   -2.7404    0.6502 O   0  0  0  0  0  0  0  0  0  0  0  0
   -5.9208    0.1557   -0.8283 O   0  0  0  0  0  0  0  0  0  0  0  0
    3.6558   -3.1360   -1.9551 C   0  0  0  0  0  0  0  0  0  0  0  0
    4.5000   -2.5147    1.2207 H   0  0  0  0  0  0  0  0  0  0  0  0
    5.5725   -2.7559   -0.1793 H   0  0  0  0  0  0  0  0  0  0  0  0
    5.0192   -1.1185    0.2463 H   0  0  0  0  0  0  0  0  0  0  0  0
    1.5092   -2.0071   -0.9338 H   0  0  0  0  0  0  0  0  0  0  0  0
    1.6738   -1.4045    1.6280 H   0  0  0  0  0  0  0  0  0  0  0  0
    3.2975   -0.7627    1.2813 H   0  0  0  0  0  0  0  0  0  0  0  0
    0.1371    3.8004   -0.5052 H   0  0  0  0  0  0  0  0  0  0  0  0
    4.2349    1.5522    1.1260 H   0  0  0  0  0  0  0  0  0  0  0  0
    2.9643    4.3030    0.3075 H   0  0  0  0  0  0  0  0  0  0  0  0
   -4.1170    2.0326   -0.6864 H   0  0  0  0  0  0  0  0  0  0  0  0
   -4.8857   -2.1351   -0.1166 H   0  0  0  0  0  0  0  0  0  0  0  0
   -2.1093   -3.2603   -0.0873 H   0  0  0  0  0  0  0  0  0  0  0  0
   -6.0665    0.0536   -1.7788 H   0  0  0  0  0  0  0  0  0  0  0  0
    3.4333   -4.1844   -1.7565 H   0  0  0  0  0  0  0  0  0  0  0  0
    2.9494   -2.7473   -2.6886 H   0  0  0  0  0  0  0  0  0  0  0  0
    4.6699   -3.0473   -2.3448 H   0  0  0  0  0  0  0  0  0  0  0  0
  1  2  1  0  0  0  0
  2  3  2  0  0  0  0
  3  4  1  0  0  0  0
  4  5  1  0  0  0  0
  5  6  2  0  0  0  0
  6  7  1  0  0  0  0
  7  8  2  0  0  0  0
  8  9  1  0  0  0  0
  9 10  2  0  0  0  0
  5 10  1  0  0  0  0
 10 11  1  0  0  0  0
  9 12  1  0  0  0  0
  7 13  1  0  0  0  0
 13 14  1  0  0  0  0
 14 15  2  0  0  0  0
 15 16  1  0  0  0  0
 16 17  2  0  0  0  0
 17 18  1  0  0  0  0
 18 19  2  0  0  0  0
 14 19  1  0  0  0  0
 19 20  1  0  0  0  0
  6 20  1  0  0  0  0
 20 21  2  0  0  0  0
 18 22  1  0  0  0  0
 16 23  1  0  0  0  0
  2 24  1  0  0  0  0
  1 25  1  0  0  0  0
  1 26  1  0  0  0  0
  1 27  1  0  0  0  0
  3 28  1  0  0  0  0
  4 29  1  0  0  0  0
  4 30  1  0  0  0  0
  8 31  1  0  0  0  0
 11 32  1  0  0  0  0
 12 33  1  0  0  0  0
 15 34  1  0  0  0  0
 17 35  1  0  0  0  0
 22 36  1  0  0  0  0
 23 37  1  0  0  0  0
 24 38  1  0  0  0  0
 24 39  1  0  0  0  0
 24 40  1  0  0  0  0
M  END
$$$$
