C19H18O6
APtclcactv06211806403D 0   0.00000     0.00000
 
 43 45  0  0  0  0  0  0  0  0999 V2000
   -7.0797   -0.9818   -0.1311 C   0  0  0  0  0  0  0  0  0  0  0  0
   -6.2756    0.1959   -0.0385 O   0  0  0  0  0  0  0  0  0  0  0  0
   -4.9290    0.0236   -0.0295 C   0  0  0  0  0  0  0  0  0  0  0  0
   -4.0922    1.1264    0.0585 C   0  0  0  0  0  0  0  0  0  0  0  0
   -2.7188    0.9550    0.0684 C   0  0  0  0  0  0  0  0  0  0  0  0
   -2.1775   -0.3372   -0.0110 C   0  0  0  0  0  0  0  0  0  0  0  0
   -3.0303   -1.4420   -0.0994 C   0  0  0  0  0  0  0  0  0  0  0  0
   -4.3942   -1.2588   -0.1030 C   0  0  0  0  0  0  0  0  0  0  0  0
   -0.7174   -0.5290   -0.0017 C   0  0  0  0  0  0  0  0  0  0  0  0
   -0.2235   -1.7972    0.0472 C   0  0  0  0  0  0  0  0  0  0  0  0
    1.1752   -2.0006    0.0564 C   0  0  0  0  0  0  0  0  0  0  0  0
    1.6523   -3.1233    0.0993 O   0  0  0  0  0  0  0  0  0  0  0  0
    2.0349   -0.8053    0.0116 C   0  0  0  0  0  0  0  0  0  0  0  0
    3.4308   -0.9134    0.0166 C   0  0  0  0  0  0  0  0  0  0  0  0
    4.2029    0.2332   -0.0268 C   0  0  0  0  0  0  0  0  0  0  0  0
    3.5955    1.4828   -0.0745 C   0  0  0  0  0  0  0  0  0  0  0  0
    2.2136    1.5970   -0.0798 C   0  0  0  0  0  0  0  0  0  0  0  0
    1.4234    0.4593   -0.0372 C   0  0  0  0  0  0  0  0  0  0  0  0
    0.0766    0.5529   -0.0472 O   0  0  0  0  0  0  0  0  0  0  0  0
    4.3627    2.6021   -0.1160 O   0  0  0  0  0  0  0  0  0  0  0  0
    5.7797    2.4180   -0.1076 C   0  0  0  0  0  0  0  0  0  0  0  0
    4.0218   -2.1341    0.0642 O   0  0  0  0  0  0  0  0  0  0  0  0
    5.4505   -2.1636    0.0661 C   0  0  0  0  0  0  0  0  0  0  0  0
   -1.8987    2.0328    0.1540 O   0  0  0  0  0  0  0  0  0  0  0  0
   -2.5208    3.3170    0.2311 C   0  0  0  0  0  0  0  0  0  0  0  0
   -6.8731   -1.6307    0.7199 H   0  0  0  0  0  0  0  0  0  0  0  0
   -8.1335   -0.7034   -0.1283 H   0  0  0  0  0  0  0  0  0  0  0  0
   -6.8458   -1.5096   -1.0557 H   0  0  0  0  0  0  0  0  0  0  0  0
   -4.5126    2.1193    0.1191 H   0  0  0  0  0  0  0  0  0  0  0  0
   -2.6189   -2.4387   -0.1611 H   0  0  0  0  0  0  0  0  0  0  0  0
   -5.0516   -2.1128   -0.1713 H   0  0  0  0  0  0  0  0  0  0  0  0
   -0.8960   -2.6417    0.0791 H   0  0  0  0  0  0  0  0  0  0  0  0
    5.2803    0.1577   -0.0233 H   0  0  0  0  0  0  0  0  0  0  0  0
    1.7528    2.5730   -0.1170 H   0  0  0  0  0  0  0  0  0  0  0  0
    6.2726    3.3895   -0.1438 H   0  0  0  0  0  0  0  0  0  0  0  0
    6.0729    1.8955    0.8030 H   0  0  0  0  0  0  0  0  0  0  0  0
    6.0746    1.8284   -0.9757 H   0  0  0  0  0  0  0  0  0  0  0  0
    5.7925   -3.1978    0.1063 H   0  0  0  0  0  0  0  0  0  0  0  0
    5.8249   -1.6922   -0.8425 H   0  0  0  0  0  0  0  0  0  0  0  0
    5.8238   -1.6234    0.9361 H   0  0  0  0  0  0  0  0  0  0  0  0
   -3.1554    3.3607    1.1163 H   0  0  0  0  0  0  0  0  0  0  0  0
   -1.7540    4.0889    0.2953 H   0  0  0  0  0  0  0  0  0  0  0  0
   -3.1277    3.4807   -0.6594 H   0  0  0  0  0  0  0  0  0  0  0  0
  1  2  1  0  0  0  0
  2  3  1  0  0  0  0
  3  4  2  0  0  0  0
  4  5  1  0  0  0  0
  5  6  2  0  0  0  0
  6  7  1  0  0  0  0
  7  8  2  0  0  0  0
  3  8  1  0  0  0  0
  6  9  1  0  0  0  0
  9 10  2  0  0  0  0
 10 11  1  0  0  0  0
 11 12  2  0  0  0  0
 11 13  1  0  0  0  0
 13 14  2  0  0  0  0
 14 15  1  0  0  0  0
 15 16  2  0  0  0  0
 16 17  1  0  0  0  0
 17 18  2  0  0  0  0
 13 18  1  0  0  0  0
 18 19  1  0  0  0  0
  9 19  1  0  0  0  0
 16 20  1  0  0  0  0
 20 21  1  0  0  0  0
 14 22  1  0  0  0  0
 22 23  1  0  0  0  0
  5 24  1  0  0  0  0
 24 25  1  0  0  0  0
  1 26  1  0  0  0  0
  1 27  1  0  0  0  0
  1 28  1  0  0  0  0
  4 29  1  0  0  0  0
  7 30  1  0  0  0  0
  8 31  1  0  0  0  0
 10 32  1  0  0  0  0
 15 33  1  0  0  0  0
 17 34  1  0  0  0  0
 21 35  1  0  0  0  0
 21 36  1  0  0  0  0
 21 37  1  0  0  0  0
 23 38  1  0  0  0  0
 23 39  1  0  0  0  0
 23 40  1  0  0  0  0
 25 41  1  0  0  0  0
 25 42  1  0  0  0  0
 25 43  1  0  0  0  0
M  END
$$$$
