C21H18O7
APtclcactv06291801043D 0   0.00000     0.00000
 
 46 50  0  0  0  0  0  0  0  0999 V2000
   -3.7430    2.1707    1.3264 C   0  0  0  0  0  0  0  0  0  0  0  0
   -3.7406    1.7681   -0.1497 C   0  0  0  0  0  0  0  0  0  0  0  0
   -2.3339    1.3148   -0.5902 C   0  0  0  0  0  0  0  0  0  0  0  0
   -1.2173    1.8546    0.2992 C   0  0  0  0  0  0  0  0  0  0  0  0
    0.0142    0.9845    0.1795 C   0  0  0  0  0  0  0  0  0  0  0  0
   -0.0400   -0.3794    0.0605 C   0  0  0  0  0  0  0  0  0  0  0  0
   -1.3647   -1.0129   -0.0074 C   0  0  0  0  0  0  0  0  0  0  0  0
   -2.4336   -0.1593   -0.2796 C   0  0  0  0  0  0  0  0  0  0  0  0
   -3.7636   -0.5187   -0.2261 C   0  0  0  0  0  0  0  0  0  0  0  0
   -4.0709   -1.8699   -0.0025 C   0  0  0  0  0  0  0  0  0  0  0  0
   -3.0094   -2.7558    0.1788 C   0  0  0  0  0  0  0  0  0  0  0  0
   -1.6775   -2.3570    0.1880 C   0  0  0  0  0  0  0  0  0  0  0  0
   -0.6906   -3.2684    0.3856 O   0  0  0  0  0  0  0  0  0  0  0  0
   -5.3587   -2.3001    0.0355 O   0  0  0  0  0  0  0  0  0  0  0  0
   -4.5422    0.5759   -0.3590 O   0  0  0  0  0  0  0  0  0  0  0  0
    1.0601   -1.1457    0.0071 O   0  0  0  0  0  0  0  0  0  0  0  0
    2.2991   -0.6200   -0.0098 C   0  0  0  0  0  0  0  0  0  0  0  0
    3.4131   -1.4395   -0.1156 C   0  0  0  0  0  0  0  0  0  0  0  0
    4.6842   -0.8865   -0.1297 C   0  0  0  0  0  0  0  0  0  0  0  0
    4.8597    0.4896   -0.0373 C   0  0  0  0  0  0  0  0  0  0  0  0
    3.7613    1.3232    0.0694 C   0  0  0  0  0  0  0  0  0  0  0  0
    2.4747    0.7710    0.0811 C   0  0  0  0  0  0  0  0  0  0  0  0
    1.2790    1.6214    0.1898 C   0  0  0  0  0  0  0  0  0  0  0  0
    1.3740    2.8346    0.2859 O   0  0  0  0  0  0  0  0  0  0  0  0
    3.9293    2.6667    0.1616 O   0  0  0  0  0  0  0  0  0  0  0  0
    5.7684   -1.6967   -0.2345 O   0  0  0  0  0  0  0  0  0  0  0  0
    7.0508   -1.0664   -0.2436 C   0  0  0  0  0  0  0  0  0  0  0  0
   -4.2375    2.9208   -1.0246 C   0  0  0  0  0  0  0  0  0  0  0  0
   -3.0443    2.9931    1.4798 H   0  0  0  0  0  0  0  0  0  0  0  0
   -4.7454    2.4868    1.6152 H   0  0  0  0  0  0  0  0  0  0  0  0
   -3.4410    1.3189    1.9358 H   0  0  0  0  0  0  0  0  0  0  0  0
   -2.1489    1.5160   -1.6454 H   0  0  0  0  0  0  0  0  0  0  0  0
   -0.9719    2.8716   -0.0068 H   0  0  0  0  0  0  0  0  0  0  0  0
   -1.5539    1.8633    1.3359 H   0  0  0  0  0  0  0  0  0  0  0  0
   -3.2328   -3.8031    0.3190 H   0  0  0  0  0  0  0  0  0  0  0  0
   -0.3575   -3.6701   -0.4285 H   0  0  0  0  0  0  0  0  0  0  0  0
   -5.7074   -2.5742   -0.8238 H   0  0  0  0  0  0  0  0  0  0  0  0
    3.2901   -2.5100   -0.1874 H   0  0  0  0  0  0  0  0  0  0  0  0
    5.8553    0.9082   -0.0484 H   0  0  0  0  0  0  0  0  0  0  0  0
    3.9419    3.1211   -0.6919 H   0  0  0  0  0  0  0  0  0  0  0  0
    7.1135   -0.3823   -1.0899 H   0  0  0  0  0  0  0  0  0  0  0  0
    7.1891   -0.5106    0.6838 H   0  0  0  0  0  0  0  0  0  0  0  0
    7.8281   -1.8254   -0.3316 H   0  0  0  0  0  0  0  0  0  0  0  0
   -3.5777    3.7798   -0.9030 H   0  0  0  0  0  0  0  0  0  0  0  0
   -4.2397    2.6092   -2.0691 H   0  0  0  0  0  0  0  0  0  0  0  0
   -5.2492    3.1944   -0.7249 H   0  0  0  0  0  0  0  0  0  0  0  0
  1  2  1  0  0  0  0
  2  3  1  0  0  0  0
  3  4  1  0  0  0  0
  4  5  1  0  0  0  0
  5  6  2  0  0  0  0
  6  7  1  0  0  0  0
  7  8  2  0  0  0  0
  3  8  1  0  0  0  0
  8  9  1  0  0  0  0
  9 10  2  0  0  0  0
 10 11  1  0  0  0  0
 11 12  2  0  0  0  0
  7 12  1  0  0  0  0
 12 13  1  0  0  0  0
 10 14  1  0  0  0  0
  9 15  1  0  0  0  0
  2 15  1  0  0  0  0
  6 16  1  0  0  0  0
 16 17  1  0  0  0  0
 17 18  2  0  0  0  0
 18 19  1  0  0  0  0
 19 20  2  0  0  0  0
 20 21  1  0  0  0  0
 21 22  2  0  0  0  0
 17 22  1  0  0  0  0
 22 23  1  0  0  0  0
  5 23  1  0  0  0  0
 23 24  2  0  0  0  0
 21 25  1  0  0  0  0
 19 26  1  0  0  0  0
 26 27  1  0  0  0  0
  2 28  1  0  0  0  0
  1 29  1  0  0  0  0
  1 30  1  0  0  0  0
  1 31  1  0  0  0  0
  3 32  1  0  0  0  0
  4 33  1  0  0  0  0
  4 34  1  0  0  0  0
 11 35  1  0  0  0  0
 13 36  1  0  0  0  0
 14 37  1  0  0  0  0
 18 38  1  0  0  0  0
 20 39  1  0  0  0  0
 25 40  1  0  0  0  0
 27 41  1  0  0  0  0
 27 42  1  0  0  0  0
 27 43  1  0  0  0  0
 28 44  1  0  0  0  0
 28 45  1  0  0  0  0
 28 46  1  0  0  0  0
M  END
$$$$
