C14H10O6
APtclcactv06291801043D 0   0.00000     0.00000
 
 30 32  0  0  0  0  0  0  0  0999 V2000
    4.6795    2.2617   -0.1196 C   0  0  0  0  0  0  0  0  0  0  0  0
    3.3054    1.9085    0.0510 O   0  0  0  0  0  0  0  0  0  0  0  0
    2.9940    0.5868   -0.0221 C   0  0  0  0  0  0  0  0  0  0  0  0
    3.9881   -0.3455   -0.2525 C   0  0  0  0  0  0  0  0  0  0  0  0
    3.6874   -1.6970   -0.3292 C   0  0  0  0  0  0  0  0  0  0  0  0
    2.3869   -2.1267   -0.1784 C   0  0  0  0  0  0  0  0  0  0  0  0
    1.3744   -1.1959    0.0512 C   0  0  0  0  0  0  0  0  0  0  0  0
    1.6709    0.1712    0.1412 C   0  0  0  0  0  0  0  0  0  0  0  0
    0.7030    1.0803    0.3771 O   0  0  0  0  0  0  0  0  0  0  0  0
   -0.6040    0.7861    0.2190 C   0  0  0  0  0  0  0  0  0  0  0  0
   -1.5384    1.8085    0.1361 C   0  0  0  0  0  0  0  0  0  0  0  0
   -2.8842    1.5145   -0.0174 C   0  0  0  0  0  0  0  0  0  0  0  0
   -3.3204    0.1932   -0.0886 C   0  0  0  0  0  0  0  0  0  0  0  0
   -2.4030   -0.8429   -0.0109 C   0  0  0  0  0  0  0  0  0  0  0  0
   -1.0417   -0.5482    0.1349 C   0  0  0  0  0  0  0  0  0  0  0  0
   -0.0341   -1.6231    0.2025 C   0  0  0  0  0  0  0  0  0  0  0  0
   -0.3433   -2.7894    0.3672 O   0  0  0  0  0  0  0  0  0  0  0  0
   -2.8208   -2.1333   -0.0751 O   0  0  0  0  0  0  0  0  0  0  0  0
   -4.6463   -0.0799   -0.2348 O   0  0  0  0  0  0  0  0  0  0  0  0
   -3.7875    2.5252   -0.0987 O   0  0  0  0  0  0  0  0  0  0  0  0
    5.2778    1.7767    0.6518 H   0  0  0  0  0  0  0  0  0  0  0  0
    5.0194    1.9347   -1.1022 H   0  0  0  0  0  0  0  0  0  0  0  0
    4.7894    3.3431   -0.0384 H   0  0  0  0  0  0  0  0  0  0  0  0
    5.0099   -0.0178   -0.3744 H   0  0  0  0  0  0  0  0  0  0  0  0
    4.4745   -2.4146   -0.5079 H   0  0  0  0  0  0  0  0  0  0  0  0
    2.1528   -3.1794   -0.2382 H   0  0  0  0  0  0  0  0  0  0  0  0
   -1.2158    2.8377    0.1918 H   0  0  0  0  0  0  0  0  0  0  0  0
   -2.8512   -2.4927   -0.9723 H   0  0  0  0  0  0  0  0  0  0  0  0
   -4.9358   -0.1423   -1.1554 H   0  0  0  0  0  0  0  0  0  0  0  0
   -3.9524    2.8337   -1.0003 H   0  0  0  0  0  0  0  0  0  0  0  0
  1  2  1  0  0  0  0
  2  3  1  0  0  0  0
  3  4  2  0  0  0  0
  4  5  1  0  0  0  0
  5  6  2  0  0  0  0
  6  7  1  0  0  0  0
  7  8  2  0  0  0  0
  3  8  1  0  0  0  0
  8  9  1  0  0  0  0
  9 10  1  0  0  0  0
 10 11  2  0  0  0  0
 11 12  1  0  0  0  0
 12 13  2  0  0  0  0
 13 14  1  0  0  0  0
 14 15  2  0  0  0  0
 10 15  1  0  0  0  0
 15 16  1  0  0  0  0
  7 16  1  0  0  0  0
 16 17  2  0  0  0  0
 14 18  1  0  0  0  0
 13 19  1  0  0  0  0
 12 20  1  0  0  0  0
  1 21  1  0  0  0  0
  1 22  1  0  0  0  0
  1 23  1  0  0  0  0
  4 24  1  0  0  0  0
  5 25  1  0  0  0  0
  6 26  1  0  0  0  0
 11 27  1  0  0  0  0
 18 28  1  0  0  0  0
 19 29  1  0  0  0  0
 20 30  1  0  0  0  0
M  END
$$$$
