C20H16O5
APtclcactv06291801043D 0   0.00000     0.00000
 
 41 44  0  0  0  0  0  0  0  0999 V2000
   -5.0907    0.6734    1.6709 C   0  0  0  0  0  0  0  0  0  0  0  0
   -5.2526    0.3394    0.1866 C   0  0  0  0  0  0  0  0  0  0  0  0
   -4.5627    1.3940   -0.6381 C   0  0  0  0  0  0  0  0  0  0  0  0
   -3.2757    1.2554   -0.9522 C   0  0  0  0  0  0  0  0  0  0  0  0
   -2.5715    0.0449   -0.4800 C   0  0  0  0  0  0  0  0  0  0  0  0
   -3.3354   -1.0461   -0.0448 C   0  0  0  0  0  0  0  0  0  0  0  0
   -4.6886   -0.9469   -0.0710 O   0  0  0  0  0  0  0  0  0  0  0  0
   -2.7088   -2.2033    0.3998 C   0  0  0  0  0  0  0  0  0  0  0  0
   -1.3458   -2.2857    0.4262 C   0  0  0  0  0  0  0  0  0  0  0  0
   -0.5603   -1.1997    0.0117 C   0  0  0  0  0  0  0  0  0  0  0  0
   -1.1789   -0.0312   -0.4700 C   0  0  0  0  0  0  0  0  0  0  0  0
   -0.4274    0.9932   -0.9365 O   0  0  0  0  0  0  0  0  0  0  0  0
    0.8137    1.1104   -0.4136 C   0  0  0  0  0  0  0  0  0  0  0  0
    1.2879    2.2028   -0.1612 O   0  0  0  0  0  0  0  0  0  0  0  0
    1.5740   -0.1243   -0.1584 C   0  0  0  0  0  0  0  0  0  0  0  0
    0.8567   -1.2728    0.0689 C   0  0  0  0  0  0  0  0  0  0  0  0
    3.0552   -0.1274   -0.1473 C   0  0  0  0  0  0  0  0  0  0  0  0
    3.7501    0.4102    0.9419 C   0  0  0  0  0  0  0  0  0  0  0  0
    5.1343    0.4042    0.9460 C   0  0  0  0  0  0  0  0  0  0  0  0
    5.8292   -0.1331   -0.1276 C   0  0  0  0  0  0  0  0  0  0  0  0
    5.1403   -0.6669   -1.2093 C   0  0  0  0  0  0  0  0  0  0  0  0
    3.7614   -0.6711   -1.2196 C   0  0  0  0  0  0  0  0  0  0  0  0
    7.1880   -0.1368   -0.1213 O   0  0  0  0  0  0  0  0  0  0  0  0
    3.0681    0.9368    1.9923 O   0  0  0  0  0  0  0  0  0  0  0  0
   -6.7412    0.3167   -0.1661 C   0  0  0  0  0  0  0  0  0  0  0  0
   -5.5370    1.6467    1.8751 H   0  0  0  0  0  0  0  0  0  0  0  0
   -5.5889   -0.0879    2.2711 H   0  0  0  0  0  0  0  0  0  0  0  0
   -4.0308    0.6995    1.9239 H   0  0  0  0  0  0  0  0  0  0  0  0
   -5.1109    2.2615   -0.9746 H   0  0  0  0  0  0  0  0  0  0  0  0
   -2.7620    2.0055   -1.5352 H   0  0  0  0  0  0  0  0  0  0  0  0
   -3.3034   -3.0433    0.7271 H   0  0  0  0  0  0  0  0  0  0  0  0
   -0.8697   -3.1926    0.7686 H   0  0  0  0  0  0  0  0  0  0  0  0
    1.3562   -2.2055    0.2856 H   0  0  0  0  0  0  0  0  0  0  0  0
    5.6735    0.8183    1.7851 H   0  0  0  0  0  0  0  0  0  0  0  0
    5.6863   -1.0840   -2.0426 H   0  0  0  0  0  0  0  0  0  0  0  0
    3.2287   -1.0869   -2.0620 H   0  0  0  0  0  0  0  0  0  0  0  0
    7.5773   -0.9289    0.2738 H   0  0  0  0  0  0  0  0  0  0  0  0
    2.8658    0.2984    2.6898 H   0  0  0  0  0  0  0  0  0  0  0  0
   -7.1779    1.2943    0.0380 H   0  0  0  0  0  0  0  0  0  0  0  0
   -6.8606    0.0790   -1.2231 H   0  0  0  0  0  0  0  0  0  0  0  0
   -7.2457   -0.4393    0.4356 H   0  0  0  0  0  0  0  0  0  0  0  0
  1  2  1  0  0  0  0
  2  3  1  0  0  0  0
  3  4  2  0  0  0  0
  4  5  1  0  0  0  0
  5  6  2  0  0  0  0
  6  7  1  0  0  0  0
  2  7  1  0  0  0  0
  6  8  1  0  0  0  0
  8  9  2  0  0  0  0
  9 10  1  0  0  0  0
 10 11  2  0  0  0  0
  5 11  1  0  0  0  0
 11 12  1  0  0  0  0
 12 13  1  0  0  0  0
 13 14  2  0  0  0  0
 13 15  1  0  0  0  0
 15 16  2  0  0  0  0
 10 16  1  0  0  0  0
 15 17  1  0  0  0  0
 17 18  2  0  0  0  0
 18 19  1  0  0  0  0
 19 20  2  0  0  0  0
 20 21  1  0  0  0  0
 21 22  2  0  0  0  0
 17 22  1  0  0  0  0
 20 23  1  0  0  0  0
 18 24  1  0  0  0  0
  2 25  1  0  0  0  0
  1 26  1  0  0  0  0
  1 27  1  0  0  0  0
  1 28  1  0  0  0  0
  3 29  1  0  0  0  0
  4 30  1  0  0  0  0
  8 31  1  0  0  0  0
  9 32  1  0  0  0  0
 16 33  1  0  0  0  0
 19 34  1  0  0  0  0
 21 35  1  0  0  0  0
 22 36  1  0  0  0  0
 23 37  1  0  0  0  0
 24 38  1  0  0  0  0
 25 39  1  0  0  0  0
 25 40  1  0  0  0  0
 25 41  1  0  0  0  0
M  END
$$$$
