C5H8O
APtclcactv06211806073D 0   0.00000     0.00000
 
 14 13  0  0  0  0  0  0  0  0999 V2000
    2.4178    0.1034   -0.0000 C   0  0  0  0  0  0  0  0  0  0  0  0
    1.2046   -0.8288   -0.0000 C   0  0  0  0  0  0  0  0  0  0  0  0
   -0.0594   -0.0082    0.0000 C   0  0  0  0  0  0  0  0  0  0  0  0
    0.0039    1.2034    0.0000 O   0  0  0  0  0  0  0  0  0  0  0  0
   -1.3625   -0.6724    0.0000 C   0  0  0  0  0  0  0  0  0  0  0  0
   -2.4819    0.0543   -0.0000 C   0  0  0  0  0  0  0  0  0  0  0  0
    2.3929    0.7322    0.8900 H   0  0  0  0  0  0  0  0  0  0  0  0
    3.3321   -0.4901   -0.0000 H   0  0  0  0  0  0  0  0  0  0  0  0
    2.3929    0.7322   -0.8900 H   0  0  0  0  0  0  0  0  0  0  0  0
    1.2296   -1.4576   -0.8900 H   0  0  0  0  0  0  0  0  0  0  0  0
    1.2296   -1.4576    0.8900 H   0  0  0  0  0  0  0  0  0  0  0  0
   -1.4188   -1.7510    0.0000 H   0  0  0  0  0  0  0  0  0  0  0  0
   -2.4255    1.1328   -0.0000 H   0  0  0  0  0  0  0  0  0  0  0  0
   -3.4441   -0.4362   -0.0000 H   0  0  0  0  0  0  0  0  0  0  0  0
  1  2  1  0  0  0  0
  2  3  1  0  0  0  0
  3  4  2  0  0  0  0
  3  5  1  0  0  0  0
  5  6  2  0  0  0  0
  1  7  1  0  0  0  0
  1  8  1  0  0  0  0
  1  9  1  0  0  0  0
  2 10  1  0  0  0  0
  2 11  1  0  0  0  0
  5 12  1  0  0  0  0
  6 13  1  0  0  0  0
  6 14  1  0  0  0  0
M  END
$$$$
