C10H18O
APtclcactv06211803433D 0   0.00000     0.00000
 
 29 30  0  0  0  0  0  0  0  0999 V2000
   -2.0612   -0.9675    0.7982 C   0  0  0  0  0  0  0  0  0  0  0  0
   -1.1896   -0.0069   -0.0134 C   0  0  0  0  0  0  0  0  0  0  0  0
   -0.5249    1.0474    0.9236 C   0  0  0  0  0  0  0  0  0  0  0  0
    0.1244    2.0793   -0.0485 C   0  0  0  0  0  0  0  0  0  0  0  0
    1.3104    1.3215   -0.6876 C   0  0  0  0  0  0  0  0  0  0  0  0
    1.2661   -0.0969   -0.0415 C   0  0  0  0  0  0  0  0  0  0  0  0
    0.7450    0.2555    1.3964 C   0  0  0  0  0  0  0  0  0  0  0  0
   -0.0036   -0.7647   -0.6525 C   0  0  0  0  0  0  0  0  0  0  0  0
   -0.0531   -2.1503   -0.3065 O   0  0  0  0  0  0  0  0  0  0  0  0
    2.5637   -0.9045   -0.1113 C   0  0  0  0  0  0  0  0  0  0  0  0
   -2.0245    0.6882   -1.0908 C   0  0  0  0  0  0  0  0  0  0  0  0
   -2.8421   -0.4051    1.3101 H   0  0  0  0  0  0  0  0  0  0  0  0
   -2.5179   -1.6969    0.1293 H   0  0  0  0  0  0  0  0  0  0  0  0
   -1.4446   -1.4846    1.5333 H   0  0  0  0  0  0  0  0  0  0  0  0
   -1.1643    1.4632    1.7022 H   0  0  0  0  0  0  0  0  0  0  0  0
   -0.5901    2.3818   -0.8141 H   0  0  0  0  0  0  0  0  0  0  0  0
    0.4819    2.9485    0.5035 H   0  0  0  0  0  0  0  0  0  0  0  0
    1.1791    1.2514   -1.7674 H   0  0  0  0  0  0  0  0  0  0  0  0
    2.2511    1.8181   -0.4498 H   0  0  0  0  0  0  0  0  0  0  0  0
    1.4440    0.8909    1.9402 H   0  0  0  0  0  0  0  0  0  0  0  0
    0.4823   -0.6360    1.9659 H   0  0  0  0  0  0  0  0  0  0  0  0
   -0.0135   -0.6421   -1.7355 H   0  0  0  0  0  0  0  0  0  0  0  0
   -0.8228   -2.6167   -0.6601 H   0  0  0  0  0  0  0  0  0  0  0  0
    3.3642   -0.3490    0.3774 H   0  0  0  0  0  0  0  0  0  0  0  0
    2.4243   -1.8605    0.3935 H   0  0  0  0  0  0  0  0  0  0  0  0
    2.8272   -1.0794   -1.1544 H   0  0  0  0  0  0  0  0  0  0  0  0
   -2.7332    1.3686   -0.6187 H   0  0  0  0  0  0  0  0  0  0  0  0
   -1.3668    1.2508   -1.7534 H   0  0  0  0  0  0  0  0  0  0  0  0
   -2.5682   -0.0598   -1.6679 H   0  0  0  0  0  0  0  0  0  0  0  0
  1  2  1  0  0  0  0
  2  3  1  0  0  0  0
  3  4  1  0  0  0  0
  4  5  1  0  0  0  0
  5  6  1  0  0  0  0
  6  7  1  0  0  0  0
  3  7  1  0  0  0  0
  6  8  1  0  0  0  0
  2  8  1  0  0  0  0
  8  9  1  0  0  0  0
  6 10  1  0  0  0  0
  2 11  1  0  0  0  0
  1 12  1  0  0  0  0
  1 13  1  0  0  0  0
  1 14  1  0  0  0  0
  3 15  1  0  0  0  0
  4 16  1  0  0  0  0
  4 17  1  0  0  0  0
  5 18  1  0  0  0  0
  5 19  1  0  0  0  0
  7 20  1  0  0  0  0
  7 21  1  0  0  0  0
  8 22  1  0  0  0  0
  9 23  1  0  0  0  0
 10 24  1  0  0  0  0
 10 25  1  0  0  0  0
 10 26  1  0  0  0  0
 11 27  1  0  0  0  0
 11 28  1  0  0  0  0
 11 29  1  0  0  0  0
M  END
$$$$
