C21H22O4
APtclcactv06291801043D 0   0.00000     0.00000
 
 47 48  0  0  0  0  0  0  0  0999 V2000
    2.7928   -3.6519   -1.3971 C   0  0  0  0  0  0  0  0  0  0  0  0
    3.0087   -3.3039    0.0532 C   0  0  0  0  0  0  0  0  0  0  0  0
    3.3380   -2.0820    0.3916 C   0  0  0  0  0  0  0  0  0  0  0  0
    3.5010   -1.0242   -0.6694 C   0  0  0  0  0  0  0  0  0  0  0  0
    2.6147    0.1513   -0.3472 C   0  0  0  0  0  0  0  0  0  0  0  0
    3.1004    1.1906    0.4357 C   0  0  0  0  0  0  0  0  0  0  0  0
    2.2916    2.2787    0.7390 C   0  0  0  0  0  0  0  0  0  0  0  0
    0.9949    2.3350    0.2629 C   0  0  0  0  0  0  0  0  0  0  0  0
    0.4960    1.2883   -0.5299 C   0  0  0  0  0  0  0  0  0  0  0  0
    1.3221    0.1948   -0.8365 C   0  0  0  0  0  0  0  0  0  0  0  0
    0.8498   -0.8211   -1.6018 O   0  0  0  0  0  0  0  0  0  0  0  0
   -0.8829    1.3396   -1.0404 C   0  0  0  0  0  0  0  0  0  0  0  0
   -1.1271    1.9314   -2.0769 O   0  0  0  0  0  0  0  0  0  0  0  0
   -1.9619    0.6793   -0.3027 C   0  0  0  0  0  0  0  0  0  0  0  0
   -3.2062    0.6361   -0.8222 C   0  0  0  0  0  0  0  0  0  0  0  0
   -4.2905   -0.0274   -0.0808 C   0  0  0  0  0  0  0  0  0  0  0  0
   -5.5819   -0.0743   -0.6160 C   0  0  0  0  0  0  0  0  0  0  0  0
   -6.5924   -0.6978    0.0848 C   0  0  0  0  0  0  0  0  0  0  0  0
   -6.3316   -1.2764    1.3148 C   0  0  0  0  0  0  0  0  0  0  0  0
   -5.0564   -1.2342    1.8512 C   0  0  0  0  0  0  0  0  0  0  0  0
   -4.0338   -0.6194    1.1601 C   0  0  0  0  0  0  0  0  0  0  0  0
    0.2063    3.3980    0.5610 O   0  0  0  0  0  0  0  0  0  0  0  0
    4.3720    1.1428    0.9073 O   0  0  0  0  0  0  0  0  0  0  0  0
    4.8094    2.2439    1.7064 C   0  0  0  0  0  0  0  0  0  0  0  0
    2.8457   -4.3616    1.1142 C   0  0  0  0  0  0  0  0  0  0  0  0
    3.7086   -3.4614   -1.9567 H   0  0  0  0  0  0  0  0  0  0  0  0
    2.5274   -4.7056   -1.4823 H   0  0  0  0  0  0  0  0  0  0  0  0
    1.9862   -3.0402   -1.8013 H   0  0  0  0  0  0  0  0  0  0  0  0
    3.4927   -1.8326    1.4309 H   0  0  0  0  0  0  0  0  0  0  0  0
    4.5405   -0.6978   -0.7004 H   0  0  0  0  0  0  0  0  0  0  0  0
    3.2203   -1.4358   -1.6389 H   0  0  0  0  0  0  0  0  0  0  0  0
    2.6767    3.0826    1.3487 H   0  0  0  0  0  0  0  0  0  0  0  0
    0.9945   -0.6992   -2.5501 H   0  0  0  0  0  0  0  0  0  0  0  0
   -1.7616    0.2269    0.6573 H   0  0  0  0  0  0  0  0  0  0  0  0
   -3.4066    1.0885   -1.7822 H   0  0  0  0  0  0  0  0  0  0  0  0
   -5.7870    0.3770   -1.5755 H   0  0  0  0  0  0  0  0  0  0  0  0
   -7.5902   -0.7345   -0.3269 H   0  0  0  0  0  0  0  0  0  0  0  0
   -7.1274   -1.7630    1.8591 H   0  0  0  0  0  0  0  0  0  0  0  0
   -4.8608   -1.6879    2.8116 H   0  0  0  0  0  0  0  0  0  0  0  0
   -3.0392   -0.5877    1.5798 H   0  0  0  0  0  0  0  0  0  0  0  0
    0.2623    4.1209   -0.0788 H   0  0  0  0  0  0  0  0  0  0  0  0
    5.8410    2.0798    2.0176 H   0  0  0  0  0  0  0  0  0  0  0  0
    4.7475    3.1629    1.1236 H   0  0  0  0  0  0  0  0  0  0  0  0
    4.1732    2.3287    2.5874 H   0  0  0  0  0  0  0  0  0  0  0  0
    3.8008   -4.8598    1.2803 H   0  0  0  0  0  0  0  0  0  0  0  0
    2.5120   -3.8971    2.0421 H   0  0  0  0  0  0  0  0  0  0  0  0
    2.1064   -5.0930    0.7876 H   0  0  0  0  0  0  0  0  0  0  0  0
  1  2  1  0  0  0  0
  2  3  2  0  0  0  0
  3  4  1  0  0  0  0
  4  5  1  0  0  0  0
  5  6  2  0  0  0  0
  6  7  1  0  0  0  0
  7  8  2  0  0  0  0
  8  9  1  0  0  0  0
  9 10  2  0  0  0  0
  5 10  1  0  0  0  0
 10 11  1  0  0  0  0
  9 12  1  0  0  0  0
 12 13  2  0  0  0  0
 12 14  1  0  0  0  0
 14 15  2  0  0  0  0
 15 16  1  0  0  0  0
 16 17  2  0  0  0  0
 17 18  1  0  0  0  0
 18 19  2  0  0  0  0
 19 20  1  0  0  0  0
 20 21  2  0  0  0  0
 16 21  1  0  0  0  0
  8 22  1  0  0  0  0
  6 23  1  0  0  0  0
 23 24  1  0  0  0  0
  2 25  1  0  0  0  0
  1 26  1  0  0  0  0
  1 27  1  0  0  0  0
  1 28  1  0  0  0  0
  3 29  1  0  0  0  0
  4 30  1  0  0  0  0
  4 31  1  0  0  0  0
  7 32  1  0  0  0  0
 11 33  1  0  0  0  0
 14 34  1  0  0  0  0
 15 35  1  0  0  0  0
 17 36  1  0  0  0  0
 18 37  1  0  0  0  0
 19 38  1  0  0  0  0
 20 39  1  0  0  0  0
 21 40  1  0  0  0  0
 22 41  1  0  0  0  0
 24 42  1  0  0  0  0
 24 43  1  0  0  0  0
 24 44  1  0  0  0  0
 25 45  1  0  0  0  0
 25 46  1  0  0  0  0
 25 47  1  0  0  0  0
M  END
$$$$
