C11H24O
APtclcactv06211806083D 0   0.00000     0.00000
 
 36 35  0  0  0  0  0  0  0  0999 V2000
    6.7289    0.2204   -0.2160 C   0  0  0  0  0  0  0  0  0  0  0  0
    5.4528   -0.5117    0.2040 C   0  0  0  0  0  0  0  0  0  0  0  0
    4.2328    0.3249   -0.1865 C   0  0  0  0  0  0  0  0  0  0  0  0
    2.9567   -0.4072    0.2335 C   0  0  0  0  0  0  0  0  0  0  0  0
    1.7366    0.4294   -0.1569 C   0  0  0  0  0  0  0  0  0  0  0  0
    0.4605   -0.3027    0.2631 C   0  0  0  0  0  0  0  0  0  0  0  0
   -0.7595    0.5339   -0.1274 C   0  0  0  0  0  0  0  0  0  0  0  0
   -2.0356   -0.1982    0.2926 C   0  0  0  0  0  0  0  0  0  0  0  0
   -3.2556    0.6384   -0.0979 C   0  0  0  0  0  0  0  0  0  0  0  0
   -4.5317   -0.0937    0.3221 C   0  0  0  0  0  0  0  0  0  0  0  0
   -5.7450    0.7964    0.0453 C   0  0  0  0  0  0  0  0  0  0  0  0
   -4.6516   -1.3074   -0.4227 O   0  0  0  0  0  0  0  0  0  0  0  0
    6.7753    1.1868    0.2861 H   0  0  0  0  0  0  0  0  0  0  0  0
    7.5980   -0.3756    0.0622 H   0  0  0  0  0  0  0  0  0  0  0  0
    6.7224    0.3717   -1.2954 H   0  0  0  0  0  0  0  0  0  0  0  0
    5.4064   -1.4781   -0.2980 H   0  0  0  0  0  0  0  0  0  0  0  0
    5.4592   -0.6630    1.2835 H   0  0  0  0  0  0  0  0  0  0  0  0
    4.2792    1.2913    0.3156 H   0  0  0  0  0  0  0  0  0  0  0  0
    4.2263    0.4762   -1.2659 H   0  0  0  0  0  0  0  0  0  0  0  0
    2.9103   -1.3736   -0.2685 H   0  0  0  0  0  0  0  0  0  0  0  0
    2.9631   -0.5585    1.3130 H   0  0  0  0  0  0  0  0  0  0  0  0
    1.7830    1.3958    0.3451 H   0  0  0  0  0  0  0  0  0  0  0  0
    1.7302    0.5807   -1.2364 H   0  0  0  0  0  0  0  0  0  0  0  0
    0.4141   -1.2691   -0.2390 H   0  0  0  0  0  0  0  0  0  0  0  0
    0.4670   -0.4540    1.3425 H   0  0  0  0  0  0  0  0  0  0  0  0
   -0.7131    1.5003    0.3746 H   0  0  0  0  0  0  0  0  0  0  0  0
   -0.7659    0.6852   -1.2069 H   0  0  0  0  0  0  0  0  0  0  0  0
   -2.0820   -1.1646   -0.2095 H   0  0  0  0  0  0  0  0  0  0  0  0
   -2.0292   -0.3495    1.3720 H   0  0  0  0  0  0  0  0  0  0  0  0
   -3.2092    1.6048    0.4041 H   0  0  0  0  0  0  0  0  0  0  0  0
   -3.2620    0.7897   -1.1773 H   0  0  0  0  0  0  0  0  0  0  0  0
   -4.4850   -0.3237    1.3865 H   0  0  0  0  0  0  0  0  0  0  0  0
   -5.7916    1.0263   -1.0191 H   0  0  0  0  0  0  0  0  0  0  0  0
   -6.6541    0.2748    0.3445 H   0  0  0  0  0  0  0  0  0  0  0  0
   -5.6535    1.7221    0.6134 H   0  0  0  0  0  0  0  0  0  0  0  0
   -4.6985   -1.1785   -1.3799 H   0  0  0  0  0  0  0  0  0  0  0  0
  1  2  1  0  0  0  0
  2  3  1  0  0  0  0
  3  4  1  0  0  0  0
  4  5  1  0  0  0  0
  5  6  1  0  0  0  0
  6  7  1  0  0  0  0
  7  8  1  0  0  0  0
  8  9  1  0  0  0  0
  9 10  1  0  0  0  0
 10 11  1  0  0  0  0
 10 12  1  0  0  0  0
  1 13  1  0  0  0  0
  1 14  1  0  0  0  0
  1 15  1  0  0  0  0
  2 16  1  0  0  0  0
  2 17  1  0  0  0  0
  3 18  1  0  0  0  0
  3 19  1  0  0  0  0
  4 20  1  0  0  0  0
  4 21  1  0  0  0  0
  5 22  1  0  0  0  0
  5 23  1  0  0  0  0
  6 24  1  0  0  0  0
  6 25  1  0  0  0  0
  7 26  1  0  0  0  0
  7 27  1  0  0  0  0
  8 28  1  0  0  0  0
  8 29  1  0  0  0  0
  9 30  1  0  0  0  0
  9 31  1  0  0  0  0
 10 32  1  0  0  0  0
 11 33  1  0  0  0  0
 11 34  1  0  0  0  0
 11 35  1  0  0  0  0
 12 36  1  0  0  0  0
M  END
$$$$
