C16H19NO2
APtclcactv06291801043D 0   0.00000     0.00000
 
 38 39  0  0  0  0  0  0  0  0999 V2000
   -4.5171    0.4513   -0.7182 C   0  0  0  0  0  0  0  0  0  0  0  0
   -3.9484   -0.1120    0.5586 C   0  0  0  0  0  0  0  0  0  0  0  0
   -2.7901   -0.7237    0.5459 C   0  0  0  0  0  0  0  0  0  0  0  0
   -1.9700   -0.7582   -0.7179 C   0  0  0  0  0  0  0  0  0  0  0  0
   -0.5898   -0.2228   -0.4359 C   0  0  0  0  0  0  0  0  0  0  0  0
    0.4250   -1.0837   -0.1280 C   0  0  0  0  0  0  0  0  0  0  0  0
    1.7570   -0.5249    0.1408 C   0  0  0  0  0  0  0  0  0  0  0  0
    2.8363   -1.3515    0.4605 C   0  0  0  0  0  0  0  0  0  0  0  0
    4.0710   -0.7938    0.7061 C   0  0  0  0  0  0  0  0  0  0  0  0
    4.2470    0.5809    0.6376 C   0  0  0  0  0  0  0  0  0  0  0  0
    3.1915    1.4100    0.3237 C   0  0  0  0  0  0  0  0  0  0  0  0
    1.9361    0.8681    0.0715 C   0  0  0  0  0  0  0  0  0  0  0  0
    0.8646    1.6782   -0.2451 N   0  0  0  0  0  0  0  0  0  0  0  0
   -0.3493    1.1586   -0.4957 C   0  0  0  0  0  0  0  0  0  0  0  0
   -1.2699    1.9093   -0.7724 O   0  0  0  0  0  0  0  0  0  0  0  0
    1.0550    3.1291   -0.3150 C   0  0  0  0  0  0  0  0  0  0  0  0
    0.2089   -2.4182   -0.0717 O   0  0  0  0  0  0  0  0  0  0  0  0
    0.8471   -3.2213   -1.0665 C   0  0  0  0  0  0  0  0  0  0  0  0
   -4.7123    0.0284    1.8501 C   0  0  0  0  0  0  0  0  0  0  0  0
   -4.5678   -0.3350   -1.4714 H   0  0  0  0  0  0  0  0  0  0  0  0
   -5.5182    0.8392   -0.5300 H   0  0  0  0  0  0  0  0  0  0  0  0
   -3.8767    1.2571   -1.0768 H   0  0  0  0  0  0  0  0  0  0  0  0
   -2.4229   -1.2034    1.4412 H   0  0  0  0  0  0  0  0  0  0  0  0
   -1.8953   -1.7854   -1.0747 H   0  0  0  0  0  0  0  0  0  0  0  0
   -2.4498   -0.1431   -1.4792 H   0  0  0  0  0  0  0  0  0  0  0  0
    2.7032   -2.4219    0.5152 H   0  0  0  0  0  0  0  0  0  0  0  0
    4.9077   -1.4302    0.9540 H   0  0  0  0  0  0  0  0  0  0  0  0
    5.2206    1.0056    0.8325 H   0  0  0  0  0  0  0  0  0  0  0  0
    3.3395    2.4786    0.2731 H   0  0  0  0  0  0  0  0  0  0  0  0
    1.3373    3.4101   -1.3296 H   0  0  0  0  0  0  0  0  0  0  0  0
    0.1260    3.6309   -0.0442 H   0  0  0  0  0  0  0  0  0  0  0  0
    1.8432    3.4258    0.3769 H   0  0  0  0  0  0  0  0  0  0  0  0
    0.5788   -2.8541   -2.0570 H   0  0  0  0  0  0  0  0  0  0  0  0
    1.9283   -3.1664   -0.9391 H   0  0  0  0  0  0  0  0  0  0  0  0
    0.5211   -4.2562   -0.9620 H   0  0  0  0  0  0  0  0  0  0  0  0
   -5.3703   -0.8311    1.9784 H   0  0  0  0  0  0  0  0  0  0  0  0
   -4.0113    0.0769    2.6834 H   0  0  0  0  0  0  0  0  0  0  0  0
   -5.3078    0.9410    1.8226 H   0  0  0  0  0  0  0  0  0  0  0  0
  1  2  1  0  0  0  0
  2  3  2  0  0  0  0
  3  4  1  0  0  0  0
  4  5  1  0  0  0  0
  5  6  2  0  0  0  0
  6  7  1  0  0  0  0
  7  8  2  0  0  0  0
  8  9  1  0  0  0  0
  9 10  2  0  0  0  0
 10 11  1  0  0  0  0
 11 12  2  0  0  0  0
  7 12  1  0  0  0  0
 12 13  1  0  0  0  0
 13 14  1  0  0  0  0
  5 14  1  0  0  0  0
 14 15  2  0  0  0  0
 13 16  1  0  0  0  0
  6 17  1  0  0  0  0
 17 18  1  0  0  0  0
  2 19  1  0  0  0  0
  1 20  1  0  0  0  0
  1 21  1  0  0  0  0
  1 22  1  0  0  0  0
  3 23  1  0  0  0  0
  4 24  1  0  0  0  0
  4 25  1  0  0  0  0
  8 26  1  0  0  0  0
  9 27  1  0  0  0  0
 10 28  1  0  0  0  0
 11 29  1  0  0  0  0
 16 30  1  0  0  0  0
 16 31  1  0  0  0  0
 16 32  1  0  0  0  0
 18 33  1  0  0  0  0
 18 34  1  0  0  0  0
 18 35  1  0  0  0  0
 19 36  1  0  0  0  0
 19 37  1  0  0  0  0
 19 38  1  0  0  0  0
M  END
$$$$
