C14H10O4
APtclcactv06291801043D 0   0.00000     0.00000
 
 28 30  0  0  0  0  0  0  0  0999 V2000
    4.3733   -0.9240    0.4044 C   0  0  0  0  0  0  0  0  0  0  0  0
    3.1943   -1.5446    0.7085 C   0  0  0  0  0  0  0  0  0  0  0  0
    1.9837   -0.9347    0.3755 C   0  0  0  0  0  0  0  0  0  0  0  0
    1.9748    0.3142   -0.2709 C   0  0  0  0  0  0  0  0  0  0  0  0
    3.1818    0.9303   -0.5728 C   0  0  0  0  0  0  0  0  0  0  0  0
    4.3730    0.3123   -0.2354 C   0  0  0  0  0  0  0  0  0  0  0  0
    5.5534    0.9175   -0.5320 O   0  0  0  0  0  0  0  0  0  0  0  0
    0.6862    0.6604   -0.4685 O   0  0  0  0  0  0  0  0  0  0  0  0
   -0.1447   -0.2872    0.0099 C   0  0  0  0  0  0  0  0  0  0  0  0
    0.5754   -1.3021    0.5454 C   0  0  0  0  0  0  0  0  0  0  0  0
   -1.6196   -0.2279   -0.0421 C   0  0  0  0  0  0  0  0  0  0  0  0
   -2.2930    0.9182    0.4001 C   0  0  0  0  0  0  0  0  0  0  0  0
   -3.6752    0.9668    0.3480 C   0  0  0  0  0  0  0  0  0  0  0  0
   -4.3901   -0.1170   -0.1404 C   0  0  0  0  0  0  0  0  0  0  0  0
   -3.7238   -1.2547   -0.5789 C   0  0  0  0  0  0  0  0  0  0  0  0
   -2.3472   -1.3114   -0.5373 C   0  0  0  0  0  0  0  0  0  0  0  0
   -5.7469   -0.0660   -0.1897 O   0  0  0  0  0  0  0  0  0  0  0  0
   -1.5916    1.9784    0.8789 O   0  0  0  0  0  0  0  0  0  0  0  0
    5.3102   -1.3933    0.6657 H   0  0  0  0  0  0  0  0  0  0  0  0
    3.1993   -2.5039    1.2046 H   0  0  0  0  0  0  0  0  0  0  0  0
    3.1910    1.8894   -1.0692 H   0  0  0  0  0  0  0  0  0  0  0  0
    5.8837    1.4990    0.1664 H   0  0  0  0  0  0  0  0  0  0  0  0
    0.1895   -2.2003    1.0046 H   0  0  0  0  0  0  0  0  0  0  0  0
   -4.1974    1.8489    0.6880 H   0  0  0  0  0  0  0  0  0  0  0  0
   -4.2860   -2.0955   -0.9574 H   0  0  0  0  0  0  0  0  0  0  0  0
   -1.8324   -2.1972   -0.8788 H   0  0  0  0  0  0  0  0  0  0  0  0
   -6.0974    0.2879   -1.0186 H   0  0  0  0  0  0  0  0  0  0  0  0
   -1.3456    2.6248    0.2030 H   0  0  0  0  0  0  0  0  0  0  0  0
  1  2  2  0  0  0  0
  2  3  1  0  0  0  0
  3  4  2  0  0  0  0
  4  5  1  0  0  0  0
  5  6  2  0  0  0  0
  1  6  1  0  0  0  0
  6  7  1  0  0  0  0
  4  8  1  0  0  0  0
  8  9  1  0  0  0  0
  9 10  2  0  0  0  0
  3 10  1  0  0  0  0
  9 11  1  0  0  0  0
 11 12  2  0  0  0  0
 12 13  1  0  0  0  0
 13 14  2  0  0  0  0
 14 15  1  0  0  0  0
 15 16  2  0  0  0  0
 11 16  1  0  0  0  0
 14 17  1  0  0  0  0
 12 18  1  0  0  0  0
  1 19  1  0  0  0  0
  2 20  1  0  0  0  0
  5 21  1  0  0  0  0
  7 22  1  0  0  0  0
 10 23  1  0  0  0  0
 13 24  1  0  0  0  0
 15 25  1  0  0  0  0
 16 26  1  0  0  0  0
 17 27  1  0  0  0  0
 18 28  1  0  0  0  0
M  END
$$$$
