C10H10O4
APtclcactv06281816283D 0   0.00000     0.00000
 
 24 24  0  0  0  0  0  0  0  0999 V2000
    3.0322    2.5575   -0.0003 C   0  0  0  0  0  0  0  0  0  0  0  0
    3.3184    1.1574   -0.0071 O   0  0  0  0  0  0  0  0  0  0  0  0
    2.2549    0.3098   -0.0085 C   0  0  0  0  0  0  0  0  0  0  0  0
    2.4626   -1.0691   -0.0150 C   0  0  0  0  0  0  0  0  0  0  0  0
    1.3797   -1.9385   -0.0165 C   0  0  0  0  0  0  0  0  0  0  0  0
    0.0944   -1.4435   -0.0115 C   0  0  0  0  0  0  0  0  0  0  0  0
   -0.1224   -0.0607   -0.0045 C   0  0  0  0  0  0  0  0  0  0  0  0
    0.9698    0.8149    0.0023 C   0  0  0  0  0  0  0  0  0  0  0  0
   -1.4927    0.4704    0.0008 C   0  0  0  0  0  0  0  0  0  0  0  0
   -2.5453   -0.3764   -0.0011 C   0  0  0  0  0  0  0  0  0  0  0  0
   -3.8673    0.1360    0.0040 C   0  0  0  0  0  0  0  0  0  0  0  0
   -4.0537    1.3381    0.0101 O   0  0  0  0  0  0  0  0  0  0  0  0
   -4.9186   -0.7098    0.0021 O   0  0  0  0  0  0  0  0  0  0  0  0
    3.7277   -1.5632   -0.0204 O   0  0  0  0  0  0  0  0  0  0  0  0
    2.4541    2.8144   -0.8879 H   0  0  0  0  0  0  0  0  0  0  0  0
    2.4580    2.8066    0.8920 H   0  0  0  0  0  0  0  0  0  0  0  0
    3.9663    3.1193    0.0002 H   0  0  0  0  0  0  0  0  0  0  0  0
    1.5459   -3.0056   -0.0220 H   0  0  0  0  0  0  0  0  0  0  0  0
   -0.7458   -2.1220   -0.0134 H   0  0  0  0  0  0  0  0  0  0  0  0
    0.8078    1.8826    0.0081 H   0  0  0  0  0  0  0  0  0  0  0  0
   -1.6581    1.5376    0.0062 H   0  0  0  0  0  0  0  0  0  0  0  0
   -2.3798   -1.4436   -0.0065 H   0  0  0  0  0  0  0  0  0  0  0  0
   -5.7788   -0.2680    0.0060 H   0  0  0  0  0  0  0  0  0  0  0  0
    4.0963   -1.7102    0.8614 H   0  0  0  0  0  0  0  0  0  0  0  0
  1  2  1  0  0  0  0
  2  3  1  0  0  0  0
  3  4  2  0  0  0  0
  4  5  1  0  0  0  0
  5  6  2  0  0  0  0
  6  7  1  0  0  0  0
  7  8  2  0  0  0  0
  3  8  1  0  0  0  0
  7  9  1  0  0  0  0
  9 10  2  0  0  0  0
 10 11  1  0  0  0  0
 11 12  2  0  0  0  0
 11 13  1  0  0  0  0
  4 14  1  0  0  0  0
  1 15  1  0  0  0  0
  1 16  1  0  0  0  0
  1 17  1  0  0  0  0
  5 18  1  0  0  0  0
  6 19  1  0  0  0  0
  8 20  1  0  0  0  0
  9 21  1  0  0  0  0
 10 22  1  0  0  0  0
 13 23  1  0  0  0  0
 14 24  1  0  0  0  0
M  END
$$$$
