C11H16O
APtclcactv06281816283D 0   0.00000     0.00000
 
 28 28  0  0  0  0  0  0  0  0999 V2000
   -4.2140    0.8335    0.7718 C   0  0  0  0  0  0  0  0  0  0  0  0
   -3.6450   -0.5533    0.4652 C   0  0  0  0  0  0  0  0  0  0  0  0
   -2.4800   -0.4203   -0.4815 C   0  0  0  0  0  0  0  0  0  0  0  0
   -1.3162   -0.9308   -0.1637 C   0  0  0  0  0  0  0  0  0  0  0  0
   -0.1512   -0.7977   -1.1104 C   0  0  0  0  0  0  0  0  0  0  0  0
    1.0096   -0.1596   -0.3918 C   0  0  0  0  0  0  0  0  0  0  0  0
    1.9892   -0.8436    0.1818 C   0  0  0  0  0  0  0  0  0  0  0  0
    2.9896    0.0929    0.8115 C   0  0  0  0  0  0  0  0  0  0  0  0
    2.4615    1.5107    0.5304 C   0  0  0  0  0  0  0  0  0  0  0  0
    1.1868    1.2816   -0.2533 C   0  0  0  0  0  0  0  0  0  0  0  0
    0.4439    2.1401   -0.6815 O   0  0  0  0  0  0  0  0  0  0  0  0
    2.0891   -2.3472    0.2023 C   0  0  0  0  0  0  0  0  0  0  0  0
   -3.4412    1.4498    1.2311 H   0  0  0  0  0  0  0  0  0  0  0  0
   -4.5495    1.3013   -0.1538 H   0  0  0  0  0  0  0  0  0  0  0  0
   -5.0566    0.7372    1.4565 H   0  0  0  0  0  0  0  0  0  0  0  0
   -3.3095   -1.0212    1.3907 H   0  0  0  0  0  0  0  0  0  0  0  0
   -4.4178   -1.1697    0.0059 H   0  0  0  0  0  0  0  0  0  0  0  0
   -2.6046    0.0960   -1.4219 H   0  0  0  0  0  0  0  0  0  0  0  0
   -1.1916   -1.4471    0.7767 H   0  0  0  0  0  0  0  0  0  0  0  0
    0.1411   -1.7851   -1.4678 H   0  0  0  0  0  0  0  0  0  0  0  0
   -0.4405   -0.1757   -1.9574 H   0  0  0  0  0  0  0  0  0  0  0  0
    3.0457   -0.0823    1.8858 H   0  0  0  0  0  0  0  0  0  0  0  0
    3.9705   -0.0412    0.3554 H   0  0  0  0  0  0  0  0  0  0  0  0
    2.2513    2.0319    1.4644 H   0  0  0  0  0  0  0  0  0  0  0  0
    3.1777    2.0730   -0.0687 H   0  0  0  0  0  0  0  0  0  0  0  0
    2.6444   -2.6864   -0.6721 H   0  0  0  0  0  0  0  0  0  0  0  0
    2.6072   -2.6645    1.1073 H   0  0  0  0  0  0  0  0  0  0  0  0
    1.0881   -2.7781    0.1867 H   0  0  0  0  0  0  0  0  0  0  0  0
  1  2  1  0  0  0  0
  2  3  1  0  0  0  0
  3  4  2  0  0  0  0
  4  5  1  0  0  0  0
  5  6  1  0  0  0  0
  6  7  2  0  0  0  0
  7  8  1  0  0  0  0
  8  9  1  0  0  0  0
  9 10  1  0  0  0  0
  6 10  1  0  0  0  0
 10 11  2  0  0  0  0
  7 12  1  0  0  0  0
  1 13  1  0  0  0  0
  1 14  1  0  0  0  0
  1 15  1  0  0  0  0
  2 16  1  0  0  0  0
  2 17  1  0  0  0  0
  3 18  1  0  0  0  0
  4 19  1  0  0  0  0
  5 20  1  0  0  0  0
  5 21  1  0  0  0  0
  8 22  1  0  0  0  0
  8 23  1  0  0  0  0
  9 24  1  0  0  0  0
  9 25  1  0  0  0  0
 12 26  1  0  0  0  0
 12 27  1  0  0  0  0
 12 28  1  0  0  0  0
M  END
$$$$
