C43H60O4
APtclcactv06291801043D 0   0.00000     0.00000
 
107106  0  0  0  0  0  0  0  0999 V2000
  -17.1832   -2.7908    1.6502 C   0  0  0  0  0  0  0  0  0  0  0  0
  -17.7258   -2.9385    0.2521 C   0  0  0  0  0  0  0  0  0  0  0  0
  -17.1083   -2.3699   -0.7536 C   0  0  0  0  0  0  0  0  0  0  0  0
  -15.7939   -1.6672   -0.5307 C   0  0  0  0  0  0  0  0  0  0  0  0
  -14.7427   -2.2367   -1.4855 C   0  0  0  0  0  0  0  0  0  0  0  0
  -13.4284   -1.5340   -1.2626 C   0  0  0  0  0  0  0  0  0  0  0  0
  -12.5327   -2.0581   -0.4631 C   0  0  0  0  0  0  0  0  0  0  0  0
  -11.1829   -1.4051   -0.3126 C   0  0  0  0  0  0  0  0  0  0  0  0
  -10.9058   -1.1424    1.1690 C   0  0  0  0  0  0  0  0  0  0  0  0
   -9.5560   -0.4894    1.3196 C   0  0  0  0  0  0  0  0  0  0  0  0
   -9.4641    0.8153    1.3928 C   0  0  0  0  0  0  0  0  0  0  0  0
   -8.1094    1.4751    1.4160 C   0  0  0  0  0  0  0  0  0  0  0  0
   -8.0323    2.5207    0.3017 C   0  0  0  0  0  0  0  0  0  0  0  0
   -6.6776    3.1805    0.3249 C   0  0  0  0  0  0  0  0  0  0  0  0
   -5.7201    2.7379   -0.4519 C   0  0  0  0  0  0  0  0  0  0  0  0
   -4.3654    3.3977   -0.4287 C   0  0  0  0  0  0  0  0  0  0  0  0
   -3.3477    2.3950   -0.3961 O   0  0  0  0  0  0  0  0  0  0  0  0
   -2.0669    2.8221   -0.3721 C   0  0  0  0  0  0  0  0  0  0  0  0
   -1.8227    4.0147   -0.3789 O   0  0  0  0  0  0  0  0  0  0  0  0
   -1.0113    1.8858   -0.3393 C   0  0  0  0  0  0  0  0  0  0  0  0
    0.2818    2.3170   -0.3152 C   0  0  0  0  0  0  0  0  0  0  0  0
    1.3315    1.3859   -0.2825 C   0  0  0  0  0  0  0  0  0  0  0  0
    2.6365    1.8211   -0.2581 C   0  0  0  0  0  0  0  0  0  0  0  0
    3.6848    0.8913   -0.2255 C   0  0  0  0  0  0  0  0  0  0  0  0
    4.9909    1.3268   -0.2011 C   0  0  0  0  0  0  0  0  0  0  0  0
    6.0386    0.3974   -0.1686 C   0  0  0  0  0  0  0  0  0  0  0  0
    7.3452    0.8330   -0.1442 C   0  0  0  0  0  0  0  0  0  0  0  0
    8.3927   -0.0962   -0.1116 C   0  0  0  0  0  0  0  0  0  0  0  0
    9.6993    0.3395   -0.0872 C   0  0  0  0  0  0  0  0  0  0  0  0
   10.7470   -0.5899   -0.0546 C   0  0  0  0  0  0  0  0  0  0  0  0
   12.0531   -0.1544   -0.0302 C   0  0  0  0  0  0  0  0  0  0  0  0
   12.3554    1.3219   -0.0385 C   0  0  0  0  0  0  0  0  0  0  0  0
   13.1014   -1.0842    0.0024 C   0  0  0  0  0  0  0  0  0  0  0  0
   14.4064   -0.6491    0.0268 C   0  0  0  0  0  0  0  0  0  0  0  0
   15.4561   -1.5801    0.0594 C   0  0  0  0  0  0  0  0  0  0  0  0
   16.7492   -1.1490    0.0836 C   0  0  0  0  0  0  0  0  0  0  0  0
   17.0516    0.3274    0.0752 C   0  0  0  0  0  0  0  0  0  0  0  0
   17.8048   -2.0853    0.1164 C   0  0  0  0  0  0  0  0  0  0  0  0
   17.5606   -3.2778    0.1231 O   0  0  0  0  0  0  0  0  0  0  0  0
   19.0856   -1.6582    0.1403 O   0  0  0  0  0  0  0  0  0  0  0  0
   20.1033   -2.6609    0.1730 C   0  0  0  0  0  0  0  0  0  0  0  0
    5.7363   -1.0789   -0.1602 C   0  0  0  0  0  0  0  0  0  0  0  0
    1.0292   -0.0904   -0.2742 C   0  0  0  0  0  0  0  0  0  0  0  0
   -6.4244    4.3494    1.2417 C   0  0  0  0  0  0  0  0  0  0  0  0
   -8.3120   -1.3374    1.3859 C   0  0  0  0  0  0  0  0  0  0  0  0
  -13.1444   -0.2283   -1.9594 C   0  0  0  0  0  0  0  0  0  0  0  0
  -18.9787   -3.7404    0.0109 C   0  0  0  0  0  0  0  0  0  0  0  0
  -17.0730   -1.7326    1.8873 H   0  0  0  0  0  0  0  0  0  0  0  0
  -17.8722   -3.2518    2.3579 H   0  0  0  0  0  0  0  0  0  0  0  0
  -16.2120   -3.2811    1.7168 H   0  0  0  0  0  0  0  0  0  0  0  0
  -17.5411   -2.4047   -1.7425 H   0  0  0  0  0  0  0  0  0  0  0  0
  -15.9157   -0.6005   -0.7189 H   0  0  0  0  0  0  0  0  0  0  0  0
  -15.4703   -1.8198    0.4989 H   0  0  0  0  0  0  0  0  0  0  0  0
  -14.6209   -3.3034   -1.2973 H   0  0  0  0  0  0  0  0  0  0  0  0
  -15.0664   -2.0840   -2.5151 H   0  0  0  0  0  0  0  0  0  0  0  0
  -12.7617   -2.9582    0.0881 H   0  0  0  0  0  0  0  0  0  0  0  0
  -10.4136   -2.0642   -0.7148 H   0  0  0  0  0  0  0  0  0  0  0  0
  -11.1734   -0.4608   -0.8570 H   0  0  0  0  0  0  0  0  0  0  0  0
  -11.6752   -0.4833    1.5713 H   0  0  0  0  0  0  0  0  0  0  0  0
  -10.9154   -2.0867    1.7134 H   0  0  0  0  0  0  0  0  0  0  0  0
  -10.3592    1.4181    1.4366 H   0  0  0  0  0  0  0  0  0  0  0  0
   -7.9579    1.9600    2.3804 H   0  0  0  0  0  0  0  0  0  0  0  0
   -7.3361    0.7225    1.2622 H   0  0  0  0  0  0  0  0  0  0  0  0
   -8.1838    2.0358   -0.6627 H   0  0  0  0  0  0  0  0  0  0  0  0
   -8.8056    3.2733    0.4555 H   0  0  0  0  0  0  0  0  0  0  0  0
   -5.9015    1.9002   -1.1089 H   0  0  0  0  0  0  0  0  0  0  0  0
   -4.2440    4.0097   -1.3225 H   0  0  0  0  0  0  0  0  0  0  0  0
   -4.2832    4.0278    0.4569 H   0  0  0  0  0  0  0  0  0  0  0  0
   -1.2280    0.8278   -0.3333 H   0  0  0  0  0  0  0  0  0  0  0  0
    0.4985    3.3750   -0.3211 H   0  0  0  0  0  0  0  0  0  0  0  0
    2.8532    2.8791   -0.2641 H   0  0  0  0  0  0  0  0  0  0  0  0
    3.4681   -0.1668   -0.2196 H   0  0  0  0  0  0  0  0  0  0  0  0
    5.2076    2.3848   -0.2071 H   0  0  0  0  0  0  0  0  0  0  0  0
    7.5618    1.8911   -0.1501 H   0  0  0  0  0  0  0  0  0  0  0  0
    8.1761   -1.1542   -0.1056 H   0  0  0  0  0  0  0  0  0  0  0  0
    9.9159    1.3975   -0.0932 H   0  0  0  0  0  0  0  0  0  0  0  0
   10.5303   -1.6479   -0.0486 H   0  0  0  0  0  0  0  0  0  0  0  0
   12.4056    1.6883    0.9868 H   0  0  0  0  0  0  0  0  0  0  0  0
   13.3113    1.4943   -0.5332 H   0  0  0  0  0  0  0  0  0  0  0  0
   11.5680    1.8510   -0.5753 H   0  0  0  0  0  0  0  0  0  0  0  0
   12.8847   -2.1422    0.0084 H   0  0  0  0  0  0  0  0  0  0  0  0
   14.6231    0.4089    0.0208 H   0  0  0  0  0  0  0  0  0  0  0  0
   15.2394   -2.6382    0.0654 H   0  0  0  0  0  0  0  0  0  0  0  0
   17.1018    0.6938    1.1006 H   0  0  0  0  0  0  0  0  0  0  0  0
   18.0075    0.4997   -0.4194 H   0  0  0  0  0  0  0  0  0  0  0  0
   16.2641    0.8565   -0.4615 H   0  0  0  0  0  0  0  0  0  0  0  0
   19.9819   -3.2728    1.0668 H   0  0  0  0  0  0  0  0  0  0  0  0
   20.0211   -3.2909   -0.7127 H   0  0  0  0  0  0  0  0  0  0  0  0
   21.0831   -2.1836    0.1898 H   0  0  0  0  0  0  0  0  0  0  0  0
    5.6861   -1.4453   -1.1856 H   0  0  0  0  0  0  0  0  0  0  0  0
    6.5238   -1.6080    0.3765 H   0  0  0  0  0  0  0  0  0  0  0  0
    4.7804   -1.2513    0.3344 H   0  0  0  0  0  0  0  0  0  0  0  0
    0.9789   -0.4568   -1.2995 H   0  0  0  0  0  0  0  0  0  0  0  0
    1.8166   -0.6195    0.2626 H   0  0  0  0  0  0  0  0  0  0  0  0
    0.0733   -0.2627    0.2205 H   0  0  0  0  0  0  0  0  0  0  0  0
   -6.0614    3.9854    2.2029 H   0  0  0  0  0  0  0  0  0  0  0  0
   -5.6768    5.0056    0.7959 H   0  0  0  0  0  0  0  0  0  0  0  0
   -7.3517    4.9028    1.3895 H   0  0  0  0  0  0  0  0  0  0  0  0
   -7.8701   -1.4125    0.3923 H   0  0  0  0  0  0  0  0  0  0  0  0
   -7.5960   -0.8793    2.0683 H   0  0  0  0  0  0  0  0  0  0  0  0
   -8.5700   -2.3336    1.7450 H   0  0  0  0  0  0  0  0  0  0  0  0
  -13.3963    0.5996   -1.2967 H   0  0  0  0  0  0  0  0  0  0  0  0
  -12.0869   -0.1773   -2.2187 H   0  0  0  0  0  0  0  0  0  0  0  0
  -13.7445   -0.1627   -2.8670 H   0  0  0  0  0  0  0  0  0  0  0  0
  -19.8480   -3.0867    0.0833 H   0  0  0  0  0  0  0  0  0  0  0  0
  -18.9400   -4.1845   -0.9838 H   0  0  0  0  0  0  0  0  0  0  0  0
  -19.0545   -4.5299    0.7586 H   0  0  0  0  0  0  0  0  0  0  0  0
  1  2  1  0  0  0  0
  2  3  2  0  0  0  0
  3  4  1  0  0  0  0
  4  5  1  0  0  0  0
  5  6  1  0  0  0  0
  6  7  2  0  0  0  0
  7  8  1  0  0  0  0
  8  9  1  0  0  0  0
  9 10  1  0  0  0  0
 10 11  2  0  0  0  0
 11 12  1  0  0  0  0
 12 13  1  0  0  0  0
 13 14  1  0  0  0  0
 14 15  2  0  0  0  0
 15 16  1  0  0  0  0
 16 17  1  0  0  0  0
 17 18  1  0  0  0  0
 18 19  2  0  0  0  0
 18 20  1  0  0  0  0
 20 21  2  0  0  0  0
 21 22  1  0  0  0  0
 22 23  2  0  0  0  0
 23 24  1  0  0  0  0
 24 25  2  0  0  0  0
 25 26  1  0  0  0  0
 26 27  2  0  0  0  0
 27 28  1  0  0  0  0
 28 29  2  0  0  0  0
 29 30  1  0  0  0  0
 30 31  2  0  0  0  0
 31 32  1  0  0  0  0
 31 33  1  0  0  0  0
 33 34  2  0  0  0  0
 34 35  1  0  0  0  0
 35 36  2  0  0  0  0
 36 37  1  0  0  0  0
 36 38  1  0  0  0  0
 38 39  2  0  0  0  0
 38 40  1  0  0  0  0
 40 41  1  0  0  0  0
 26 42  1  0  0  0  0
 22 43  1  0  0  0  0
 14 44  1  0  0  0  0
 10 45  1  0  0  0  0
  6 46  1  0  0  0  0
  2 47  1  0  0  0  0
  1 48  1  0  0  0  0
  1 49  1  0  0  0  0
  1 50  1  0  0  0  0
  3 51  1  0  0  0  0
  4 52  1  0  0  0  0
  4 53  1  0  0  0  0
  5 54  1  0  0  0  0
  5 55  1  0  0  0  0
  7 56  1  0  0  0  0
  8 57  1  0  0  0  0
  8 58  1  0  0  0  0
  9 59  1  0  0  0  0
  9 60  1  0  0  0  0
 11 61  1  0  0  0  0
 12 62  1  0  0  0  0
 12 63  1  0  0  0  0
 13 64  1  0  0  0  0
 13 65  1  0  0  0  0
 15 66  1  0  0  0  0
 16 67  1  0  0  0  0
 16 68  1  0  0  0  0
 20 69  1  0  0  0  0
 21 70  1  0  0  0  0
 23 71  1  0  0  0  0
 24 72  1  0  0  0  0
 25 73  1  0  0  0  0
 27 74  1  0  0  0  0
 28 75  1  0  0  0  0
 29 76  1  0  0  0  0
 30 77  1  0  0  0  0
 32 78  1  0  0  0  0
 32 79  1  0  0  0  0
 32 80  1  0  0  0  0
 33 81  1  0  0  0  0
 34 82  1  0  0  0  0
 35 83  1  0  0  0  0
 37 84  1  0  0  0  0
 37 85  1  0  0  0  0
 37 86  1  0  0  0  0
 41 87  1  0  0  0  0
 41 88  1  0  0  0  0
 41 89  1  0  0  0  0
 42 90  1  0  0  0  0
 42 91  1  0  0  0  0
 42 92  1  0  0  0  0
 43 93  1  0  0  0  0
 43 94  1  0  0  0  0
 43 95  1  0  0  0  0
 44 96  1  0  0  0  0
 44 97  1  0  0  0  0
 44 98  1  0  0  0  0
 45 99  1  0  0  0  0
 45100  1  0  0  0  0
 45101  1  0  0  0  0
 46102  1  0  0  0  0
 46103  1  0  0  0  0
 46104  1  0  0  0  0
 47105  1  0  0  0  0
 47106  1  0  0  0  0
 47107  1  0  0  0  0
M  END
$$$$
