C11H12O5
APtclcactv06281816283D 0   0.00000     0.00000
 
 28 28  0  0  0  0  0  0  0  0999 V2000
    2.6308    3.2901    0.0062 C   0  0  0  0  0  0  0  0  0  0  0  0
    3.0357    1.9197    0.0093 O   0  0  0  0  0  0  0  0  0  0  0  0
    2.0486    0.9842    0.0084 C   0  0  0  0  0  0  0  0  0  0  0  0
    0.7243    1.3785    0.0046 C   0  0  0  0  0  0  0  0  0  0  0  0
   -0.2909    0.4150    0.0032 C   0  0  0  0  0  0  0  0  0  0  0  0
    0.0397   -0.9450    0.0057 C   0  0  0  0  0  0  0  0  0  0  0  0
    1.3662   -1.3317    0.0096 C   0  0  0  0  0  0  0  0  0  0  0  0
    2.3737   -0.3701    0.0056 C   0  0  0  0  0  0  0  0  0  0  0  0
    3.6774   -0.7542    0.0094 O   0  0  0  0  0  0  0  0  0  0  0  0
    1.6884   -2.6530    0.0120 O   0  0  0  0  0  0  0  0  0  0  0  0
    0.6051   -3.5849    0.0104 C   0  0  0  0  0  0  0  0  0  0  0  0
   -1.7006    0.8304   -0.0004 C   0  0  0  0  0  0  0  0  0  0  0  0
   -2.6792   -0.1010   -0.0017 C   0  0  0  0  0  0  0  0  0  0  0  0
   -4.0392    0.2997   -0.0051 C   0  0  0  0  0  0  0  0  0  0  0  0
   -4.3248    1.4821   -0.0069 O   0  0  0  0  0  0  0  0  0  0  0  0
   -5.0166   -0.6306   -0.0065 O   0  0  0  0  0  0  0  0  0  0  0  0
    2.0373    3.4916   -0.8856 H   0  0  0  0  0  0  0  0  0  0  0  0
    2.0329    3.4944    0.8944 H   0  0  0  0  0  0  0  0  0  0  0  0
    3.5134    3.9298    0.0073 H   0  0  0  0  0  0  0  0  0  0  0  0
    0.4729    2.4289    0.0030 H   0  0  0  0  0  0  0  0  0  0  0  0
   -0.7410   -1.6912    0.0050 H   0  0  0  0  0  0  0  0  0  0  0  0
    4.0558   -0.8702   -0.8729 H   0  0  0  0  0  0  0  0  0  0  0  0
   -0.0077   -3.4313    0.8987 H   0  0  0  0  0  0  0  0  0  0  0  0
   -0.0032   -3.4335   -0.8813 H   0  0  0  0  0  0  0  0  0  0  0  0
    0.9999   -4.6009    0.0127 H   0  0  0  0  0  0  0  0  0  0  0  0
   -1.9542    1.8802   -0.0019 H   0  0  0  0  0  0  0  0  0  0  0  0
   -2.4256   -1.1508   -0.0001 H   0  0  0  0  0  0  0  0  0  0  0  0
   -5.9105   -0.2618   -0.0089 H   0  0  0  0  0  0  0  0  0  0  0  0
  1  2  1  0  0  0  0
  2  3  1  0  0  0  0
  3  4  2  0  0  0  0
  4  5  1  0  0  0  0
  5  6  2  0  0  0  0
  6  7  1  0  0  0  0
  7  8  2  0  0  0  0
  3  8  1  0  0  0  0
  8  9  1  0  0  0  0
  7 10  1  0  0  0  0
 10 11  1  0  0  0  0
  5 12  1  0  0  0  0
 12 13  2  0  0  0  0
 13 14  1  0  0  0  0
 14 15  2  0  0  0  0
 14 16  1  0  0  0  0
  1 17  1  0  0  0  0
  1 18  1  0  0  0  0
  1 19  1  0  0  0  0
  4 20  1  0  0  0  0
  6 21  1  0  0  0  0
  9 22  1  0  0  0  0
 11 23  1  0  0  0  0
 11 24  1  0  0  0  0
 11 25  1  0  0  0  0
 12 26  1  0  0  0  0
 13 27  1  0  0  0  0
 16 28  1  0  0  0  0
M  END
$$$$
