C31H24O10
APtclcactv06211806403D 0   0.00000     0.00000
 
 65 70  0  0  0  0  0  0  0  0999 V2000
    8.5602   -0.2814    0.6262 C   0  0  0  0  0  0  0  0  0  0  0  0
    7.1321   -0.2029    0.1515 C   0  0  0  0  0  0  0  0  0  0  0  0
    6.8973   -0.1537   -1.1700 C   0  0  0  0  0  0  0  0  0  0  0  0
    5.5595   -0.0792   -1.6459 C   0  0  0  0  0  0  0  0  0  0  0  0
    5.3119   -0.0336   -2.8390 O   0  0  0  0  0  0  0  0  0  0  0  0
    4.4847   -0.0600   -0.6385 C   0  0  0  0  0  0  0  0  0  0  0  0
    4.8477   -0.1163    0.7276 C   0  0  0  0  0  0  0  0  0  0  0  0
    6.1549   -0.1908    1.0653 O   0  0  0  0  0  0  0  0  0  0  0  0
    3.8757   -0.1012    1.7015 C   0  0  0  0  0  0  0  0  0  0  0  0
    2.5193   -0.0297    1.3429 C   0  0  0  0  0  0  0  0  0  0  0  0
    1.5196   -0.0134    2.3320 C   0  0  0  0  0  0  0  0  0  0  0  0
    0.2047    0.0561    1.9772 C   0  0  0  0  0  0  0  0  0  0  0  0
   -0.1755    0.1130    0.6220 C   0  0  0  0  0  0  0  0  0  0  0  0
    0.7875    0.0986   -0.3782 C   0  0  0  0  0  0  0  0  0  0  0  0
    2.1504    0.0270   -0.0269 C   0  0  0  0  0  0  0  0  0  0  0  0
    3.1472    0.0121   -1.0180 C   0  0  0  0  0  0  0  0  0  0  0  0
    2.8097    0.0674   -2.3291 O   0  0  0  0  0  0  0  0  0  0  0  0
    0.4193    0.1526   -1.6835 O   0  0  0  0  0  0  0  0  0  0  0  0
    0.3002    1.4498   -2.2709 C   0  0  0  0  0  0  0  0  0  0  0  0
   -1.6088    0.1880    0.2624 C   0  0  0  0  0  0  0  0  0  0  0  0
   -2.2297    1.4229    0.1284 C   0  0  0  0  0  0  0  0  0  0  0  0
   -3.5979    1.4917   -0.2149 C   0  0  0  0  0  0  0  0  0  0  0  0
   -4.3423    0.3330   -0.4233 C   0  0  0  0  0  0  0  0  0  0  0  0
   -3.7248   -0.9229   -0.2904 C   0  0  0  0  0  0  0  0  0  0  0  0
   -4.4571   -2.1115   -0.4951 C   0  0  0  0  0  0  0  0  0  0  0  0
   -3.8384   -3.3216   -0.3602 C   0  0  0  0  0  0  0  0  0  0  0  0
   -2.4862   -3.3989   -0.0211 C   0  0  0  0  0  0  0  0  0  0  0  0
   -1.7442   -2.2556    0.1853 C   0  0  0  0  0  0  0  0  0  0  0  0
   -2.3503   -0.9989    0.0483 C   0  0  0  0  0  0  0  0  0  0  0  0
   -1.8949   -4.6150    0.1073 O   0  0  0  0  0  0  0  0  0  0  0  0
   -2.7158   -5.7627   -0.1186 C   0  0  0  0  0  0  0  0  0  0  0  0
   -5.7725   -2.0525   -0.8248 O   0  0  0  0  0  0  0  0  0  0  0  0
   -5.6545    0.4158   -0.7518 O   0  0  0  0  0  0  0  0  0  0  0  0
   -4.2160    2.8233   -0.3460 C   0  0  0  0  0  0  0  0  0  0  0  0
   -5.3926    2.9506   -0.6396 O   0  0  0  0  0  0  0  0  0  0  0  0
   -3.3845    3.9532   -0.1158 C   0  0  0  0  0  0  0  0  0  0  0  0
   -2.0925    3.7743    0.2063 C   0  0  0  0  0  0  0  0  0  0  0  0
   -1.5340    2.5645    0.3246 O   0  0  0  0  0  0  0  0  0  0  0  0
   -1.2346    4.9901    0.4443 C   0  0  0  0  0  0  0  0  0  0  0  0
   -0.7503    0.0702    2.9426 O   0  0  0  0  0  0  0  0  0  0  0  0
   -0.3031    0.0098    4.2985 C   0  0  0  0  0  0  0  0  0  0  0  0
    8.9510    0.7259    0.7707 H   0  0  0  0  0  0  0  0  0  0  0  0
    8.6000   -0.8253    1.5700 H   0  0  0  0  0  0  0  0  0  0  0  0
    9.1626   -0.8015   -0.1185 H   0  0  0  0  0  0  0  0  0  0  0  0
    7.7212   -0.1703   -1.8682 H   0  0  0  0  0  0  0  0  0  0  0  0
    4.1561   -0.1447    2.7435 H   0  0  0  0  0  0  0  0  0  0  0  0
    1.7941   -0.0564    3.3757 H   0  0  0  0  0  0  0  0  0  0  0  0
    2.7517    0.9655   -2.6827 H   0  0  0  0  0  0  0  0  0  0  0  0
   -0.4511    2.0257   -1.7306 H   0  0  0  0  0  0  0  0  0  0  0  0
    1.2602    1.9631   -2.2160 H   0  0  0  0  0  0  0  0  0  0  0  0
    0.0006    1.3502   -3.3142 H   0  0  0  0  0  0  0  0  0  0  0  0
   -4.4019   -4.2295   -0.5172 H   0  0  0  0  0  0  0  0  0  0  0  0
   -0.6989   -2.3276    0.4471 H   0  0  0  0  0  0  0  0  0  0  0  0
   -3.5432   -5.7629    0.5910 H   0  0  0  0  0  0  0  0  0  0  0  0
   -3.1088   -5.7339   -1.1349 H   0  0  0  0  0  0  0  0  0  0  0  0
   -2.1217   -6.6666    0.0158 H   0  0  0  0  0  0  0  0  0  0  0  0
   -5.9383   -2.0205   -1.7769 H   0  0  0  0  0  0  0  0  0  0  0  0
   -5.8198    0.4555   -1.7037 H   0  0  0  0  0  0  0  0  0  0  0  0
   -3.7896    4.9509   -0.1997 H   0  0  0  0  0  0  0  0  0  0  0  0
   -1.2786    5.2652    1.4981 H   0  0  0  0  0  0  0  0  0  0  0  0
   -0.2036    4.7667    0.1699 H   0  0  0  0  0  0  0  0  0  0  0  0
   -1.6009    5.8179   -0.1629 H   0  0  0  0  0  0  0  0  0  0  0  0
    0.3379    0.8661    4.5081 H   0  0  0  0  0  0  0  0  0  0  0  0
   -1.1644    0.0286    4.9663 H   0  0  0  0  0  0  0  0  0  0  0  0
    0.2582   -0.9113    4.4552 H   0  0  0  0  0  0  0  0  0  0  0  0
  1  2  1  0  0  0  0
  2  3  2  0  0  0  0
  3  4  1  0  0  0  0
  4  5  2  0  0  0  0
  4  6  1  0  0  0  0
  6  7  2  0  0  0  0
  7  8  1  0  0  0  0
  2  8  1  0  0  0  0
  7  9  1  0  0  0  0
  9 10  2  0  0  0  0
 10 11  1  0  0  0  0
 11 12  2  0  0  0  0
 12 13  1  0  0  0  0
 13 14  2  0  0  0  0
 14 15  1  0  0  0  0
 10 15  1  0  0  0  0
 15 16  2  0  0  0  0
  6 16  1  0  0  0  0
 16 17  1  0  0  0  0
 14 18  1  0  0  0  0
 18 19  1  0  0  0  0
 13 20  1  0  0  0  0
 20 21  2  0  0  0  0
 21 22  1  0  0  0  0
 22 23  2  0  0  0  0
 23 24  1  0  0  0  0
 24 25  2  0  0  0  0
 25 26  1  0  0  0  0
 26 27  2  0  0  0  0
 27 28  1  0  0  0  0
 28 29  2  0  0  0  0
 24 29  1  0  0  0  0
 20 29  1  0  0  0  0
 27 30  1  0  0  0  0
 30 31  1  0  0  0  0
 25 32  1  0  0  0  0
 23 33  1  0  0  0  0
 22 34  1  0  0  0  0
 34 35  2  0  0  0  0
 34 36  1  0  0  0  0
 36 37  2  0  0  0  0
 37 38  1  0  0  0  0
 21 38  1  0  0  0  0
 37 39  1  0  0  0  0
 12 40  1  0  0  0  0
 40 41  1  0  0  0  0
  1 42  1  0  0  0  0
  1 43  1  0  0  0  0
  1 44  1  0  0  0  0
  3 45  1  0  0  0  0
  9 46  1  0  0  0  0
 11 47  1  0  0  0  0
 17 48  1  0  0  0  0
 19 49  1  0  0  0  0
 19 50  1  0  0  0  0
 19 51  1  0  0  0  0
 26 52  1  0  0  0  0
 28 53  1  0  0  0  0
 31 54  1  0  0  0  0
 31 55  1  0  0  0  0
 31 56  1  0  0  0  0
 32 57  1  0  0  0  0
 33 58  1  0  0  0  0
 36 59  1  0  0  0  0
 39 60  1  0  0  0  0
 39 61  1  0  0  0  0
 39 62  1  0  0  0  0
 41 63  1  0  0  0  0
 41 64  1  0  0  0  0
 41 65  1  0  0  0  0
M  END
$$$$
