C10H12O4
APtclcactv06211806403D 0   0.00000     0.00000
 
 26 26  0  0  0  0  0  0  0  0999 V2000
    5.5234    0.1729   -0.1189 C   0  0  0  0  0  0  0  0  0  0  0  0
    4.0893    0.1245    0.3415 C   0  0  0  0  0  0  0  0  0  0  0  0
    3.8276    0.2366    1.5158 O   0  0  0  0  0  0  0  0  0  0  0  0
    3.1025   -0.0432   -0.5529 O   0  0  0  0  0  0  0  0  0  0  0  0
    1.7454   -0.0802   -0.0380 C   0  0  0  0  0  0  0  0  0  0  0  0
    0.7656   -0.2767   -1.1966 C   0  0  0  0  0  0  0  0  0  0  0  0
   -0.6430   -0.3151   -0.6622 C   0  0  0  0  0  0  0  0  0  0  0  0
   -1.3700    0.8552   -0.5494 C   0  0  0  0  0  0  0  0  0  0  0  0
   -2.6653    0.8216   -0.0583 C   0  0  0  0  0  0  0  0  0  0  0  0
   -3.2312   -0.3919    0.3205 C   0  0  0  0  0  0  0  0  0  0  0  0
   -2.4969   -1.5614    0.2049 C   0  0  0  0  0  0  0  0  0  0  0  0
   -1.2072   -1.5215   -0.2912 C   0  0  0  0  0  0  0  0  0  0  0  0
   -4.5019   -0.4300    0.8036 O   0  0  0  0  0  0  0  0  0  0  0  0
   -3.3817    1.9721    0.0538 O   0  0  0  0  0  0  0  0  0  0  0  0
    6.1768    0.3138    0.7421 H   0  0  0  0  0  0  0  0  0  0  0  0
    5.7765   -0.7624   -0.6180 H   0  0  0  0  0  0  0  0  0  0  0  0
    5.6541    1.0025   -0.8137 H   0  0  0  0  0  0  0  0  0  0  0  0
    1.6462   -0.9066    0.6658 H   0  0  0  0  0  0  0  0  0  0  0  0
    1.5238    0.8583    0.4700 H   0  0  0  0  0  0  0  0  0  0  0  0
    0.8647    0.5497   -1.9004 H   0  0  0  0  0  0  0  0  0  0  0  0
    0.9872   -1.2152   -1.7047 H   0  0  0  0  0  0  0  0  0  0  0  0
   -0.9284    1.7958   -0.8438 H   0  0  0  0  0  0  0  0  0  0  0  0
   -2.9338   -2.5045    0.4982 H   0  0  0  0  0  0  0  0  0  0  0  0
   -0.6360   -2.4337   -0.3808 H   0  0  0  0  0  0  0  0  0  0  0  0
   -5.1778   -0.5532    0.1231 H   0  0  0  0  0  0  0  0  0  0  0  0
   -3.8970    2.1928   -0.7341 H   0  0  0  0  0  0  0  0  0  0  0  0
  1  2  1  0  0  0  0
  2  3  2  0  0  0  0
  2  4  1  0  0  0  0
  4  5  1  0  0  0  0
  5  6  1  0  0  0  0
  6  7  1  0  0  0  0
  7  8  2  0  0  0  0
  8  9  1  0  0  0  0
  9 10  2  0  0  0  0
 10 11  1  0  0  0  0
 11 12  2  0  0  0  0
  7 12  1  0  0  0  0
 10 13  1  0  0  0  0
  9 14  1  0  0  0  0
  1 15  1  0  0  0  0
  1 16  1  0  0  0  0
  1 17  1  0  0  0  0
  5 18  1  0  0  0  0
  5 19  1  0  0  0  0
  6 20  1  0  0  0  0
  6 21  1  0  0  0  0
  8 22  1  0  0  0  0
 11 23  1  0  0  0  0
 12 24  1  0  0  0  0
 13 25  1  0  0  0  0
 14 26  1  0  0  0  0
M  END
$$$$
