C17H18O4
APtclcactv06291801043D 0   0.00000     0.00000
 
 39 40  0  0  0  0  0  0  0  0999 V2000
    5.1315    3.3055   -0.0008 C   0  0  0  0  0  0  0  0  0  0  0  0
    5.2410    1.8807   -0.0005 O   0  0  0  0  0  0  0  0  0  0  0  0
    4.0829    1.1740   -0.0006 C   0  0  0  0  0  0  0  0  0  0  0  0
    4.1207   -0.2129   -0.0003 C   0  0  0  0  0  0  0  0  0  0  0  0
    2.9404   -0.9360    0.0001 C   0  0  0  0  0  0  0  0  0  0  0  0
    1.7091   -0.2561    0.0001 C   0  0  0  0  0  0  0  0  0  0  0  0
    1.6905    1.1455   -0.0002 C   0  0  0  0  0  0  0  0  0  0  0  0
    2.8621    1.8444    0.0048 C   0  0  0  0  0  0  0  0  0  0  0  0
    0.4525   -1.0090   -0.0001 C   0  0  0  0  0  0  0  0  0  0  0  0
    0.4721   -2.2222   -0.0002 O   0  0  0  0  0  0  0  0  0  0  0  0
   -0.8646   -0.2767   -0.0000 C   0  0  0  0  0  0  0  0  0  0  0  0
   -2.0113   -1.2896   -0.0002 C   0  0  0  0  0  0  0  0  0  0  0  0
   -3.3284   -0.5574   -0.0002 C   0  0  0  0  0  0  0  0  0  0  0  0
   -3.9316   -0.2219   -1.1982 C   0  0  0  0  0  0  0  0  0  0  0  0
   -5.1389    0.4494   -1.2009 C   0  0  0  0  0  0  0  0  0  0  0  0
   -5.7463    0.7869   -0.0001 C   0  0  0  0  0  0  0  0  0  0  0  0
   -5.1390    0.4492    1.2007 C   0  0  0  0  0  0  0  0  0  0  0  0
   -3.9344   -0.2271    1.1979 C   0  0  0  0  0  0  0  0  0  0  0  0
   -6.9338    1.4477   -0.0001 O   0  0  0  0  0  0  0  0  0  0  0  0
    2.9710   -2.2917   -0.0001 O   0  0  0  0  0  0  0  0  0  0  0  0
    4.2585   -2.9116   -0.0006 C   0  0  0  0  0  0  0  0  0  0  0  0
    6.1283    3.7465   -0.0006 H   0  0  0  0  0  0  0  0  0  0  0  0
    4.5916    3.6282   -0.8910 H   0  0  0  0  0  0  0  0  0  0  0  0
    4.5912    3.6286    0.8890 H   0  0  0  0  0  0  0  0  0  0  0  0
    5.0701   -0.7278   -0.0007 H   0  0  0  0  0  0  0  0  0  0  0  0
    0.7478    1.6725   -0.0006 H   0  0  0  0  0  0  0  0  0  0  0  0
    2.8428    2.9242    0.0046 H   0  0  0  0  0  0  0  0  0  0  0  0
   -0.9325    0.3488    0.8900 H   0  0  0  0  0  0  0  0  0  0  0  0
   -0.9324    0.3490   -0.8899 H   0  0  0  0  0  0  0  0  0  0  0  0
   -1.9434   -1.9152   -0.8902 H   0  0  0  0  0  0  0  0  0  0  0  0
   -1.9435   -1.9154    0.8897 H   0  0  0  0  0  0  0  0  0  0  0  0
   -3.4582   -0.4845   -2.1328 H   0  0  0  0  0  0  0  0  0  0  0  0
   -5.6095    0.7116   -2.1370 H   0  0  0  0  0  0  0  0  0  0  0  0
   -5.6099    0.7108    2.1368 H   0  0  0  0  0  0  0  0  0  0  0  0
   -3.4613   -0.4903    2.1324 H   0  0  0  0  0  0  0  0  0  0  0  0
   -7.7070    0.8670   -0.0004 H   0  0  0  0  0  0  0  0  0  0  0  0
    4.8085   -2.6061   -0.8907 H   0  0  0  0  0  0  0  0  0  0  0  0
    4.8091   -2.6063    0.8892 H   0  0  0  0  0  0  0  0  0  0  0  0
    4.1402   -3.9951   -0.0007 H   0  0  0  0  0  0  0  0  0  0  0  0
  1  2  1  0  0  0  0
  2  3  1  0  0  0  0
  3  4  2  0  0  0  0
  4  5  1  0  0  0  0
  5  6  2  0  0  0  0
  6  7  1  0  0  0  0
  7  8  2  0  0  0  0
  3  8  1  0  0  0  0
  6  9  1  0  0  0  0
  9 10  2  0  0  0  0
  9 11  1  0  0  0  0
 11 12  1  0  0  0  0
 12 13  1  0  0  0  0
 13 14  2  0  0  0  0
 14 15  1  0  0  0  0
 15 16  2  0  0  0  0
 16 17  1  0  0  0  0
 17 18  2  0  0  0  0
 13 18  1  0  0  0  0
 16 19  1  0  0  0  0
  5 20  1  0  0  0  0
 20 21  1  0  0  0  0
  1 22  1  0  0  0  0
  1 23  1  0  0  0  0
  1 24  1  0  0  0  0
  4 25  1  0  0  0  0
  7 26  1  0  0  0  0
  8 27  1  0  0  0  0
 11 28  1  0  0  0  0
 11 29  1  0  0  0  0
 12 30  1  0  0  0  0
 12 31  1  0  0  0  0
 14 32  1  0  0  0  0
 15 33  1  0  0  0  0
 17 34  1  0  0  0  0
 18 35  1  0  0  0  0
 19 36  1  0  0  0  0
 21 37  1  0  0  0  0
 21 38  1  0  0  0  0
 21 39  1  0  0  0  0
M  END
$$$$
