C20H28O3
APtclcactv06291801043D 0   0.00000     0.00000
 
 51 53  0  0  0  0  0  0  0  0999 V2000
    0.4493    3.1238    1.1005 C   0  0  0  0  0  0  0  0  0  0  0  0
   -0.2163    2.1081    0.1676 C   0  0  0  0  0  0  0  0  0  0  0  0
    0.5753    1.9867   -1.1235 C   0  0  0  0  0  0  0  0  0  0  0  0
    1.9228    1.3035   -0.8943 C   0  0  0  0  0  0  0  0  0  0  0  0
    1.7010   -0.0927   -0.3239 C   0  0  0  0  0  0  0  0  0  0  0  0
    0.8977   -0.0163    0.9644 C   0  0  0  0  0  0  0  0  0  0  0  0
   -0.3867    0.7749    0.8936 C   0  0  0  0  0  0  0  0  0  0  0  0
   -0.8246    1.1116    2.3410 C   0  0  0  0  0  0  0  0  0  0  0  0
   -1.5275   -0.0217    0.2553 C   0  0  0  0  0  0  0  0  0  0  0  0
   -2.8241    0.7860    0.3414 C   0  0  0  0  0  0  0  0  0  0  0  0
   -3.9655   -0.0376   -0.1969 C   0  0  0  0  0  0  0  0  0  0  0  0
   -4.7539   -0.8710    0.5056 C   0  0  0  0  0  0  0  0  0  0  0  0
   -5.6503   -1.4152   -0.3334 O   0  0  0  0  0  0  0  0  0  0  0  0
   -5.4486   -0.9408   -1.5736 C   0  0  0  0  0  0  0  0  0  0  0  0
   -4.4173   -0.0780   -1.5360 C   0  0  0  0  0  0  0  0  0  0  0  0
    0.7083   -1.4251    1.5276 C   0  0  0  0  0  0  0  0  0  0  0  0
    2.0763   -1.9402    1.9907 C   0  0  0  0  0  0  0  0  0  0  0  0
    3.1583   -1.5728    1.0229 C   0  0  0  0  0  0  0  0  0  0  0  0
    3.0161   -0.7610   -0.0063 C   0  0  0  0  0  0  0  0  0  0  0  0
    4.1726   -0.5111   -0.8723 C   0  0  0  0  0  0  0  0  0  0  0  0
    5.2646   -0.9504   -0.5696 O   0  0  0  0  0  0  0  0  0  0  0  0
    4.0247    0.2059   -2.0042 O   0  0  0  0  0  0  0  0  0  0  0  0
    1.0158   -0.9559   -1.3833 C   0  0  0  0  0  0  0  0  0  0  0  0
    0.4861    4.0970    0.6110 H   0  0  0  0  0  0  0  0  0  0  0  0
   -0.1268    3.2023    2.0224 H   0  0  0  0  0  0  0  0  0  0  0  0
    1.4624    2.7950    1.3320 H   0  0  0  0  0  0  0  0  0  0  0  0
   -1.2205    2.4911   -0.0786 H   0  0  0  0  0  0  0  0  0  0  0  0
   -0.0035    1.4490   -1.8730 H   0  0  0  0  0  0  0  0  0  0  0  0
    0.7623    2.9964   -1.5180 H   0  0  0  0  0  0  0  0  0  0  0  0
    2.4389    1.2291   -1.8575 H   0  0  0  0  0  0  0  0  0  0  0  0
    2.5340    1.8912   -0.2117 H   0  0  0  0  0  0  0  0  0  0  0  0
    1.5524    0.5097    1.7044 H   0  0  0  0  0  0  0  0  0  0  0  0
   -0.0472    1.7001    2.8282 H   0  0  0  0  0  0  0  0  0  0  0  0
   -1.7519    1.6840    2.3163 H   0  0  0  0  0  0  0  0  0  0  0  0
   -0.9828    0.1875    2.8970 H   0  0  0  0  0  0  0  0  0  0  0  0
   -1.2916   -0.2200   -0.7902 H   0  0  0  0  0  0  0  0  0  0  0  0
   -1.6519   -0.9662    0.7851 H   0  0  0  0  0  0  0  0  0  0  0  0
   -3.0221    1.0455    1.3813 H   0  0  0  0  0  0  0  0  0  0  0  0
   -2.7241    1.6974   -0.2479 H   0  0  0  0  0  0  0  0  0  0  0  0
   -4.6783   -1.0692    1.5645 H   0  0  0  0  0  0  0  0  0  0  0  0
   -6.0201   -1.2041   -2.4513 H   0  0  0  0  0  0  0  0  0  0  0  0
   -4.0080    0.4725   -2.3702 H   0  0  0  0  0  0  0  0  0  0  0  0
    0.0408   -1.3956    2.3941 H   0  0  0  0  0  0  0  0  0  0  0  0
    0.2909   -2.1029    0.7912 H   0  0  0  0  0  0  0  0  0  0  0  0
    2.3054   -1.5095    2.9665 H   0  0  0  0  0  0  0  0  0  0  0  0
    2.0323   -3.0263    2.0851 H   0  0  0  0  0  0  0  0  0  0  0  0
    4.1375   -2.0084    1.1792 H   0  0  0  0  0  0  0  0  0  0  0  0
    4.8158    0.3444   -2.5427 H   0  0  0  0  0  0  0  0  0  0  0  0
    1.7051   -1.1332   -2.2089 H   0  0  0  0  0  0  0  0  0  0  0  0
    0.7243   -1.9092   -0.9423 H   0  0  0  0  0  0  0  0  0  0  0  0
    0.1296   -0.4409   -1.7540 H   0  0  0  0  0  0  0  0  0  0  0  0
  1  2  1  0  0  0  0
  2  3  1  0  0  0  0
  3  4  1  0  0  0  0
  4  5  1  0  0  0  0
  5  6  1  0  0  0  0
  6  7  1  0  0  0  0
  2  7  1  0  0  0  0
  7  8  1  0  0  0  0
  7  9  1  0  0  0  0
  9 10  1  0  0  0  0
 10 11  1  0  0  0  0
 11 12  2  0  0  0  0
 12 13  1  0  0  0  0
 13 14  1  0  0  0  0
 14 15  2  0  0  0  0
 11 15  1  0  0  0  0
  6 16  1  0  0  0  0
 16 17  1  0  0  0  0
 17 18  1  0  0  0  0
 18 19  2  0  0  0  0
  5 19  1  0  0  0  0
 19 20  1  0  0  0  0
 20 21  2  0  0  0  0
 20 22  1  0  0  0  0
  5 23  1  0  0  0  0
  1 24  1  0  0  0  0
  1 25  1  0  0  0  0
  1 26  1  0  0  0  0
  2 27  1  0  0  0  0
  3 28  1  0  0  0  0
  3 29  1  0  0  0  0
  4 30  1  0  0  0  0
  4 31  1  0  0  0  0
  6 32  1  0  0  0  0
  8 33  1  0  0  0  0
  8 34  1  0  0  0  0
  8 35  1  0  0  0  0
  9 36  1  0  0  0  0
  9 37  1  0  0  0  0
 10 38  1  0  0  0  0
 10 39  1  0  0  0  0
 12 40  1  0  0  0  0
 14 41  1  0  0  0  0
 15 42  1  0  0  0  0
 16 43  1  0  0  0  0
 16 44  1  0  0  0  0
 17 45  1  0  0  0  0
 17 46  1  0  0  0  0
 18 47  1  0  0  0  0
 22 48  1  0  0  0  0
 23 49  1  0  0  0  0
 23 50  1  0  0  0  0
 23 51  1  0  0  0  0
M  END
$$$$
