C15H24
APtclcactv06291801043D 0   0.00000     0.00000
 
 39 39  0  0  0  0  0  0  0  0999 V2000
    2.5052    3.1595    0.1735 C   0  0  0  0  0  0  0  0  0  0  0  0
    1.9544    1.7638    0.0329 C   0  0  0  0  0  0  0  0  0  0  0  0
    2.7615    0.8098   -0.3234 C   0  0  0  0  0  0  0  0  0  0  0  0
    2.3130   -0.6115   -0.5003 C   0  0  0  0  0  0  0  0  0  0  0  0
    1.3732   -1.0184    0.6353 C   0  0  0  0  0  0  0  0  0  0  0  0
    0.6093   -2.2487    0.2394 C   0  0  0  0  0  0  0  0  0  0  0  0
   -0.6729   -2.2716    0.0035 C   0  0  0  0  0  0  0  0  0  0  0  0
   -1.6145   -1.1779    0.0422 C   0  0  0  0  0  0  0  0  0  0  0  0
   -1.4174    0.0745   -0.2634 C   0  0  0  0  0  0  0  0  0  0  0  0
   -0.1117    0.6270   -0.7572 C   0  0  0  0  0  0  0  0  0  0  0  0
    0.4985    1.5343    0.3163 C   0  0  0  0  0  0  0  0  0  0  0  0
   -2.5745    1.0280   -0.1116 C   0  0  0  0  0  0  0  0  0  0  0  0
   -3.7278    0.5776   -1.0104 C   0  0  0  0  0  0  0  0  0  0  0  0
   -3.0384    1.0391    1.3463 C   0  0  0  0  0  0  0  0  0  0  0  0
    1.3738   -3.5404    0.1055 C   0  0  0  0  0  0  0  0  0  0  0  0
    3.5697    3.1553   -0.0612 H   0  0  0  0  0  0  0  0  0  0  0  0
    1.9843    3.8266   -0.5133 H   0  0  0  0  0  0  0  0  0  0  0  0
    2.3602    3.5059    1.1968 H   0  0  0  0  0  0  0  0  0  0  0  0
    3.7995    1.0500   -0.5001 H   0  0  0  0  0  0  0  0  0  0  0  0
    1.7915   -0.7093   -1.4525 H   0  0  0  0  0  0  0  0  0  0  0  0
    3.1838   -1.2671   -0.5001 H   0  0  0  0  0  0  0  0  0  0  0  0
    1.9564   -1.2262    1.5323 H   0  0  0  0  0  0  0  0  0  0  0  0
    0.6745   -0.2065    0.8368 H   0  0  0  0  0  0  0  0  0  0  0  0
   -1.0848   -3.2359   -0.2552 H   0  0  0  0  0  0  0  0  0  0  0  0
   -2.6131   -1.4299    0.3672 H   0  0  0  0  0  0  0  0  0  0  0  0
    0.5730   -0.1942   -0.9691 H   0  0  0  0  0  0  0  0  0  0  0  0
   -0.2818    1.2015   -1.6677 H   0  0  0  0  0  0  0  0  0  0  0  0
    0.3862    1.0635    1.2929 H   0  0  0  0  0  0  0  0  0  0  0  0
   -0.0229    2.4916    0.3184 H   0  0  0  0  0  0  0  0  0  0  0  0
   -2.2592    2.0308   -0.4002 H   0  0  0  0  0  0  0  0  0  0  0  0
   -4.1054   -0.3839   -0.6625 H   0  0  0  0  0  0  0  0  0  0  0  0
   -4.5277    1.3171   -0.9731 H   0  0  0  0  0  0  0  0  0  0  0  0
   -3.3720    0.4787   -2.0360 H   0  0  0  0  0  0  0  0  0  0  0  0
   -3.3537    0.0364    1.6349 H   0  0  0  0  0  0  0  0  0  0  0  0
   -2.2168    1.3600    1.9866 H   0  0  0  0  0  0  0  0  0  0  0  0
   -3.8753    1.7288    1.4561 H   0  0  0  0  0  0  0  0  0  0  0  0
    1.3800   -4.0600    1.0638 H   0  0  0  0  0  0  0  0  0  0  0  0
    0.8960   -4.1693   -0.6456 H   0  0  0  0  0  0  0  0  0  0  0  0
    2.3985   -3.3264   -0.1983 H   0  0  0  0  0  0  0  0  0  0  0  0
  1  2  1  0  0  0  0
  2  3  2  0  0  0  0
  3  4  1  0  0  0  0
  4  5  1  0  0  0  0
  5  6  1  0  0  0  0
  6  7  2  0  0  0  0
  7  8  1  0  0  0  0
  8  9  2  0  0  0  0
  9 10  1  0  0  0  0
 10 11  1  0  0  0  0
  2 11  1  0  0  0  0
  9 12  1  0  0  0  0
 12 13  1  0  0  0  0
 12 14  1  0  0  0  0
  6 15  1  0  0  0  0
  1 16  1  0  0  0  0
  1 17  1  0  0  0  0
  1 18  1  0  0  0  0
  3 19  1  0  0  0  0
  4 20  1  0  0  0  0
  4 21  1  0  0  0  0
  5 22  1  0  0  0  0
  5 23  1  0  0  0  0
  7 24  1  0  0  0  0
  8 25  1  0  0  0  0
 10 26  1  0  0  0  0
 10 27  1  0  0  0  0
 11 28  1  0  0  0  0
 11 29  1  0  0  0  0
 12 30  1  0  0  0  0
 13 31  1  0  0  0  0
 13 32  1  0  0  0  0
 13 33  1  0  0  0  0
 14 34  1  0  0  0  0
 14 35  1  0  0  0  0
 14 36  1  0  0  0  0
 15 37  1  0  0  0  0
 15 38  1  0  0  0  0
 15 39  1  0  0  0  0
M  END
$$$$
