C15H22O5
APtclcactv06211806403D 0   0.00000     0.00000
 
 42 44  0  0  0  0  0  0  0  0999 V2000
    1.7425    2.3627    1.2195 C   0  0  0  0  0  0  0  0  0  0  0  0
    1.9447    1.6196   -0.1026 C   0  0  0  0  0  0  0  0  0  0  0  0
    3.4367    1.2216   -0.2767 C   0  0  0  0  0  0  0  0  0  0  0  0
    3.4811   -0.3348   -0.2683 C   0  0  0  0  0  0  0  0  0  0  0  0
    2.2067   -0.7042    0.4861 C   0  0  0  0  0  0  0  0  0  0  0  0
    1.1941    0.3078   -0.0889 C   0  0  0  0  0  0  0  0  0  0  0  0
   -0.1526    0.1530    0.5148 C   0  0  0  0  0  0  0  0  0  0  0  0
   -0.9867   -0.6538   -0.5408 C   0  0  0  0  0  0  0  0  0  0  0  0
   -0.6717   -2.0993   -0.4359 C   0  0  0  0  0  0  0  0  0  0  0  0
    0.7712   -2.4587   -0.7679 C   0  0  0  0  0  0  0  0  0  0  0  0
    1.6984   -2.1113    0.3655 C   0  0  0  0  0  0  0  0  0  0  0  0
    2.0563   -3.0238    1.2345 C   0  0  0  0  0  0  0  0  0  0  0  0
   -2.4134   -0.2137   -0.2183 C   0  0  0  0  0  0  0  0  0  0  0  0
   -2.2452    0.9300    0.7706 C   0  0  0  0  0  0  0  0  0  0  0  0
   -3.1137    1.3964    1.4691 O   0  0  0  0  0  0  0  0  0  0  0  0
   -0.9513    1.3347    0.7329 O   0  0  0  0  0  0  0  0  0  0  0  0
   -3.1206    0.2746   -1.4842 C   0  0  0  0  0  0  0  0  0  0  0  0
   -4.4091    0.7888   -1.1417 O   0  0  0  0  0  0  0  0  0  0  0  0
   -3.1432   -1.2869    0.3797 O   0  0  0  0  0  0  0  0  0  0  0  0
    3.9351    1.7196   -1.5200 O   0  0  0  0  0  0  0  0  0  0  0  0
    2.3340    3.2782    1.2158 H   0  0  0  0  0  0  0  0  0  0  0  0
    0.6881    2.6118    1.3386 H   0  0  0  0  0  0  0  0  0  0  0  0
    2.0613    1.7274    2.0458 H   0  0  0  0  0  0  0  0  0  0  0  0
    1.6168    2.2376   -0.9384 H   0  0  0  0  0  0  0  0  0  0  0  0
    4.0281    1.6171    0.5491 H   0  0  0  0  0  0  0  0  0  0  0  0
    3.4559   -0.7274   -1.2848 H   0  0  0  0  0  0  0  0  0  0  0  0
    4.3625   -0.6931    0.2636 H   0  0  0  0  0  0  0  0  0  0  0  0
    2.3525   -0.4836    1.5435 H   0  0  0  0  0  0  0  0  0  0  0  0
    1.0752    0.0242   -1.1346 H   0  0  0  0  0  0  0  0  0  0  0  0
   -0.0782   -0.4180    1.4403 H   0  0  0  0  0  0  0  0  0  0  0  0
   -0.7320   -0.3027   -1.5407 H   0  0  0  0  0  0  0  0  0  0  0  0
   -0.8833   -2.4258    0.5824 H   0  0  0  0  0  0  0  0  0  0  0  0
   -1.3282   -2.6457   -1.1130 H   0  0  0  0  0  0  0  0  0  0  0  0
    0.8356   -3.5286   -0.9661 H   0  0  0  0  0  0  0  0  0  0  0  0
    1.0784   -1.9129   -1.6599 H   0  0  0  0  0  0  0  0  0  0  0  0
    1.6856   -4.0339    1.1406 H   0  0  0  0  0  0  0  0  0  0  0  0
    2.7221   -2.7661    2.0449 H   0  0  0  0  0  0  0  0  0  0  0  0
   -2.5278    1.0612   -1.9511 H   0  0  0  0  0  0  0  0  0  0  0  0
   -3.2343   -0.5564   -2.1803 H   0  0  0  0  0  0  0  0  0  0  0  0
   -4.9152    1.1169   -1.8975 H   0  0  0  0  0  0  0  0  0  0  0  0
   -4.0566   -1.0636    0.6056 H   0  0  0  0  0  0  0  0  0  0  0  0
    4.8627    1.5034   -1.6868 H   0  0  0  0  0  0  0  0  0  0  0  0
  1  2  1  0  0  0  0
  2  3  1  0  0  0  0
  3  4  1  0  0  0  0
  4  5  1  0  0  0  0
  5  6  1  0  0  0  0
  2  6  1  0  0  0  0
  6  7  1  0  0  0  0
  7  8  1  0  0  0  0
  8  9  1  0  0  0  0
  9 10  1  0  0  0  0
 10 11  1  0  0  0  0
  5 11  1  0  0  0  0
 11 12  2  0  0  0  0
  8 13  1  0  0  0  0
 13 14  1  0  0  0  0
 14 15  2  0  0  0  0
 14 16  1  0  0  0  0
  7 16  1  0  0  0  0
 13 17  1  0  0  0  0
 17 18  1  0  0  0  0
 13 19  1  0  0  0  0
  3 20  1  0  0  0  0
  1 21  1  0  0  0  0
  1 22  1  0  0  0  0
  1 23  1  0  0  0  0
  2 24  1  0  0  0  0
  3 25  1  0  0  0  0
  4 26  1  0  0  0  0
  4 27  1  0  0  0  0
  5 28  1  0  0  0  0
  6 29  1  0  0  0  0
  7 30  1  0  0  0  0
  8 31  1  0  0  0  0
  9 32  1  0  0  0  0
  9 33  1  0  0  0  0
 10 34  1  0  0  0  0
 10 35  1  0  0  0  0
 12 36  1  0  0  0  0
 12 37  1  0  0  0  0
 17 38  1  0  0  0  0
 17 39  1  0  0  0  0
 18 40  1  0  0  0  0
 19 41  1  0  0  0  0
 20 42  1  0  0  0  0
M  END
$$$$
