C29H52O
APtclcactv06291801043D 0   0.00000     0.00000
 
 82 85  0  0  0  0  0  0  0  0999 V2000
    2.7052   -2.5227    1.8031 C   0  0  0  0  0  0  0  0  0  0  0  0
    2.3853   -2.3573    0.3161 C   0  0  0  0  0  0  0  0  0  0  0  0
    3.5522   -1.6557   -0.3817 C   0  0  0  0  0  0  0  0  0  0  0  0
    3.7962   -0.2958    0.2755 C   0  0  0  0  0  0  0  0  0  0  0  0
    2.5841    0.6083    0.0423 C   0  0  0  0  0  0  0  0  0  0  0  0
    2.7691    1.9179    0.8115 C   0  0  0  0  0  0  0  0  0  0  0  0
    4.1328    2.5216    0.4702 C   0  0  0  0  0  0  0  0  0  0  0  0
    1.6689    2.8957    0.4209 C   0  0  0  0  0  0  0  0  0  0  0  0
    1.7275    3.1936   -1.1020 C   0  0  0  0  0  0  0  0  0  0  0  0
    0.4524    2.5534   -1.7235 C   0  0  0  0  0  0  0  0  0  0  0  0
    0.0872    1.4966   -0.6700 C   0  0  0  0  0  0  0  0  0  0  0  0
    0.2634    2.3030    0.6342 C   0  0  0  0  0  0  0  0  0  0  0  0
    0.0675    1.4078    1.8253 C   0  0  0  0  0  0  0  0  0  0  0  0
   -1.2593    0.6378    1.7441 C   0  0  0  0  0  0  0  0  0  0  0  0
   -2.0692    0.9431    0.5014 C   0  0  0  0  0  0  0  0  0  0  0  0
   -1.2494    0.8348   -0.7793 C   0  0  0  0  0  0  0  0  0  0  0  0
   -2.0814    1.3408   -1.9574 C   0  0  0  0  0  0  0  0  0  0  0  0
   -3.3363    0.4694   -2.0890 C   0  0  0  0  0  0  0  0  0  0  0  0
   -3.3389   -0.6021   -1.0027 C   0  0  0  0  0  0  0  0  0  0  0  0
   -3.2931    0.0197    0.3899 C   0  0  0  0  0  0  0  0  0  0  0  0
   -3.2238   -1.0912    1.4356 C   0  0  0  0  0  0  0  0  0  0  0  0
   -4.4359   -2.0150    1.3111 C   0  0  0  0  0  0  0  0  0  0  0  0
   -4.5172   -2.6087   -0.0936 C   0  0  0  0  0  0  0  0  0  0  0  0
   -4.5702   -1.4975   -1.1425 C   0  0  0  0  0  0  0  0  0  0  0  0
   -3.3785   -3.4392   -0.3311 O   0  0  0  0  0  0  0  0  0  0  0  0
   -4.5403    0.8749    0.6388 C   0  0  0  0  0  0  0  0  0  0  0  0
   -0.6778    3.5133    0.7089 C   0  0  0  0  0  0  0  0  0  0  0  0
    4.8118   -2.5153   -0.2579 C   0  0  0  0  0  0  0  0  0  0  0  0
    4.5677   -3.8753   -0.9151 C   0  0  0  0  0  0  0  0  0  0  0  0
    5.9787   -1.8137   -0.9557 C   0  0  0  0  0  0  0  0  0  0  0  0
    1.8531   -2.9755    2.3099 H   0  0  0  0  0  0  0  0  0  0  0  0
    3.5790   -3.1642    1.9176 H   0  0  0  0  0  0  0  0  0  0  0  0
    2.9115   -1.5461    2.2412 H   0  0  0  0  0  0  0  0  0  0  0  0
    2.2298   -3.3380   -0.1334 H   0  0  0  0  0  0  0  0  0  0  0  0
    1.4814   -1.7585    0.2033 H   0  0  0  0  0  0  0  0  0  0  0  0
    3.3123   -1.5122   -1.4352 H   0  0  0  0  0  0  0  0  0  0  0  0
    3.9474   -0.4317    1.3464 H   0  0  0  0  0  0  0  0  0  0  0  0
    4.6824    0.1649   -0.1609 H   0  0  0  0  0  0  0  0  0  0  0  0
    2.4901    0.8224   -1.0223 H   0  0  0  0  0  0  0  0  0  0  0  0
    1.6829    0.1052    0.3927 H   0  0  0  0  0  0  0  0  0  0  0  0
    2.7167    1.7208    1.8823 H   0  0  0  0  0  0  0  0  0  0  0  0
    4.1693    2.7590   -0.5930 H   0  0  0  0  0  0  0  0  0  0  0  0
    4.2829    3.4317    1.0510 H   0  0  0  0  0  0  0  0  0  0  0  0
    4.9179    1.8043    0.7094 H   0  0  0  0  0  0  0  0  0  0  0  0
    1.7588    3.8235    0.9852 H   0  0  0  0  0  0  0  0  0  0  0  0
    1.7253    4.2686   -1.2711 H   0  0  0  0  0  0  0  0  0  0  0  0
    2.6184    2.7417   -1.5345 H   0  0  0  0  0  0  0  0  0  0  0  0
   -0.3328    3.2831   -1.8673 H   0  0  0  0  0  0  0  0  0  0  0  0
    0.7023    2.0691   -2.6713 H   0  0  0  0  0  0  0  0  0  0  0  0
    0.8646    0.7056   -0.7109 H   0  0  0  0  0  0  0  0  0  0  0  0
    0.8792    0.6748    1.9112 H   0  0  0  0  0  0  0  0  0  0  0  0
    0.0748    2.0126    2.7448 H   0  0  0  0  0  0  0  0  0  0  0  0
   -1.0340   -0.4372    1.7803 H   0  0  0  0  0  0  0  0  0  0  0  0
   -1.8577    0.8738    2.6349 H   0  0  0  0  0  0  0  0  0  0  0  0
   -2.5014    1.9476    0.5777 H   0  0  0  0  0  0  0  0  0  0  0  0
   -1.0552   -0.2428   -0.9625 H   0  0  0  0  0  0  0  0  0  0  0  0
   -2.3739    2.3754   -1.7816 H   0  0  0  0  0  0  0  0  0  0  0  0
   -1.4957    1.2753   -2.8739 H   0  0  0  0  0  0  0  0  0  0  0  0
   -4.2259    1.0901   -2.0203 H   0  0  0  0  0  0  0  0  0  0  0  0
   -3.3257   -0.0172   -3.0702 H   0  0  0  0  0  0  0  0  0  0  0  0
   -2.4529   -1.2380   -1.1365 H   0  0  0  0  0  0  0  0  0  0  0  0
   -2.3135   -1.6755    1.2877 H   0  0  0  0  0  0  0  0  0  0  0  0
   -3.2100   -0.6518    2.4348 H   0  0  0  0  0  0  0  0  0  0  0  0
   -4.3274   -2.8341    2.0328 H   0  0  0  0  0  0  0  0  0  0  0  0
   -5.3529   -1.4794    1.5433 H   0  0  0  0  0  0  0  0  0  0  0  0
   -5.4224   -3.2173   -0.1729 H   0  0  0  0  0  0  0  0  0  0  0  0
   -5.4838   -0.9218   -1.0338 H   0  0  0  0  0  0  0  0  0  0  0  0
   -4.5634   -1.9527   -2.1396 H   0  0  0  0  0  0  0  0  0  0  0  0
   -3.2962   -4.1796    0.2855 H   0  0  0  0  0  0  0  0  0  0  0  0
   -5.4305    0.2509    0.5593 H   0  0  0  0  0  0  0  0  0  0  0  0
   -4.4894    1.3098    1.6370 H   0  0  0  0  0  0  0  0  0  0  0  0
   -4.5881    1.6722   -0.1029 H   0  0  0  0  0  0  0  0  0  0  0  0
   -1.7064    3.1678    0.8128 H   0  0  0  0  0  0  0  0  0  0  0  0
   -0.4123    4.1275    1.5694 H   0  0  0  0  0  0  0  0  0  0  0  0
   -0.5832    4.1041   -0.2022 H   0  0  0  0  0  0  0  0  0  0  0  0
    5.0516   -2.6588    0.7957 H   0  0  0  0  0  0  0  0  0  0  0  0
    5.4651   -4.4877   -0.8269 H   0  0  0  0  0  0  0  0  0  0  0  0
    3.7364   -4.3751   -0.4180 H   0  0  0  0  0  0  0  0  0  0  0  0
    4.3278   -3.7318   -1.9687 H   0  0  0  0  0  0  0  0  0  0  0  0
    6.1526   -0.8449   -0.4874 H   0  0  0  0  0  0  0  0  0  0  0  0
    6.8760   -2.4262   -0.8675 H   0  0  0  0  0  0  0  0  0  0  0  0
    5.7388   -1.6703   -2.0092 H   0  0  0  0  0  0  0  0  0  0  0  0
  1  2  1  0  0  0  0
  2  3  1  0  0  0  0
  3  4  1  0  0  0  0
  4  5  1  0  0  0  0
  5  6  1  0  0  0  0
  6  7  1  0  0  0  0
  6  8  1  0  0  0  0
  8  9  1  0  0  0  0
  9 10  1  0  0  0  0
 10 11  1  0  0  0  0
 11 12  1  0  0  0  0
  8 12  1  0  0  0  0
 12 13  1  0  0  0  0
 13 14  1  0  0  0  0
 14 15  1  0  0  0  0
 15 16  1  0  0  0  0
 11 16  1  0  0  0  0
 16 17  1  0  0  0  0
 17 18  1  0  0  0  0
 18 19  1  0  0  0  0
 19 20  1  0  0  0  0
 15 20  1  0  0  0  0
 20 21  1  0  0  0  0
 21 22  1  0  0  0  0
 22 23  1  0  0  0  0
 23 24  1  0  0  0  0
 19 24  1  0  0  0  0
 23 25  1  0  0  0  0
 20 26  1  0  0  0  0
 12 27  1  0  0  0  0
  3 28  1  0  0  0  0
 28 29  1  0  0  0  0
 28 30  1  0  0  0  0
  1 31  1  0  0  0  0
  1 32  1  0  0  0  0
  1 33  1  0  0  0  0
  2 34  1  0  0  0  0
  2 35  1  0  0  0  0
  3 36  1  0  0  0  0
  4 37  1  0  0  0  0
  4 38  1  0  0  0  0
  5 39  1  0  0  0  0
  5 40  1  0  0  0  0
  6 41  1  0  0  0  0
  7 42  1  0  0  0  0
  7 43  1  0  0  0  0
  7 44  1  0  0  0  0
  8 45  1  0  0  0  0
  9 46  1  0  0  0  0
  9 47  1  0  0  0  0
 10 48  1  0  0  0  0
 10 49  1  0  0  0  0
 11 50  1  0  0  0  0
 13 51  1  0  0  0  0
 13 52  1  0  0  0  0
 14 53  1  0  0  0  0
 14 54  1  0  0  0  0
 15 55  1  0  0  0  0
 16 56  1  0  0  0  0
 17 57  1  0  0  0  0
 17 58  1  0  0  0  0
 18 59  1  0  0  0  0
 18 60  1  0  0  0  0
 19 61  1  0  0  0  0
 21 62  1  0  0  0  0
 21 63  1  0  0  0  0
 22 64  1  0  0  0  0
 22 65  1  0  0  0  0
 23 66  1  0  0  0  0
 24 67  1  0  0  0  0
 24 68  1  0  0  0  0
 25 69  1  0  0  0  0
 26 70  1  0  0  0  0
 26 71  1  0  0  0  0
 26 72  1  0  0  0  0
 27 73  1  0  0  0  0
 27 74  1  0  0  0  0
 27 75  1  0  0  0  0
 28 76  1  0  0  0  0
 29 77  1  0  0  0  0
 29 78  1  0  0  0  0
 29 79  1  0  0  0  0
 30 80  1  0  0  0  0
 30 81  1  0  0  0  0
 30 82  1  0  0  0  0
M  END
$$$$
