C18H16O7
APtclcactv06291802403D 0   0.00000     0.00000
 
 41 43  0  0  0  0  0  0  0  0999 V2000
    7.3684   -0.2962   -0.8566 C   0  0  0  0  0  0  0  0  0  0  0  0
    6.5421   -1.0387    0.0423 O   0  0  0  0  0  0  0  0  0  0  0  0
    5.2195   -0.7314    0.0603 C   0  0  0  0  0  0  0  0  0  0  0  0
    4.3609   -1.4159    0.9117 C   0  0  0  0  0  0  0  0  0  0  0  0
    3.0186   -1.1073    0.9336 C   0  0  0  0  0  0  0  0  0  0  0  0
    2.5207   -0.1036    0.0977 C   0  0  0  0  0  0  0  0  0  0  0  0
    3.3882    0.5824   -0.7572 C   0  0  0  0  0  0  0  0  0  0  0  0
    4.7299    0.2706   -0.7686 C   0  0  0  0  0  0  0  0  0  0  0  0
    1.0845    0.2301    0.1172 C   0  0  0  0  0  0  0  0  0  0  0  0
    0.7163    1.5400    0.1912 C   0  0  0  0  0  0  0  0  0  0  0  0
   -0.6615    1.8777    0.2109 C   0  0  0  0  0  0  0  0  0  0  0  0
   -1.0285    3.0402    0.2762 O   0  0  0  0  0  0  0  0  0  0  0  0
   -1.6310    0.7722    0.1491 C   0  0  0  0  0  0  0  0  0  0  0  0
   -3.0101    1.0147    0.1629 C   0  0  0  0  0  0  0  0  0  0  0  0
   -3.8908   -0.0532    0.1027 C   0  0  0  0  0  0  0  0  0  0  0  0
   -3.4041   -1.3570    0.0295 C   0  0  0  0  0  0  0  0  0  0  0  0
   -2.0401   -1.6014    0.0160 C   0  0  0  0  0  0  0  0  0  0  0  0
   -1.1440   -0.5450    0.0746 C   0  0  0  0  0  0  0  0  0  0  0  0
    0.1874   -0.7686    0.0559 O   0  0  0  0  0  0  0  0  0  0  0  0
   -4.2748   -2.3981   -0.0288 O   0  0  0  0  0  0  0  0  0  0  0  0
   -3.7133   -3.7101   -0.1024 C   0  0  0  0  0  0  0  0  0  0  0  0
   -5.2336    0.1715    0.1154 O   0  0  0  0  0  0  0  0  0  0  0  0
   -5.8736    0.3503   -1.1497 C   0  0  0  0  0  0  0  0  0  0  0  0
   -3.4807    2.2868    0.2352 O   0  0  0  0  0  0  0  0  0  0  0  0
    1.6627    2.5164    0.2462 O   0  0  0  0  0  0  0  0  0  0  0  0
    8.3991   -0.6405   -0.7711 H   0  0  0  0  0  0  0  0  0  0  0  0
    7.0192   -0.4452   -1.8783 H   0  0  0  0  0  0  0  0  0  0  0  0
    7.3173    0.7633   -0.6060 H   0  0  0  0  0  0  0  0  0  0  0  0
    4.7464   -2.1914    1.5570 H   0  0  0  0  0  0  0  0  0  0  0  0
    2.3519   -1.6401    1.5955 H   0  0  0  0  0  0  0  0  0  0  0  0
    3.0078    1.3585   -1.4048 H   0  0  0  0  0  0  0  0  0  0  0  0
    5.4009    0.8003   -1.4285 H   0  0  0  0  0  0  0  0  0  0  0  0
   -1.6746   -2.6161   -0.0402 H   0  0  0  0  0  0  0  0  0  0  0  0
   -4.5156   -4.4468   -0.1436 H   0  0  0  0  0  0  0  0  0  0  0  0
   -3.0982   -3.7923   -0.9985 H   0  0  0  0  0  0  0  0  0  0  0  0
   -3.0979   -3.8919    0.7787 H   0  0  0  0  0  0  0  0  0  0  0  0
   -6.9393    0.5206   -0.9969 H   0  0  0  0  0  0  0  0  0  0  0  0
   -5.4376    1.2097   -1.6591 H   0  0  0  0  0  0  0  0  0  0  0  0
   -5.7319   -0.5429   -1.7580 H   0  0  0  0  0  0  0  0  0  0  0  0
   -3.6170    2.7053   -0.6259 H   0  0  0  0  0  0  0  0  0  0  0  0
    1.3014    3.4120    0.2968 H   0  0  0  0  0  0  0  0  0  0  0  0
  1  2  1  0  0  0  0
  2  3  1  0  0  0  0
  3  4  2  0  0  0  0
  4  5  1  0  0  0  0
  5  6  2  0  0  0  0
  6  7  1  0  0  0  0
  7  8  2  0  0  0  0
  3  8  1  0  0  0  0
  6  9  1  0  0  0  0
  9 10  2  0  0  0  0
 10 11  1  0  0  0  0
 11 12  2  0  0  0  0
 11 13  1  0  0  0  0
 13 14  2  0  0  0  0
 14 15  1  0  0  0  0
 15 16  2  0  0  0  0
 16 17  1  0  0  0  0
 17 18  2  0  0  0  0
 13 18  1  0  0  0  0
 18 19  1  0  0  0  0
  9 19  1  0  0  0  0
 16 20  1  0  0  0  0
 20 21  1  0  0  0  0
 15 22  1  0  0  0  0
 22 23  1  0  0  0  0
 14 24  1  0  0  0  0
 10 25  1  0  0  0  0
  1 26  1  0  0  0  0
  1 27  1  0  0  0  0
  1 28  1  0  0  0  0
  4 29  1  0  0  0  0
  5 30  1  0  0  0  0
  7 31  1  0  0  0  0
  8 32  1  0  0  0  0
 17 33  1  0  0  0  0
 21 34  1  0  0  0  0
 21 35  1  0  0  0  0
 21 36  1  0  0  0  0
 23 37  1  0  0  0  0
 23 38  1  0  0  0  0
 23 39  1  0  0  0  0
 24 40  1  0  0  0  0
 25 41  1  0  0  0  0
M  END
$$$$
