C27H30O16
APtclcactv06291802403D 0   0.00000     0.00000
 
 73 77  0  0  0  0  0  0  0  0999 V2000
   -6.2649   -1.8319   -0.2638 C   0  0  0  0  0  0  0  0  0  0  0  0
   -7.5964   -1.4794   -0.2181 C   0  0  0  0  0  0  0  0  0  0  0  0
   -7.9632   -0.1807    0.1069 C   0  0  0  0  0  0  0  0  0  0  0  0
   -6.9865    0.7731    0.3885 C   0  0  0  0  0  0  0  0  0  0  0  0
   -5.6498    0.4268    0.3446 C   0  0  0  0  0  0  0  0  0  0  0  0
   -5.2804   -0.8808    0.0174 C   0  0  0  0  0  0  0  0  0  0  0  0
   -3.8547   -1.2562   -0.0306 C   0  0  0  0  0  0  0  0  0  0  0  0
   -3.5258   -2.5363   -0.3521 C   0  0  0  0  0  0  0  0  0  0  0  0
   -2.1633   -2.9149   -0.4031 C   0  0  0  0  0  0  0  0  0  0  0  0
   -1.8321   -4.0544   -0.6882 O   0  0  0  0  0  0  0  0  0  0  0  0
   -1.1605   -1.8800   -0.0991 C   0  0  0  0  0  0  0  0  0  0  0  0
    0.2101   -2.1653   -0.1261 C   0  0  0  0  0  0  0  0  0  0  0  0
    1.1197   -1.1652    0.1652 C   0  0  0  0  0  0  0  0  0  0  0  0
    0.6746    0.1132    0.4822 C   0  0  0  0  0  0  0  0  0  0  0  0
   -0.6811    0.4026    0.5108 C   0  0  0  0  0  0  0  0  0  0  0  0
   -1.6078   -0.5865    0.2218 C   0  0  0  0  0  0  0  0  0  0  0  0
   -2.9311   -0.3200    0.2394 O   0  0  0  0  0  0  0  0  0  0  0  0
    1.5760    1.0875    0.7670 O   0  0  0  0  0  0  0  0  0  0  0  0
    1.0558    2.3798    1.0850 C   0  0  0  0  0  0  0  0  0  0  0  0
    2.2039    3.3055    1.4958 C   0  0  0  0  0  0  0  0  0  0  0  0
    3.1650    3.4692    0.3143 C   0  0  0  0  0  0  0  0  0  0  0  0
    2.3879    4.0067   -0.8912 C   0  0  0  0  0  0  0  0  0  0  0  0
    1.2326    3.0539   -1.2098 C   0  0  0  0  0  0  0  0  0  0  0  0
    0.3946    2.9223   -0.0598 O   0  0  0  0  0  0  0  0  0  0  0  0
    0.4153    3.6148   -2.3753 C   0  0  0  0  0  0  0  0  0  0  0  0
   -0.5913    2.6716   -2.7485 O   0  0  0  0  0  0  0  0  0  0  0  0
    1.8680    5.3021   -0.5853 O   0  0  0  0  0  0  0  0  0  0  0  0
    4.2006    4.3896    0.6645 O   0  0  0  0  0  0  0  0  0  0  0  0
    1.6792    4.5823    1.8649 O   0  0  0  0  0  0  0  0  0  0  0  0
    2.5970   -1.4620    0.1394 C   0  0  0  0  0  0  0  0  0  0  0  0
    2.9779   -2.2667    1.3847 C   0  0  0  0  0  0  0  0  0  0  0  0
    4.4680   -2.6159    1.3214 C   0  0  0  0  0  0  0  0  0  0  0  0
    4.7467   -3.3835    0.0255 C   0  0  0  0  0  0  0  0  0  0  0  0
    4.2975   -2.5356   -1.1674 C   0  0  0  0  0  0  0  0  0  0  0  0
    2.9104   -2.2204   -1.0305 O   0  0  0  0  0  0  0  0  0  0  0  0
    5.1130   -1.2418   -1.2096 C   0  0  0  0  0  0  0  0  0  0  0  0
    4.8033   -0.5224   -2.4049 O   0  0  0  0  0  0  0  0  0  0  0  0
    6.1465   -3.6515   -0.0792 O   0  0  0  0  0  0  0  0  0  0  0  0
    5.2418   -1.4146    1.3413 O   0  0  0  0  0  0  0  0  0  0  0  0
    2.7193   -1.4876    2.5544 O   0  0  0  0  0  0  0  0  0  0  0  0
    0.6425   -3.4139   -0.4353 O   0  0  0  0  0  0  0  0  0  0  0  0
   -7.3495    2.0447    0.7061 O   0  0  0  0  0  0  0  0  0  0  0  0
   -9.2771    0.1617    0.1502 O   0  0  0  0  0  0  0  0  0  0  0  0
   -5.9825   -2.8442   -0.5126 H   0  0  0  0  0  0  0  0  0  0  0  0
   -8.3563   -2.2153   -0.4359 H   0  0  0  0  0  0  0  0  0  0  0  0
   -4.8920    1.1650    0.5622 H   0  0  0  0  0  0  0  0  0  0  0  0
   -4.2993   -3.2589   -0.5665 H   0  0  0  0  0  0  0  0  0  0  0  0
   -1.0151    1.3993    0.7584 H   0  0  0  0  0  0  0  0  0  0  0  0
    0.3462    2.2936    1.9079 H   0  0  0  0  0  0  0  0  0  0  0  0
    2.7370    2.8713    2.3416 H   0  0  0  0  0  0  0  0  0  0  0  0
    3.6034    2.5030    0.0643 H   0  0  0  0  0  0  0  0  0  0  0  0
    3.0525    4.0740   -1.7525 H   0  0  0  0  0  0  0  0  0  0  0  0
    1.6318    2.0770   -1.4824 H   0  0  0  0  0  0  0  0  0  0  0  0
   -0.0569    4.5490   -2.0715 H   0  0  0  0  0  0  0  0  0  0  0  0
    1.0730    3.7995   -3.2246 H   0  0  0  0  0  0  0  0  0  0  0  0
   -1.1489    2.9616   -3.4835 H   0  0  0  0  0  0  0  0  0  0  0  0
    2.5458    5.9568   -0.3684 H   0  0  0  0  0  0  0  0  0  0  0  0
    4.7296    4.1152    1.4260 H   0  0  0  0  0  0  0  0  0  0  0  0
    1.0580    4.5531    2.6054 H   0  0  0  0  0  0  0  0  0  0  0  0
    3.1556   -0.5261    0.1264 H   0  0  0  0  0  0  0  0  0  0  0  0
    2.3901   -3.1839    1.4196 H   0  0  0  0  0  0  0  0  0  0  0  0
    4.7338   -3.2365    2.1772 H   0  0  0  0  0  0  0  0  0  0  0  0
    4.1946   -4.3233    0.0330 H   0  0  0  0  0  0  0  0  0  0  0  0
    4.4540   -3.0945   -2.0900 H   0  0  0  0  0  0  0  0  0  0  0  0
    4.8670   -0.6288   -0.3426 H   0  0  0  0  0  0  0  0  0  0  0  0
    6.1761   -1.4818   -1.1951 H   0  0  0  0  0  0  0  0  0  0  0  0
    5.2852    0.3107   -2.4985 H   0  0  0  0  0  0  0  0  0  0  0  0
    6.5009   -4.1816    0.6477 H   0  0  0  0  0  0  0  0  0  0  0  0
    6.1968   -1.5613    1.3036 H   0  0  0  0  0  0  0  0  0  0  0  0
    2.9380   -1.9366    3.3824 H   0  0  0  0  0  0  0  0  0  0  0  0
    0.7971   -3.5540   -1.3796 H   0  0  0  0  0  0  0  0  0  0  0  0
   -7.4841    2.1905    1.6525 H   0  0  0  0  0  0  0  0  0  0  0  0
   -9.6873    0.0386    1.0172 H   0  0  0  0  0  0  0  0  0  0  0  0
  1  2  2  0  0  0  0
  2  3  1  0  0  0  0
  3  4  2  0  0  0  0
  4  5  1  0  0  0  0
  5  6  2  0  0  0  0
  1  6  1  0  0  0  0
  6  7  1  0  0  0  0
  7  8  2  0  0  0  0
  8  9  1  0  0  0  0
  9 10  2  0  0  0  0
  9 11  1  0  0  0  0
 11 12  2  0  0  0  0
 12 13  1  0  0  0  0
 13 14  2  0  0  0  0
 14 15  1  0  0  0  0
 15 16  2  0  0  0  0
 11 16  1  0  0  0  0
 16 17  1  0  0  0  0
  7 17  1  0  0  0  0
 14 18  1  0  0  0  0
 18 19  1  0  0  0  0
 19 20  1  0  0  0  0
 20 21  1  0  0  0  0
 21 22  1  0  0  0  0
 22 23  1  0  0  0  0
 23 24  1  0  0  0  0
 19 24  1  0  0  0  0
 23 25  1  0  0  0  0
 25 26  1  0  0  0  0
 22 27  1  0  0  0  0
 21 28  1  0  0  0  0
 20 29  1  0  0  0  0
 13 30  1  0  0  0  0
 30 31  1  0  0  0  0
 31 32  1  0  0  0  0
 32 33  1  0  0  0  0
 33 34  1  0  0  0  0
 34 35  1  0  0  0  0
 30 35  1  0  0  0  0
 34 36  1  0  0  0  0
 36 37  1  0  0  0  0
 33 38  1  0  0  0  0
 32 39  1  0  0  0  0
 31 40  1  0  0  0  0
 12 41  1  0  0  0  0
  4 42  1  0  0  0  0
  3 43  1  0  0  0  0
  1 44  1  0  0  0  0
  2 45  1  0  0  0  0
  5 46  1  0  0  0  0
  8 47  1  0  0  0  0
 15 48  1  0  0  0  0
 19 49  1  0  0  0  0
 20 50  1  0  0  0  0
 21 51  1  0  0  0  0
 22 52  1  0  0  0  0
 23 53  1  0  0  0  0
 25 54  1  0  0  0  0
 25 55  1  0  0  0  0
 26 56  1  0  0  0  0
 27 57  1  0  0  0  0
 28 58  1  0  0  0  0
 29 59  1  0  0  0  0
 30 60  1  0  0  0  0
 31 61  1  0  0  0  0
 32 62  1  0  0  0  0
 33 63  1  0  0  0  0
 34 64  1  0  0  0  0
 36 65  1  0  0  0  0
 36 66  1  0  0  0  0
 37 67  1  0  0  0  0
 38 68  1  0  0  0  0
 39 69  1  0  0  0  0
 40 70  1  0  0  0  0
 41 71  1  0  0  0  0
 42 72  1  0  0  0  0
 43 73  1  0  0  0  0
M  END
$$$$
