C37H30O16
APtclcactv06291802403D 0   0.00000     0.00000
 
 83 89  0  0  0  0  0  0  0  0999 V2000
    1.3480   -1.2292    2.8853 C   0  0  0  0  0  0  0  0  0  0  0  0
    2.0672   -1.8171    1.6687 C   0  0  0  0  0  0  0  0  0  0  0  0
    1.0073   -2.2993    0.6699 C   0  0  0  0  0  0  0  0  0  0  0  0
    0.2782   -1.1633    0.2036 O   0  0  0  0  0  0  0  0  0  0  0  0
   -0.2007   -0.2917    1.1293 C   0  0  0  0  0  0  0  0  0  0  0  0
    0.2752   -0.2735    2.4280 C   0  0  0  0  0  0  0  0  0  0  0  0
   -0.2396    0.6394    3.3418 C   0  0  0  0  0  0  0  0  0  0  0  0
   -1.2298    1.5286    2.9581 C   0  0  0  0  0  0  0  0  0  0  0  0
   -1.7097    1.5086    1.6570 C   0  0  0  0  0  0  0  0  0  0  0  0
   -1.1959    0.6013    0.7455 C   0  0  0  0  0  0  0  0  0  0  0  0
   -1.7176    0.5809   -0.6681 C   0  0  0  0  0  0  0  0  0  0  0  0
   -3.0238   -0.2156   -0.7175 C   0  0  0  0  0  0  0  0  0  0  0  0
   -4.1206    0.6159   -0.0400 C   0  0  0  0  0  0  0  0  0  0  0  0
   -4.3332    1.7969   -0.8145 O   0  0  0  0  0  0  0  0  0  0  0  0
   -3.2440    2.5237   -1.1764 C   0  0  0  0  0  0  0  0  0  0  0  0
   -3.4340    3.8336   -1.6029 C   0  0  0  0  0  0  0  0  0  0  0  0
   -2.3510    4.6080   -1.9856 C   0  0  0  0  0  0  0  0  0  0  0  0
   -1.0713    4.0758   -1.9432 C   0  0  0  0  0  0  0  0  0  0  0  0
   -0.8804    2.7716   -1.5162 C   0  0  0  0  0  0  0  0  0  0  0  0
   -1.9664    1.9940   -1.1315 C   0  0  0  0  0  0  0  0  0  0  0  0
    0.3738    2.2502   -1.4742 O   0  0  0  0  0  0  0  0  0  0  0  0
   -2.5425    5.8872   -2.4025 O   0  0  0  0  0  0  0  0  0  0  0  0
   -5.3960   -0.1840    0.0265 C   0  0  0  0  0  0  0  0  0  0  0  0
   -5.7510   -0.8198    1.2016 C   0  0  0  0  0  0  0  0  0  0  0  0
   -6.9233   -1.5557    1.2644 C   0  0  0  0  0  0  0  0  0  0  0  0
   -7.7411   -1.6528    0.1427 C   0  0  0  0  0  0  0  0  0  0  0  0
   -7.3795   -1.0132   -1.0320 C   0  0  0  0  0  0  0  0  0  0  0  0
   -6.2114   -0.2759   -1.0863 C   0  0  0  0  0  0  0  0  0  0  0  0
   -8.8925   -2.3743    0.1992 O   0  0  0  0  0  0  0  0  0  0  0  0
   -7.2737   -2.1821    2.4195 O   0  0  0  0  0  0  0  0  0  0  0  0
   -3.3823   -0.4691   -2.0774 O   0  0  0  0  0  0  0  0  0  0  0  0
   -2.6829    2.3777    1.2772 O   0  0  0  0  0  0  0  0  0  0  0  0
    0.2305    0.6590    4.6166 O   0  0  0  0  0  0  0  0  0  0  0  0
    1.6793   -2.9833   -0.4927 C   0  0  0  0  0  0  0  0  0  0  0  0
    1.7345   -4.3638   -0.5425 C   0  0  0  0  0  0  0  0  0  0  0  0
    2.3520   -4.9943   -1.6108 C   0  0  0  0  0  0  0  0  0  0  0  0
    2.9155   -4.2350   -2.6317 C   0  0  0  0  0  0  0  0  0  0  0  0
    2.8567   -2.8517   -2.5755 C   0  0  0  0  0  0  0  0  0  0  0  0
    2.2342   -2.2291   -1.5098 C   0  0  0  0  0  0  0  0  0  0  0  0
    3.5230   -4.8491   -3.6820 O   0  0  0  0  0  0  0  0  0  0  0  0
    2.4075   -6.3521   -1.6612 O   0  0  0  0  0  0  0  0  0  0  0  0
    2.8953   -0.7977    1.0497 O   0  0  0  0  0  0  0  0  0  0  0  0
    4.1647   -0.6907    1.4889 C   0  0  0  0  0  0  0  0  0  0  0  0
    4.5686   -1.4292    2.3652 O   0  0  0  0  0  0  0  0  0  0  0  0
    5.0638    0.3226    0.9060 C   0  0  0  0  0  0  0  0  0  0  0  0
    6.3807    0.4346    1.3606 C   0  0  0  0  0  0  0  0  0  0  0  0
    7.2212    1.3848    0.8123 C   0  0  0  0  0  0  0  0  0  0  0  0
    6.7572    2.2301   -0.1923 C   0  0  0  0  0  0  0  0  0  0  0  0
    5.4457    2.1207   -0.6472 C   0  0  0  0  0  0  0  0  0  0  0  0
    4.6023    1.1688   -0.1061 C   0  0  0  0  0  0  0  0  0  0  0  0
    4.9957    2.9479   -1.6284 O   0  0  0  0  0  0  0  0  0  0  0  0
    7.5856    3.1637   -0.7294 O   0  0  0  0  0  0  0  0  0  0  0  0
    8.5027    1.4946    1.2545 O   0  0  0  0  0  0  0  0  0  0  0  0
    0.8942   -2.0347    3.4626 H   0  0  0  0  0  0  0  0  0  0  0  0
    2.0662   -0.6969    3.5090 H   0  0  0  0  0  0  0  0  0  0  0  0
    2.6884   -2.6572    1.9795 H   0  0  0  0  0  0  0  0  0  0  0  0
    0.3278   -2.9946    1.1628 H   0  0  0  0  0  0  0  0  0  0  0  0
   -1.6272    2.2363    3.6706 H   0  0  0  0  0  0  0  0  0  0  0  0
   -0.9812    0.1106   -1.3198 H   0  0  0  0  0  0  0  0  0  0  0  0
   -2.8986   -1.1599   -0.1878 H   0  0  0  0  0  0  0  0  0  0  0  0
   -3.8050    0.8891    0.9670 H   0  0  0  0  0  0  0  0  0  0  0  0
   -4.4304    4.2490   -1.6361 H   0  0  0  0  0  0  0  0  0  0  0  0
   -0.2253    4.6765   -2.2428 H   0  0  0  0  0  0  0  0  0  0  0  0
    0.8276    2.3847   -0.6309 H   0  0  0  0  0  0  0  0  0  0  0  0
   -2.5075    6.5419   -1.6917 H   0  0  0  0  0  0  0  0  0  0  0  0
   -5.1143   -0.7431    2.0706 H   0  0  0  0  0  0  0  0  0  0  0  0
   -8.0124   -1.0870   -1.9040 H   0  0  0  0  0  0  0  0  0  0  0  0
   -5.9306    0.2222   -2.0025 H   0  0  0  0  0  0  0  0  0  0  0  0
   -9.6650   -1.8614    0.4735 H   0  0  0  0  0  0  0  0  0  0  0  0
   -7.8143   -1.6415    3.0117 H   0  0  0  0  0  0  0  0  0  0  0  0
   -4.2023   -0.9710   -2.1809 H   0  0  0  0  0  0  0  0  0  0  0  0
   -2.3525    3.2472    1.0129 H   0  0  0  0  0  0  0  0  0  0  0  0
    0.9844    1.2501    4.7488 H   0  0  0  0  0  0  0  0  0  0  0  0
    1.2966   -4.9508    0.2513 H   0  0  0  0  0  0  0  0  0  0  0  0
    3.2933   -2.2601   -3.3666 H   0  0  0  0  0  0  0  0  0  0  0  0
    2.1890   -1.1508   -1.4672 H   0  0  0  0  0  0  0  0  0  0  0  0
    2.9303   -5.0421   -4.4213 H   0  0  0  0  0  0  0  0  0  0  0  0
    1.6550   -6.7602   -2.1110 H   0  0  0  0  0  0  0  0  0  0  0  0
    6.7410   -0.2206    2.1400 H   0  0  0  0  0  0  0  0  0  0  0  0
    3.5853    1.0841   -0.4595 H   0  0  0  0  0  0  0  0  0  0  0  0
    5.1260    2.6044   -2.5229 H   0  0  0  0  0  0  0  0  0  0  0  0
    8.0861    2.8513   -1.4955 H   0  0  0  0  0  0  0  0  0  0  0  0
    9.1339    0.9435    0.7719 H   0  0  0  0  0  0  0  0  0  0  0  0
  1  2  1  0  0  0  0
  2  3  1  0  0  0  0
  3  4  1  0  0  0  0
  4  5  1  0  0  0  0
  5  6  2  0  0  0  0
  1  6  1  0  0  0  0
  6  7  1  0  0  0  0
  7  8  2  0  0  0  0
  8  9  1  0  0  0  0
  9 10  2  0  0  0  0
  5 10  1  0  0  0  0
 10 11  1  0  0  0  0
 11 12  1  0  0  0  0
 12 13  1  0  0  0  0
 13 14  1  0  0  0  0
 14 15  1  0  0  0  0
 15 16  2  0  0  0  0
 16 17  1  0  0  0  0
 17 18  2  0  0  0  0
 18 19  1  0  0  0  0
 19 20  2  0  0  0  0
 11 20  1  0  0  0  0
 15 20  1  0  0  0  0
 19 21  1  0  0  0  0
 17 22  1  0  0  0  0
 13 23  1  0  0  0  0
 23 24  2  0  0  0  0
 24 25  1  0  0  0  0
 25 26  2  0  0  0  0
 26 27  1  0  0  0  0
 27 28  2  0  0  0  0
 23 28  1  0  0  0  0
 26 29  1  0  0  0  0
 25 30  1  0  0  0  0
 12 31  1  0  0  0  0
  9 32  1  0  0  0  0
  7 33  1  0  0  0  0
  3 34  1  0  0  0  0
 34 35  2  0  0  0  0
 35 36  1  0  0  0  0
 36 37  2  0  0  0  0
 37 38  1  0  0  0  0
 38 39  2  0  0  0  0
 34 39  1  0  0  0  0
 37 40  1  0  0  0  0
 36 41  1  0  0  0  0
  2 42  1  0  0  0  0
 42 43  1  0  0  0  0
 43 44  2  0  0  0  0
 43 45  1  0  0  0  0
 45 46  2  0  0  0  0
 46 47  1  0  0  0  0
 47 48  2  0  0  0  0
 48 49  1  0  0  0  0
 49 50  2  0  0  0  0
 45 50  1  0  0  0  0
 49 51  1  0  0  0  0
 48 52  1  0  0  0  0
 47 53  1  0  0  0  0
  1 54  1  0  0  0  0
  1 55  1  0  0  0  0
  2 56  1  0  0  0  0
  3 57  1  0  0  0  0
  8 58  1  0  0  0  0
 11 59  1  0  0  0  0
 12 60  1  0  0  0  0
 13 61  1  0  0  0  0
 16 62  1  0  0  0  0
 18 63  1  0  0  0  0
 21 64  1  0  0  0  0
 22 65  1  0  0  0  0
 24 66  1  0  0  0  0
 27 67  1  0  0  0  0
 28 68  1  0  0  0  0
 29 69  1  0  0  0  0
 30 70  1  0  0  0  0
 31 71  1  0  0  0  0
 32 72  1  0  0  0  0
 33 73  1  0  0  0  0
 35 74  1  0  0  0  0
 38 75  1  0  0  0  0
 39 76  1  0  0  0  0
 40 77  1  0  0  0  0
 41 78  1  0  0  0  0
 46 79  1  0  0  0  0
 50 80  1  0  0  0  0
 51 81  1  0  0  0  0
 52 82  1  0  0  0  0
 53 83  1  0  0  0  0
M  END
$$$$
