C13H18O2
APtclcactv06291802413D 0   0.00000     0.00000
 
 33 33  0  0  0  0  0  0  0  0999 V2000
    0.0993    2.5850    0.4434 C   0  0  0  0  0  0  0  0  0  0  0  0
    0.8938    1.3287    0.1957 C   0  0  0  0  0  0  0  0  0  0  0  0
    2.2474    1.4263   -0.1290 C   0  0  0  0  0  0  0  0  0  0  0  0
    2.9606    0.2801   -0.5122 C   0  0  0  0  0  0  0  0  0  0  0  0
    4.1722    0.3164   -0.6035 O   0  0  0  0  0  0  0  0  0  0  0  0
    2.2164   -0.9964   -0.8094 C   0  0  0  0  0  0  0  0  0  0  0  0
    1.0509   -1.1575    0.1635 C   0  0  0  0  0  0  0  0  0  0  0  0
    0.2855    0.1289    0.2970 C   0  0  0  0  0  0  0  0  0  0  0  0
   -1.0037    0.0845    0.5074 C   0  0  0  0  0  0  0  0  0  0  0  0
   -2.2929    0.0401    0.7179 C   0  0  0  0  0  0  0  0  0  0  0  0
   -3.2467    0.0229   -0.4488 C   0  0  0  0  0  0  0  0  0  0  0  0
   -4.0868   -1.2550   -0.4019 C   0  0  0  0  0  0  0  0  0  0  0  0
   -4.1072    1.1615   -0.3775 O   0  0  0  0  0  0  0  0  0  0  0  0
    0.1143   -2.2534   -0.3491 C   0  0  0  0  0  0  0  0  0  0  0  0
    1.5925   -1.5603    1.5366 C   0  0  0  0  0  0  0  0  0  0  0  0
    0.7467    3.4538    0.3239 H   0  0  0  0  0  0  0  0  0  0  0  0
   -0.7216    2.6426   -0.2713 H   0  0  0  0  0  0  0  0  0  0  0  0
   -0.3017    2.5674    1.4568 H   0  0  0  0  0  0  0  0  0  0  0  0
    2.7458    2.3834   -0.0858 H   0  0  0  0  0  0  0  0  0  0  0  0
    1.8343   -0.9634   -1.8297 H   0  0  0  0  0  0  0  0  0  0  0  0
    2.8945   -1.8434   -0.7054 H   0  0  0  0  0  0  0  0  0  0  0  0
   -2.6747    0.0158    1.7278 H   0  0  0  0  0  0  0  0  0  0  0  0
   -2.6817    0.0522   -1.3805 H   0  0  0  0  0  0  0  0  0  0  0  0
   -3.4305   -2.1235   -0.4563 H   0  0  0  0  0  0  0  0  0  0  0  0
   -4.6518   -1.2843    0.5298 H   0  0  0  0  0  0  0  0  0  0  0  0
   -4.7767   -1.2674   -1.2457 H   0  0  0  0  0  0  0  0  0  0  0  0
   -4.7489    1.2154   -1.0988 H   0  0  0  0  0  0  0  0  0  0  0  0
    0.6612   -3.1934   -0.4231 H   0  0  0  0  0  0  0  0  0  0  0  0
   -0.7195   -2.3718    0.3429 H   0  0  0  0  0  0  0  0  0  0  0  0
   -0.2659   -1.9759   -1.3322 H   0  0  0  0  0  0  0  0  0  0  0  0
    2.2689   -0.7873    1.9014 H   0  0  0  0  0  0  0  0  0  0  0  0
    0.7633   -1.6764    2.2344 H   0  0  0  0  0  0  0  0  0  0  0  0
    2.1312   -2.5041    1.4521 H   0  0  0  0  0  0  0  0  0  0  0  0
  1  2  1  0  0  0  0
  2  3  2  0  0  0  0
  3  4  1  0  0  0  0
  4  5  2  0  0  0  0
  4  6  1  0  0  0  0
  6  7  1  0  0  0  0
  7  8  1  0  0  0  0
  2  8  1  0  0  0  0
  8  9  2  0  0  0  0
  9 10  2  0  0  0  0
 10 11  1  0  0  0  0
 11 12  1  0  0  0  0
 11 13  1  0  0  0  0
  7 14  1  0  0  0  0
  7 15  1  0  0  0  0
  1 16  1  0  0  0  0
  1 17  1  0  0  0  0
  1 18  1  0  0  0  0
  3 19  1  0  0  0  0
  6 20  1  0  0  0  0
  6 21  1  0  0  0  0
 10 22  1  0  0  0  0
 11 23  1  0  0  0  0
 12 24  1  0  0  0  0
 12 25  1  0  0  0  0
 12 26  1  0  0  0  0
 13 27  1  0  0  0  0
 14 28  1  0  0  0  0
 14 29  1  0  0  0  0
 14 30  1  0  0  0  0
 15 31  1  0  0  0  0
 15 32  1  0  0  0  0
 15 33  1  0  0  0  0
M  END
$$$$
