C6H7NS
APtclcactv06211806083D 0   0.00000     0.00000
 
 15 15  0  0  0  0  0  0  0  0999 V2000
   -0.6450    2.4606   -0.0009 C   0  0  0  0  0  0  0  0  0  0  0  0
   -0.6890    0.9542   -0.0011 C   0  0  0  0  0  0  0  0  0  0  0  0
    0.4251    0.1862   -0.0003 C   0  0  0  0  0  0  0  0  0  0  0  0
   -0.0845   -1.5005   -0.0003 S   0  0  0  0  0  0  0  0  0  0  0  0
   -1.7238   -1.0157   -0.0014 C   0  0  0  0  0  0  0  0  0  0  0  0
   -1.8123    0.2728    0.0034 N   0  0  0  0  0  0  0  0  0  0  0  0
    1.8142    0.6728    0.0000 C   0  0  0  0  0  0  0  0  0  0  0  0
    2.8219   -0.1938    0.0008 C   0  0  0  0  0  0  0  0  0  0  0  0
   -0.6336    2.8239   -1.0285 H   0  0  0  0  0  0  0  0  0  0  0  0
   -1.5245    2.8496    0.5123 H   0  0  0  0  0  0  0  0  0  0  0  0
    0.2547    2.7977    0.5138 H   0  0  0  0  0  0  0  0  0  0  0  0
   -2.5663   -1.6913   -0.0018 H   0  0  0  0  0  0  0  0  0  0  0  0
    2.0146    1.7341   -0.0004 H   0  0  0  0  0  0  0  0  0  0  0  0
    3.8412    0.1632    0.0011 H   0  0  0  0  0  0  0  0  0  0  0  0
    2.6214   -1.2550    0.0013 H   0  0  0  0  0  0  0  0  0  0  0  0
  1  2  1  0  0  0  0
  2  3  2  0  0  0  0
  3  4  1  0  0  0  0
  4  5  1  0  0  0  0
  5  6  2  0  0  0  0
  2  6  1  0  0  0  0
  3  7  1  0  0  0  0
  7  8  2  0  0  0  0
  1  9  1  0  0  0  0
  1 10  1  0  0  0  0
  1 11  1  0  0  0  0
  5 12  1  0  0  0  0
  7 13  1  0  0  0  0
  8 14  1  0  0  0  0
  8 15  1  0  0  0  0
M  END
$$$$
