C25H26O6
APtclcactv06291802413D 0   0.00000     0.00000
 
 57 59  0  0  0  0  0  0  0  0999 V2000
    4.1345   -2.7664   -2.4038 C   0  0  0  0  0  0  0  0  0  0  0  0
    4.4652   -3.0260   -0.9567 C   0  0  0  0  0  0  0  0  0  0  0  0
    4.9326   -2.0580   -0.2078 C   0  0  0  0  0  0  0  0  0  0  0  0
    5.0822   -0.6705   -0.7765 C   0  0  0  0  0  0  0  0  0  0  0  0
    4.2444    0.2934    0.0237 C   0  0  0  0  0  0  0  0  0  0  0  0
    4.7895    0.9369    1.1248 C   0  0  0  0  0  0  0  0  0  0  0  0
    4.0213    1.8258    1.8650 C   0  0  0  0  0  0  0  0  0  0  0  0
    2.7117    2.0737    1.5092 C   0  0  0  0  0  0  0  0  0  0  0  0
    2.1569    1.4313    0.4044 C   0  0  0  0  0  0  0  0  0  0  0  0
    2.9328    0.5405   -0.3439 C   0  0  0  0  0  0  0  0  0  0  0  0
    2.3974   -0.0891   -1.4224 O   0  0  0  0  0  0  0  0  0  0  0  0
    0.7492    1.6959    0.0196 C   0  0  0  0  0  0  0  0  0  0  0  0
    0.4527    2.4727   -1.0537 C   0  0  0  0  0  0  0  0  0  0  0  0
   -0.7968    2.7516   -1.4277 O   0  0  0  0  0  0  0  0  0  0  0  0
   -1.8407    2.0356   -0.9683 C   0  0  0  0  0  0  0  0  0  0  0  0
   -3.0749    2.1079   -1.5992 C   0  0  0  0  0  0  0  0  0  0  0  0
   -4.1479    1.3768   -1.1150 C   0  0  0  0  0  0  0  0  0  0  0  0
   -4.0080    0.5645    0.0050 C   0  0  0  0  0  0  0  0  0  0  0  0
   -2.7865    0.4748    0.6472 C   0  0  0  0  0  0  0  0  0  0  0  0
   -1.6966    1.2043    0.1575 C   0  0  0  0  0  0  0  0  0  0  0  0
   -0.3702    1.1171    0.7890 C   0  0  0  0  0  0  0  0  0  0  0  0
   -0.2055    0.6021    1.8818 O   0  0  0  0  0  0  0  0  0  0  0  0
   -2.6455   -0.3138    1.7424 O   0  0  0  0  0  0  0  0  0  0  0  0
   -5.1884   -0.2183    0.5196 C   0  0  0  0  0  0  0  0  0  0  0  0
   -5.2229   -1.5704   -0.1451 C   0  0  0  0  0  0  0  0  0  0  0  0
   -5.2545   -2.6582    0.5842 C   0  0  0  0  0  0  0  0  0  0  0  0
   -5.1177   -2.5653    2.0821 C   0  0  0  0  0  0  0  0  0  0  0  0
   -5.4276   -4.0024   -0.0748 C   0  0  0  0  0  0  0  0  0  0  0  0
   -5.3496    1.4541   -1.7416 O   0  0  0  0  0  0  0  0  0  0  0  0
    6.0789    0.6965    1.4806 O   0  0  0  0  0  0  0  0  0  0  0  0
    4.2584   -4.3990   -0.3710 C   0  0  0  0  0  0  0  0  0  0  0  0
    5.0073   -2.3505   -2.9071 H   0  0  0  0  0  0  0  0  0  0  0  0
    3.8494   -3.7021   -2.8848 H   0  0  0  0  0  0  0  0  0  0  0  0
    3.3076   -2.0591   -2.4663 H   0  0  0  0  0  0  0  0  0  0  0  0
    5.2106   -2.2544    0.8171 H   0  0  0  0  0  0  0  0  0  0  0  0
    6.1285   -0.3690   -0.7285 H   0  0  0  0  0  0  0  0  0  0  0  0
    4.7499   -0.6655   -1.8146 H   0  0  0  0  0  0  0  0  0  0  0  0
    4.4501    2.3242    2.7218 H   0  0  0  0  0  0  0  0  0  0  0  0
    2.1166    2.7653    2.0870 H   0  0  0  0  0  0  0  0  0  0  0  0
    2.5055    0.3935   -2.2534 H   0  0  0  0  0  0  0  0  0  0  0  0
    1.2669    2.8845   -1.6316 H   0  0  0  0  0  0  0  0  0  0  0  0
   -3.1994    2.7357   -2.4692 H   0  0  0  0  0  0  0  0  0  0  0  0
   -2.3820   -1.2223    1.5416 H   0  0  0  0  0  0  0  0  0  0  0  0
   -5.0974   -0.3460    1.5983 H   0  0  0  0  0  0  0  0  0  0  0  0
   -6.1083    0.3210    0.2939 H   0  0  0  0  0  0  0  0  0  0  0  0
   -5.2215   -1.6425   -1.2227 H   0  0  0  0  0  0  0  0  0  0  0  0
   -6.0908   -2.3491    2.5231 H   0  0  0  0  0  0  0  0  0  0  0  0
   -4.7444   -3.5122    2.4722 H   0  0  0  0  0  0  0  0  0  0  0  0
   -4.4191   -1.7676    2.3344 H   0  0  0  0  0  0  0  0  0  0  0  0
   -5.5089   -3.8703   -1.1537 H   0  0  0  0  0  0  0  0  0  0  0  0
   -4.5661   -4.6311    0.1505 H   0  0  0  0  0  0  0  0  0  0  0  0
   -6.3330   -4.4779    0.3023 H   0  0  0  0  0  0  0  0  0  0  0  0
   -5.4705    0.7991   -2.4425 H   0  0  0  0  0  0  0  0  0  0  0  0
    6.7190    1.2897    1.0641 H   0  0  0  0  0  0  0  0  0  0  0  0
    5.1674   -4.9877   -0.4951 H   0  0  0  0  0  0  0  0  0  0  0  0
    4.0252   -4.3101    0.6901 H   0  0  0  0  0  0  0  0  0  0  0  0
    3.4331   -4.8924   -0.8843 H   0  0  0  0  0  0  0  0  0  0  0  0
  1  2  1  0  0  0  0
  2  3  2  0  0  0  0
  3  4  1  0  0  0  0
  4  5  1  0  0  0  0
  5  6  2  0  0  0  0
  6  7  1  0  0  0  0
  7  8  2  0  0  0  0
  8  9  1  0  0  0  0
  9 10  2  0  0  0  0
  5 10  1  0  0  0  0
 10 11  1  0  0  0  0
  9 12  1  0  0  0  0
 12 13  2  0  0  0  0
 13 14  1  0  0  0  0
 14 15  1  0  0  0  0
 15 16  2  0  0  0  0
 16 17  1  0  0  0  0
 17 18  2  0  0  0  0
 18 19  1  0  0  0  0
 19 20  2  0  0  0  0
 15 20  1  0  0  0  0
 20 21  1  0  0  0  0
 12 21  1  0  0  0  0
 21 22  2  0  0  0  0
 19 23  1  0  0  0  0
 18 24  1  0  0  0  0
 24 25  1  0  0  0  0
 25 26  2  0  0  0  0
 26 27  1  0  0  0  0
 26 28  1  0  0  0  0
 17 29  1  0  0  0  0
  6 30  1  0  0  0  0
  2 31  1  0  0  0  0
  1 32  1  0  0  0  0
  1 33  1  0  0  0  0
  1 34  1  0  0  0  0
  3 35  1  0  0  0  0
  4 36  1  0  0  0  0
  4 37  1  0  0  0  0
  7 38  1  0  0  0  0
  8 39  1  0  0  0  0
 11 40  1  0  0  0  0
 13 41  1  0  0  0  0
 16 42  1  0  0  0  0
 23 43  1  0  0  0  0
 24 44  1  0  0  0  0
 24 45  1  0  0  0  0
 25 46  1  0  0  0  0
 27 47  1  0  0  0  0
 27 48  1  0  0  0  0
 27 49  1  0  0  0  0
 28 50  1  0  0  0  0
 28 51  1  0  0  0  0
 28 52  1  0  0  0  0
 29 53  1  0  0  0  0
 30 54  1  0  0  0  0
 31 55  1  0  0  0  0
 31 56  1  0  0  0  0
 31 57  1  0  0  0  0
M  END
$$$$
