C20H18O6
APtclcactv06211806403D 0   0.00000     0.00000
 
 44 47  0  0  0  0  0  0  0  0999 V2000
   -3.7003    2.1587    1.0877 C   0  0  0  0  0  0  0  0  0  0  0  0
   -4.3103    1.2165    0.0480 C   0  0  0  0  0  0  0  0  0  0  0  0
   -3.6805    1.4829   -1.2938 C   0  0  0  0  0  0  0  0  0  0  0  0
   -2.5714    0.8361   -1.6484 C   0  0  0  0  0  0  0  0  0  0  0  0
   -2.0032   -0.1424   -0.6971 C   0  0  0  0  0  0  0  0  0  0  0  0
   -0.6941   -0.5992   -0.8267 C   0  0  0  0  0  0  0  0  0  0  0  0
   -0.2056   -1.5347    0.1033 C   0  0  0  0  0  0  0  0  0  0  0  0
   -1.0248   -1.9893    1.1495 C   0  0  0  0  0  0  0  0  0  0  0  0
   -2.3239   -1.5218    1.2656 C   0  0  0  0  0  0  0  0  0  0  0  0
   -2.8158   -0.6053    0.3519 C   0  0  0  0  0  0  0  0  0  0  0  0
   -4.0850   -0.1356    0.4480 O   0  0  0  0  0  0  0  0  0  0  0  0
   -0.5446   -2.8861    2.0458 O   0  0  0  0  0  0  0  0  0  0  0  0
    1.1684   -2.0294   -0.0399 C   0  0  0  0  0  0  0  0  0  0  0  0
    1.5694   -2.9883    0.5869 O   0  0  0  0  0  0  0  0  0  0  0  0
    2.0628   -1.2815   -1.0122 C   0  0  0  0  0  0  0  0  0  0  0  0
    1.2075   -0.9333   -2.2393 C   0  0  0  0  0  0  0  0  0  0  0  0
    0.0920   -0.1432   -1.8283 O   0  0  0  0  0  0  0  0  0  0  0  0
    2.5766   -0.0189   -0.3697 C   0  0  0  0  0  0  0  0  0  0  0  0
    3.9420    0.1745   -0.2159 C   0  0  0  0  0  0  0  0  0  0  0  0
    4.4142    1.3366    0.3750 C   0  0  0  0  0  0  0  0  0  0  0  0
    3.5205    2.3024    0.8106 C   0  0  0  0  0  0  0  0  0  0  0  0
    2.1557    2.1043    0.6544 C   0  0  0  0  0  0  0  0  0  0  0  0
    1.6879    0.9479    0.0607 C   0  0  0  0  0  0  0  0  0  0  0  0
    3.9802    3.4423    1.3904 O   0  0  0  0  0  0  0  0  0  0  0  0
    4.8157   -0.7745   -0.6435 O   0  0  0  0  0  0  0  0  0  0  0  0
   -5.8162    1.4712   -0.0418 C   0  0  0  0  0  0  0  0  0  0  0  0
   -3.8868    3.1921    0.7954 H   0  0  0  0  0  0  0  0  0  0  0  0
   -4.1538    1.9688    2.0605 H   0  0  0  0  0  0  0  0  0  0  0  0
   -2.6257    1.9865    1.1480 H   0  0  0  0  0  0  0  0  0  0  0  0
   -4.1282    2.1977   -1.9684 H   0  0  0  0  0  0  0  0  0  0  0  0
   -2.1013    1.0209   -2.6030 H   0  0  0  0  0  0  0  0  0  0  0  0
   -2.9536   -1.8729    2.0697 H   0  0  0  0  0  0  0  0  0  0  0  0
   -0.1209   -2.4838    2.8163 H   0  0  0  0  0  0  0  0  0  0  0  0
    2.8987   -1.9145   -1.3099 H   0  0  0  0  0  0  0  0  0  0  0  0
    1.8083   -0.3706   -2.9538 H   0  0  0  0  0  0  0  0  0  0  0  0
    0.8507   -1.8512   -2.7065 H   0  0  0  0  0  0  0  0  0  0  0  0
    5.4765    1.4888    0.4959 H   0  0  0  0  0  0  0  0  0  0  0  0
    1.4589    2.8564    0.9940 H   0  0  0  0  0  0  0  0  0  0  0  0
    0.6255    0.7955   -0.0599 H   0  0  0  0  0  0  0  0  0  0  0  0
    4.1477    4.1613    0.7659 H   0  0  0  0  0  0  0  0  0  0  0  0
    5.1028   -0.6605   -1.5599 H   0  0  0  0  0  0  0  0  0  0  0  0
   -5.9928    2.5053   -0.3378 H   0  0  0  0  0  0  0  0  0  0  0  0
   -6.2545    0.8016   -0.7819 H   0  0  0  0  0  0  0  0  0  0  0  0
   -6.2743    1.2882    0.9302 H   0  0  0  0  0  0  0  0  0  0  0  0
  1  2  1  0  0  0  0
  2  3  1  0  0  0  0
  3  4  2  0  0  0  0
  4  5  1  0  0  0  0
  5  6  2  0  0  0  0
  6  7  1  0  0  0  0
  7  8  2  0  0  0  0
  8  9  1  0  0  0  0
  9 10  2  0  0  0  0
  5 10  1  0  0  0  0
 10 11  1  0  0  0  0
  2 11  1  0  0  0  0
  8 12  1  0  0  0  0
  7 13  1  0  0  0  0
 13 14  2  0  0  0  0
 13 15  1  0  0  0  0
 15 16  1  0  0  0  0
 16 17  1  0  0  0  0
  6 17  1  0  0  0  0
 15 18  1  0  0  0  0
 18 19  2  0  0  0  0
 19 20  1  0  0  0  0
 20 21  2  0  0  0  0
 21 22  1  0  0  0  0
 22 23  2  0  0  0  0
 18 23  1  0  0  0  0
 21 24  1  0  0  0  0
 19 25  1  0  0  0  0
  2 26  1  0  0  0  0
  1 27  1  0  0  0  0
  1 28  1  0  0  0  0
  1 29  1  0  0  0  0
  3 30  1  0  0  0  0
  4 31  1  0  0  0  0
  9 32  1  0  0  0  0
 12 33  1  0  0  0  0
 15 34  1  0  0  0  0
 16 35  1  0  0  0  0
 16 36  1  0  0  0  0
 20 37  1  0  0  0  0
 22 38  1  0  0  0  0
 23 39  1  0  0  0  0
 24 40  1  0  0  0  0
 25 41  1  0  0  0  0
 26 42  1  0  0  0  0
 26 43  1  0  0  0  0
 26 44  1  0  0  0  0
M  END
$$$$
