C17H14O7
APtclcactv06211806403D 0   0.00000     0.00000
 
 38 40  0  0  0  0  0  0  0  0999 V2000
    5.1795   -0.7361   -1.1923 C   0  0  0  0  0  0  0  0  0  0  0  0
    4.5077   -0.6007    0.0617 O   0  0  0  0  0  0  0  0  0  0  0  0
    3.1869   -0.2729    0.0231 C   0  0  0  0  0  0  0  0  0  0  0  0
    2.2277   -1.2716   -0.0251 C   0  0  0  0  0  0  0  0  0  0  0  0
    0.8721   -0.9256   -0.0646 C   0  0  0  0  0  0  0  0  0  0  0  0
    0.4852    0.4257   -0.0554 C   0  0  0  0  0  0  0  0  0  0  0  0
    1.4593    1.4154   -0.0063 C   0  0  0  0  0  0  0  0  0  0  0  0
    2.8022    1.0662    0.0380 C   0  0  0  0  0  0  0  0  0  0  0  0
    3.7504    2.0392    0.0859 O   0  0  0  0  0  0  0  0  0  0  0  0
    4.1564    2.4862    1.3810 C   0  0  0  0  0  0  0  0  0  0  0  0
    1.0966    2.7278    0.0026 O   0  0  0  0  0  0  0  0  0  0  0  0
   -0.8264    0.7483   -0.0947 O   0  0  0  0  0  0  0  0  0  0  0  0
   -1.7921   -0.1827   -0.1429 C   0  0  0  0  0  0  0  0  0  0  0  0
   -1.5221   -1.5164   -0.1558 C   0  0  0  0  0  0  0  0  0  0  0  0
   -0.1785   -1.9567   -0.1169 C   0  0  0  0  0  0  0  0  0  0  0  0
    0.0996   -3.1451   -0.1272 O   0  0  0  0  0  0  0  0  0  0  0  0
   -3.1991    0.2565   -0.1830 C   0  0  0  0  0  0  0  0  0  0  0  0
   -3.5685    1.3615   -0.9535 C   0  0  0  0  0  0  0  0  0  0  0  0
   -4.8857    1.7669   -0.9866 C   0  0  0  0  0  0  0  0  0  0  0  0
   -5.8454    1.0836   -0.2587 C   0  0  0  0  0  0  0  0  0  0  0  0
   -5.4935   -0.0107    0.5078 C   0  0  0  0  0  0  0  0  0  0  0  0
   -4.1752   -0.4363    0.5475 C   0  0  0  0  0  0  0  0  0  0  0  0
   -3.8283   -1.5113    1.2997 O   0  0  0  0  0  0  0  0  0  0  0  0
    2.6008   -2.5785   -0.0345 O   0  0  0  0  0  0  0  0  0  0  0  0
    6.2231   -0.9987   -1.0189 H   0  0  0  0  0  0  0  0  0  0  0  0
    4.7001   -1.5202   -1.7784 H   0  0  0  0  0  0  0  0  0  0  0  0
    5.1276    0.2072   -1.7360 H   0  0  0  0  0  0  0  0  0  0  0  0
    4.9152    3.2616    1.2764 H   0  0  0  0  0  0  0  0  0  0  0  0
    3.2948    2.8904    1.9125 H   0  0  0  0  0  0  0  0  0  0  0  0
    4.5687    1.6476    1.9421 H   0  0  0  0  0  0  0  0  0  0  0  0
    0.9618    3.0926    0.8880 H   0  0  0  0  0  0  0  0  0  0  0  0
   -2.3284   -2.2338   -0.1952 H   0  0  0  0  0  0  0  0  0  0  0  0
   -2.8232    1.8978   -1.5222 H   0  0  0  0  0  0  0  0  0  0  0  0
   -5.1704    2.6214   -1.5826 H   0  0  0  0  0  0  0  0  0  0  0  0
   -6.8750    1.4083   -0.2901 H   0  0  0  0  0  0  0  0  0  0  0  0
   -6.2476   -0.5380    1.0732 H   0  0  0  0  0  0  0  0  0  0  0  0
   -3.8785   -2.3540    0.8281 H   0  0  0  0  0  0  0  0  0  0  0  0
    2.6796   -2.9714    0.8455 H   0  0  0  0  0  0  0  0  0  0  0  0
  1  2  1  0  0  0  0
  2  3  1  0  0  0  0
  3  4  2  0  0  0  0
  4  5  1  0  0  0  0
  5  6  2  0  0  0  0
  6  7  1  0  0  0  0
  7  8  2  0  0  0  0
  3  8  1  0  0  0  0
  8  9  1  0  0  0  0
  9 10  1  0  0  0  0
  7 11  1  0  0  0  0
  6 12  1  0  0  0  0
 12 13  1  0  0  0  0
 13 14  2  0  0  0  0
 14 15  1  0  0  0  0
  5 15  1  0  0  0  0
 15 16  2  0  0  0  0
 13 17  1  0  0  0  0
 17 18  2  0  0  0  0
 18 19  1  0  0  0  0
 19 20  2  0  0  0  0
 20 21  1  0  0  0  0
 21 22  2  0  0  0  0
 17 22  1  0  0  0  0
 22 23  1  0  0  0  0
  4 24  1  0  0  0  0
  1 25  1  0  0  0  0
  1 26  1  0  0  0  0
  1 27  1  0  0  0  0
 10 28  1  0  0  0  0
 10 29  1  0  0  0  0
 10 30  1  0  0  0  0
 11 31  1  0  0  0  0
 14 32  1  0  0  0  0
 18 33  1  0  0  0  0
 19 34  1  0  0  0  0
 20 35  1  0  0  0  0
 21 36  1  0  0  0  0
 23 37  1  0  0  0  0
 24 38  1  0  0  0  0
M  END
$$$$
