C17H14O5
APtclcactv06291802413D 0   0.00000     0.00000
 
 36 38  0  0  0  0  0  0  0  0999 V2000
    5.3484    0.0408    0.0258 C   0  0  0  0  0  0  0  0  0  0  0  0
    3.8517   -0.1344    0.0192 C   0  0  0  0  0  0  0  0  0  0  0  0
    3.0274    0.9755    0.0153 C   0  0  0  0  0  0  0  0  0  0  0  0
    1.6376    0.8025    0.0092 C   0  0  0  0  0  0  0  0  0  0  0  0
    1.0857   -0.4900    0.0070 C   0  0  0  0  0  0  0  0  0  0  0  0
    1.9283   -1.5908    0.0106 C   0  0  0  0  0  0  0  0  0  0  0  0
    3.3029   -1.4123    0.0114 C   0  0  0  0  0  0  0  0  0  0  0  0
    4.1214   -2.4953    0.0148 O   0  0  0  0  0  0  0  0  0  0  0  0
    1.3495   -2.9822    0.0088 C   0  0  0  0  0  0  0  0  0  0  0  0
   -0.2552   -0.6464    0.0020 O   0  0  0  0  0  0  0  0  0  0  0  0
   -1.0989    0.3978   -0.0010 C   0  0  0  0  0  0  0  0  0  0  0  0
   -0.6660    1.6873    0.0007 C   0  0  0  0  0  0  0  0  0  0  0  0
    0.7231    1.9569    0.0054 C   0  0  0  0  0  0  0  0  0  0  0  0
    1.1468    3.1015    0.0071 O   0  0  0  0  0  0  0  0  0  0  0  0
   -2.5506    0.1368   -0.0068 C   0  0  0  0  0  0  0  0  0  0  0  0
   -3.0265   -1.1774   -0.0092 C   0  0  0  0  0  0  0  0  0  0  0  0
   -4.3828   -1.4166   -0.0147 C   0  0  0  0  0  0  0  0  0  0  0  0
   -5.2779   -0.3534   -0.0179 C   0  0  0  0  0  0  0  0  0  0  0  0
   -4.8091    0.9549   -0.0155 C   0  0  0  0  0  0  0  0  0  0  0  0
   -3.4544    1.2031   -0.0042 C   0  0  0  0  0  0  0  0  0  0  0  0
   -6.6141   -0.5936   -0.0237 O   0  0  0  0  0  0  0  0  0  0  0  0
    3.5610    2.2234    0.0178 O   0  0  0  0  0  0  0  0  0  0  0  0
    5.7047    0.0833    1.0551 H   0  0  0  0  0  0  0  0  0  0  0  0
    5.8151   -0.8010   -0.4857 H   0  0  0  0  0  0  0  0  0  0  0  0
    5.6081    0.9669   -0.4871 H   0  0  0  0  0  0  0  0  0  0  0  0
    4.3593   -2.8114   -0.8676 H   0  0  0  0  0  0  0  0  0  0  0  0
    1.2139   -3.3180   -1.0192 H   0  0  0  0  0  0  0  0  0  0  0  0
    2.0297   -3.6593    0.5255 H   0  0  0  0  0  0  0  0  0  0  0  0
    0.3863   -2.9757    0.5190 H   0  0  0  0  0  0  0  0  0  0  0  0
   -1.3776    2.4998   -0.0018 H   0  0  0  0  0  0  0  0  0  0  0  0
   -2.3316   -2.0042   -0.0070 H   0  0  0  0  0  0  0  0  0  0  0  0
   -4.7514   -2.4317   -0.0168 H   0  0  0  0  0  0  0  0  0  0  0  0
   -5.5081    1.7781   -0.0180 H   0  0  0  0  0  0  0  0  0  0  0  0
   -3.0910    2.2201   -0.0024 H   0  0  0  0  0  0  0  0  0  0  0  0
   -7.0049   -0.6637    0.8580 H   0  0  0  0  0  0  0  0  0  0  0  0
    3.7199    2.5850   -0.8649 H   0  0  0  0  0  0  0  0  0  0  0  0
  1  2  1  0  0  0  0
  2  3  2  0  0  0  0
  3  4  1  0  0  0  0
  4  5  2  0  0  0  0
  5  6  1  0  0  0  0
  6  7  2  0  0  0  0
  2  7  1  0  0  0  0
  7  8  1  0  0  0  0
  6  9  1  0  0  0  0
  5 10  1  0  0  0  0
 10 11  1  0  0  0  0
 11 12  2  0  0  0  0
 12 13  1  0  0  0  0
  4 13  1  0  0  0  0
 13 14  2  0  0  0  0
 11 15  1  0  0  0  0
 15 16  2  0  0  0  0
 16 17  1  0  0  0  0
 17 18  2  0  0  0  0
 18 19  1  0  0  0  0
 19 20  2  0  0  0  0
 15 20  1  0  0  0  0
 18 21  1  0  0  0  0
  3 22  1  0  0  0  0
  1 23  1  0  0  0  0
  1 24  1  0  0  0  0
  1 25  1  0  0  0  0
  8 26  1  0  0  0  0
  9 27  1  0  0  0  0
  9 28  1  0  0  0  0
  9 29  1  0  0  0  0
 12 30  1  0  0  0  0
 16 31  1  0  0  0  0
 17 32  1  0  0  0  0
 19 33  1  0  0  0  0
 20 34  1  0  0  0  0
 21 35  1  0  0  0  0
 22 36  1  0  0  0  0
M  END
$$$$
