C18H16O5
APtclcactv06291802413D 0   0.00000     0.00000
 
 39 41  0  0  0  0  0  0  0  0999 V2000
    5.5824   -0.3624    0.0105 C   0  0  0  0  0  0  0  0  0  0  0  0
    4.0979   -0.1029    0.0076 C   0  0  0  0  0  0  0  0  0  0  0  0
    3.6222    1.2035    0.0022 C   0  0  0  0  0  0  0  0  0  0  0  0
    2.2595    1.4593   -0.0001 C   0  0  0  0  0  0  0  0  0  0  0  0
    1.3563    0.4082    0.0029 C   0  0  0  0  0  0  0  0  0  0  0  0
    1.8346   -0.9137    0.0079 C   0  0  0  0  0  0  0  0  0  0  0  0
    3.2121   -1.1649    0.0045 C   0  0  0  0  0  0  0  0  0  0  0  0
    3.6744   -2.4408    0.0092 O   0  0  0  0  0  0  0  0  0  0  0  0
    0.8565   -2.0147    0.0111 C   0  0  0  0  0  0  0  0  0  0  0  0
    1.2150   -3.1813    0.0158 O   0  0  0  0  0  0  0  0  0  0  0  0
   -0.5152   -1.6672    0.0090 C   0  0  0  0  0  0  0  0  0  0  0  0
   -0.8747   -0.3553    0.0041 C   0  0  0  0  0  0  0  0  0  0  0  0
    0.0264    0.6398    0.0016 O   0  0  0  0  0  0  0  0  0  0  0  0
   -2.3095   -0.0131    0.0021 C   0  0  0  0  0  0  0  0  0  0  0  0
   -2.7107    1.3258   -0.0030 C   0  0  0  0  0  0  0  0  0  0  0  0
   -4.0514    1.6409   -0.0054 C   0  0  0  0  0  0  0  0  0  0  0  0
   -5.0049    0.6299   -0.0028 C   0  0  0  0  0  0  0  0  0  0  0  0
   -4.6104   -0.7027    0.0027 C   0  0  0  0  0  0  0  0  0  0  0  0
   -3.2718   -1.0268   -0.0007 C   0  0  0  0  0  0  0  0  0  0  0  0
   -6.3254    0.9449   -0.0052 O   0  0  0  0  0  0  0  0  0  0  0  0
   -7.2519   -0.1431   -0.0023 C   0  0  0  0  0  0  0  0  0  0  0  0
    4.5005    2.2386   -0.0003 O   0  0  0  0  0  0  0  0  0  0  0  0
    3.9493    3.5570   -0.0058 C   0  0  0  0  0  0  0  0  0  0  0  0
    5.9389   -0.4212    1.0389 H   0  0  0  0  0  0  0  0  0  0  0  0
    5.7878   -1.3035   -0.4997 H   0  0  0  0  0  0  0  0  0  0  0  0
    6.0943    0.4499   -0.5056 H   0  0  0  0  0  0  0  0  0  0  0  0
    1.9017    2.4783   -0.0040 H   0  0  0  0  0  0  0  0  0  0  0  0
    3.8054   -2.8150   -0.8727 H   0  0  0  0  0  0  0  0  0  0  0  0
   -1.2715   -2.4382    0.0110 H   0  0  0  0  0  0  0  0  0  0  0  0
   -1.9703    2.1122   -0.0046 H   0  0  0  0  0  0  0  0  0  0  0  0
   -4.3622    2.6752   -0.0089 H   0  0  0  0  0  0  0  0  0  0  0  0
   -5.3547   -1.4853    0.0053 H   0  0  0  0  0  0  0  0  0  0  0  0
   -2.9662   -2.0626    0.0032 H   0  0  0  0  0  0  0  0  0  0  0  0
   -7.0954   -0.7559   -0.8900 H   0  0  0  0  0  0  0  0  0  0  0  0
   -7.0971   -0.7498    0.8899 H   0  0  0  0  0  0  0  0  0  0  0  0
   -8.2699    0.2465   -0.0047 H   0  0  0  0  0  0  0  0  0  0  0  0
    3.3364    3.6909   -0.8971 H   0  0  0  0  0  0  0  0  0  0  0  0
    3.3339    3.6973    0.8828 H   0  0  0  0  0  0  0  0  0  0  0  0
    4.7574    4.2886   -0.0074 H   0  0  0  0  0  0  0  0  0  0  0  0
  1  2  1  0  0  0  0
  2  3  2  0  0  0  0
  3  4  1  0  0  0  0
  4  5  2  0  0  0  0
  5  6  1  0  0  0  0
  6  7  2  0  0  0  0
  2  7  1  0  0  0  0
  7  8  1  0  0  0  0
  6  9  1  0  0  0  0
  9 10  2  0  0  0  0
  9 11  1  0  0  0  0
 11 12  2  0  0  0  0
 12 13  1  0  0  0  0
  5 13  1  0  0  0  0
 12 14  1  0  0  0  0
 14 15  2  0  0  0  0
 15 16  1  0  0  0  0
 16 17  2  0  0  0  0
 17 18  1  0  0  0  0
 18 19  2  0  0  0  0
 14 19  1  0  0  0  0
 17 20  1  0  0  0  0
 20 21  1  0  0  0  0
  3 22  1  0  0  0  0
 22 23  1  0  0  0  0
  1 24  1  0  0  0  0
  1 25  1  0  0  0  0
  1 26  1  0  0  0  0
  4 27  1  0  0  0  0
  8 28  1  0  0  0  0
 11 29  1  0  0  0  0
 15 30  1  0  0  0  0
 16 31  1  0  0  0  0
 18 32  1  0  0  0  0
 19 33  1  0  0  0  0
 21 34  1  0  0  0  0
 21 35  1  0  0  0  0
 21 36  1  0  0  0  0
 23 37  1  0  0  0  0
 23 38  1  0  0  0  0
 23 39  1  0  0  0  0
M  END
$$$$
