C26H20O7
APtclcactv06291802413D 0   0.00000     0.00000
 
 53 57  0  0  0  0  0  0  0  0999 V2000
    4.6497   -2.6890    1.7323 C   0  0  0  0  0  0  0  0  0  0  0  0
    4.3016   -2.2113    0.3461 C   0  0  0  0  0  0  0  0  0  0  0  0
    5.1684   -2.3713   -0.6496 C   0  0  0  0  0  0  0  0  0  0  0  0
    3.0008   -1.5668    0.0939 C   0  0  0  0  0  0  0  0  0  0  0  0
    2.9246   -0.1770   -0.0874 C   0  0  0  0  0  0  0  0  0  0  0  0
    1.6850    0.4379   -0.3364 C   0  0  0  0  0  0  0  0  0  0  0  0
    0.5204   -0.3335   -0.4018 C   0  0  0  0  0  0  0  0  0  0  0  0
    0.6113   -1.7281   -0.2071 C   0  0  0  0  0  0  0  0  0  0  0  0
    1.8324   -2.3385    0.0278 C   0  0  0  0  0  0  0  0  0  0  0  0
   -0.6379   -2.5256   -0.2574 C   0  0  0  0  0  0  0  0  0  0  0  0
   -0.6258   -3.7410   -0.3243 O   0  0  0  0  0  0  0  0  0  0  0  0
   -1.8946   -1.7575   -0.2209 C   0  0  0  0  0  0  0  0  0  0  0  0
   -3.1228   -2.3950    0.0065 C   0  0  0  0  0  0  0  0  0  0  0  0
   -4.2910   -1.6519    0.0507 C   0  0  0  0  0  0  0  0  0  0  0  0
   -4.2462   -0.2795   -0.1324 C   0  0  0  0  0  0  0  0  0  0  0  0
   -3.0220    0.3663   -0.3668 C   0  0  0  0  0  0  0  0  0  0  0  0
   -1.8350   -0.3668   -0.4164 C   0  0  0  0  0  0  0  0  0  0  0  0
   -0.6633    0.2537   -0.6541 O   0  0  0  0  0  0  0  0  0  0  0  0
   -3.0238    1.8319   -0.5577 C   0  0  0  0  0  0  0  0  0  0  0  0
   -4.1029    2.5122   -0.1736 C   0  0  0  0  0  0  0  0  0  0  0  0
   -5.2680    1.7864    0.4461 C   0  0  0  0  0  0  0  0  0  0  0  0
   -5.3786    0.4671   -0.0890 O   0  0  0  0  0  0  0  0  0  0  0  0
   -5.0623    1.7014    1.9598 C   0  0  0  0  0  0  0  0  0  0  0  0
   -6.5563    2.5587    0.1551 C   0  0  0  0  0  0  0  0  0  0  0  0
   -3.1669   -3.7389    0.1827 O   0  0  0  0  0  0  0  0  0  0  0  0
    1.6342    1.9016   -0.5258 C   0  0  0  0  0  0  0  0  0  0  0  0
    0.6366    2.4269   -0.9837 O   0  0  0  0  0  0  0  0  0  0  0  0
    2.7969    2.7171   -0.1565 C   0  0  0  0  0  0  0  0  0  0  0  0
    3.9919    2.1336    0.0849 C   0  0  0  0  0  0  0  0  0  0  0  0
    4.1378    0.6626   -0.0202 C   0  0  0  0  0  0  0  0  0  0  0  0
    5.2409    0.1540   -0.0511 O   0  0  0  0  0  0  0  0  0  0  0  0
    5.0586    2.8952    0.4238 O   0  0  0  0  0  0  0  0  0  0  0  0
    4.8482    4.3062    0.5070 C   0  0  0  0  0  0  0  0  0  0  0  0
    5.1466   -1.8875    2.2788 H   0  0  0  0  0  0  0  0  0  0  0  0
    3.7385   -2.9760    2.2572 H   0  0  0  0  0  0  0  0  0  0  0  0
    5.3156   -3.5492    1.6636 H   0  0  0  0  0  0  0  0  0  0  0  0
    6.1219   -2.8437   -0.4647 H   0  0  0  0  0  0  0  0  0  0  0  0
    4.9190   -2.0289   -1.6430 H   0  0  0  0  0  0  0  0  0  0  0  0
    1.8833   -3.4082    0.1669 H   0  0  0  0  0  0  0  0  0  0  0  0
   -5.2367   -2.1425    0.2276 H   0  0  0  0  0  0  0  0  0  0  0  0
   -2.1754    2.3364   -0.9960 H   0  0  0  0  0  0  0  0  0  0  0  0
   -4.1421    3.5833   -0.3061 H   0  0  0  0  0  0  0  0  0  0  0  0
   -4.9963    2.7073    2.3745 H   0  0  0  0  0  0  0  0  0  0  0  0
   -5.9039    1.1766    2.4119 H   0  0  0  0  0  0  0  0  0  0  0  0
   -4.1403    1.1599    2.1714 H   0  0  0  0  0  0  0  0  0  0  0  0
   -6.7018    2.6298   -0.9228 H   0  0  0  0  0  0  0  0  0  0  0  0
   -7.4020    2.0362    0.6023 H   0  0  0  0  0  0  0  0  0  0  0  0
   -6.4829    3.5604    0.5787 H   0  0  0  0  0  0  0  0  0  0  0  0
   -3.0760   -4.0180    1.1041 H   0  0  0  0  0  0  0  0  0  0  0  0
    2.6973    3.7896   -0.0776 H   0  0  0  0  0  0  0  0  0  0  0  0
    4.0876    4.5164    1.2590 H   0  0  0  0  0  0  0  0  0  0  0  0
    5.7806    4.7968    0.7864 H   0  0  0  0  0  0  0  0  0  0  0  0
    4.5158    4.6817   -0.4608 H   0  0  0  0  0  0  0  0  0  0  0  0
  1  2  1  0  0  0  0
  2  3  2  0  0  0  0
  2  4  1  0  0  0  0
  4  5  2  0  0  0  0
  5  6  1  0  0  0  0
  6  7  2  0  0  0  0
  7  8  1  0  0  0  0
  8  9  2  0  0  0  0
  4  9  1  0  0  0  0
  8 10  1  0  0  0  0
 10 11  2  0  0  0  0
 10 12  1  0  0  0  0
 12 13  2  0  0  0  0
 13 14  1  0  0  0  0
 14 15  2  0  0  0  0
 15 16  1  0  0  0  0
 16 17  2  0  0  0  0
 12 17  1  0  0  0  0
 17 18  1  0  0  0  0
  7 18  1  0  0  0  0
 16 19  1  0  0  0  0
 19 20  2  0  0  0  0
 20 21  1  0  0  0  0
 21 22  1  0  0  0  0
 15 22  1  0  0  0  0
 21 23  1  0  0  0  0
 21 24  1  0  0  0  0
 13 25  1  0  0  0  0
  6 26  1  0  0  0  0
 26 27  2  0  0  0  0
 26 28  1  0  0  0  0
 28 29  2  0  0  0  0
 29 30  1  0  0  0  0
  5 30  1  0  0  0  0
 30 31  2  0  0  0  0
 29 32  1  0  0  0  0
 32 33  1  0  0  0  0
  1 34  1  0  0  0  0
  1 35  1  0  0  0  0
  1 36  1  0  0  0  0
  3 37  1  0  0  0  0
  3 38  1  0  0  0  0
  9 39  1  0  0  0  0
 14 40  1  0  0  0  0
 19 41  1  0  0  0  0
 20 42  1  0  0  0  0
 23 43  1  0  0  0  0
 23 44  1  0  0  0  0
 23 45  1  0  0  0  0
 24 46  1  0  0  0  0
 24 47  1  0  0  0  0
 24 48  1  0  0  0  0
 25 49  1  0  0  0  0
 28 50  1  0  0  0  0
 33 51  1  0  0  0  0
 33 52  1  0  0  0  0
 33 53  1  0  0  0  0
M  END
$$$$
