C20H24O2
APtclcactv06211806403D 0   0.00000     0.00000
 
 46 47  0  0  0  0  0  0  0  0999 V2000
    2.4871   -3.3277    0.3230 C   0  0  0  0  0  0  0  0  0  0  0  0
    1.1236   -2.7306    0.0875 C   0  0  0  0  0  0  0  0  0  0  0  0
    0.8734   -1.4179    0.4557 C   0  0  0  0  0  0  0  0  0  0  0  0
   -0.3849   -0.8688    0.2377 C   0  0  0  0  0  0  0  0  0  0  0  0
   -1.4011   -1.6452   -0.3554 C   0  0  0  0  0  0  0  0  0  0  0  0
   -1.1292   -2.9637   -0.7190 C   0  0  0  0  0  0  0  0  0  0  0  0
    0.1315   -3.4936   -0.4995 C   0  0  0  0  0  0  0  0  0  0  0  0
   -2.7305   -1.0676   -0.5855 C   0  0  0  0  0  0  0  0  0  0  0  0
   -3.0219    0.2016   -0.2445 C   0  0  0  0  0  0  0  0  0  0  0  0
   -2.0608    1.0499    0.3550 C   0  0  0  0  0  0  0  0  0  0  0  0
   -2.3511    2.1917    0.6522 O   0  0  0  0  0  0  0  0  0  0  0  0
   -0.6823    0.5271    0.6196 C   0  0  0  0  0  0  0  0  0  0  0  0
    0.1644    1.2287    1.1322 O   0  0  0  0  0  0  0  0  0  0  0  0
   -4.4072    0.7330   -0.5083 C   0  0  0  0  0  0  0  0  0  0  0  0
   -5.0489    1.1623    0.8126 C   0  0  0  0  0  0  0  0  0  0  0  0
   -4.3210    1.9369   -1.4486 C   0  0  0  0  0  0  0  0  0  0  0  0
    1.9608   -0.5895    1.0900 C   0  0  0  0  0  0  0  0  0  0  0  0
    2.6564    0.2483    0.0152 C   0  0  0  0  0  0  0  0  0  0  0  0
    3.7604    1.0893    0.6593 C   0  0  0  0  0  0  0  0  0  0  0  0
    4.4455    1.9144   -0.3994 C   0  0  0  0  0  0  0  0  0  0  0  0
    4.0639    3.1486   -0.6167 C   0  0  0  0  0  0  0  0  0  0  0  0
    5.5697    1.3198   -1.2080 C   0  0  0  0  0  0  0  0  0  0  0  0
    2.5160   -3.7896    1.3099 H   0  0  0  0  0  0  0  0  0  0  0  0
    2.6897   -4.0820   -0.4373 H   0  0  0  0  0  0  0  0  0  0  0  0
    3.2419   -2.5433    0.2668 H   0  0  0  0  0  0  0  0  0  0  0  0
   -1.8990   -3.5694   -1.1740 H   0  0  0  0  0  0  0  0  0  0  0  0
    0.3390   -4.5150   -0.7822 H   0  0  0  0  0  0  0  0  0  0  0  0
   -3.4963   -1.6776   -1.0414 H   0  0  0  0  0  0  0  0  0  0  0  0
   -5.0133   -0.0462   -0.9704 H   0  0  0  0  0  0  0  0  0  0  0  0
   -6.0508    1.5467    0.6217 H   0  0  0  0  0  0  0  0  0  0  0  0
   -5.1102    0.3046    1.4824 H   0  0  0  0  0  0  0  0  0  0  0  0
   -4.4427    1.9415    1.2746 H   0  0  0  0  0  0  0  0  0  0  0  0
   -3.8639    1.6310   -2.3896 H   0  0  0  0  0  0  0  0  0  0  0  0
   -5.3230    2.3213   -1.6394 H   0  0  0  0  0  0  0  0  0  0  0  0
   -3.7149    2.7161   -0.9865 H   0  0  0  0  0  0  0  0  0  0  0  0
    1.5242    0.0708    1.8393 H   0  0  0  0  0  0  0  0  0  0  0  0
    2.6884   -1.2475    1.5652 H   0  0  0  0  0  0  0  0  0  0  0  0
    3.0930   -0.4120   -0.7341 H   0  0  0  0  0  0  0  0  0  0  0  0
    1.9288    0.9063   -0.4600 H   0  0  0  0  0  0  0  0  0  0  0  0
    3.3238    1.7496    1.4086 H   0  0  0  0  0  0  0  0  0  0  0  0
    4.4880    0.4313    1.1345 H   0  0  0  0  0  0  0  0  0  0  0  0
    4.5550    3.7400   -1.3754 H   0  0  0  0  0  0  0  0  0  0  0  0
    3.2583    3.5748   -0.0373 H   0  0  0  0  0  0  0  0  0  0  0  0
    5.1632    0.8441   -2.1005 H   0  0  0  0  0  0  0  0  0  0  0  0
    6.2634    2.1081   -1.5004 H   0  0  0  0  0  0  0  0  0  0  0  0
    6.0955    0.5772   -0.6079 H   0  0  0  0  0  0  0  0  0  0  0  0
  1  2  1  0  0  0  0
  2  3  2  0  0  0  0
  3  4  1  0  0  0  0
  4  5  2  0  0  0  0
  5  6  1  0  0  0  0
  6  7  2  0  0  0  0
  2  7  1  0  0  0  0
  5  8  1  0  0  0  0
  8  9  2  0  0  0  0
  9 10  1  0  0  0  0
 10 11  2  0  0  0  0
 10 12  1  0  0  0  0
  4 12  1  0  0  0  0
 12 13  2  0  0  0  0
  9 14  1  0  0  0  0
 14 15  1  0  0  0  0
 14 16  1  0  0  0  0
  3 17  1  0  0  0  0
 17 18  1  0  0  0  0
 18 19  1  0  0  0  0
 19 20  1  0  0  0  0
 20 21  2  0  0  0  0
 20 22  1  0  0  0  0
  1 23  1  0  0  0  0
  1 24  1  0  0  0  0
  1 25  1  0  0  0  0
  6 26  1  0  0  0  0
  7 27  1  0  0  0  0
  8 28  1  0  0  0  0
 14 29  1  0  0  0  0
 15 30  1  0  0  0  0
 15 31  1  0  0  0  0
 15 32  1  0  0  0  0
 16 33  1  0  0  0  0
 16 34  1  0  0  0  0
 16 35  1  0  0  0  0
 17 36  1  0  0  0  0
 17 37  1  0  0  0  0
 18 38  1  0  0  0  0
 18 39  1  0  0  0  0
 19 40  1  0  0  0  0
 19 41  1  0  0  0  0
 21 42  1  0  0  0  0
 21 43  1  0  0  0  0
 22 44  1  0  0  0  0
 22 45  1  0  0  0  0
 22 46  1  0  0  0  0
M  END
$$$$
