C22H22O5
APtclcactv06291802413D 0   0.00000     0.00000
 
 49 50  0  0  0  0  0  0  0  0999 V2000
    5.2220   -0.1274   -2.0109 C   0  0  0  0  0  0  0  0  0  0  0  0
    5.1479   -0.1361   -0.5058 C   0  0  0  0  0  0  0  0  0  0  0  0
    4.4802    0.7995    0.1226 C   0  0  0  0  0  0  0  0  0  0  0  0
    3.6831    1.8112   -0.6599 C   0  0  0  0  0  0  0  0  0  0  0  0
    2.2626    1.8292   -0.1570 C   0  0  0  0  0  0  0  0  0  0  0  0
    1.9026    2.6861    0.8726 C   0  0  0  0  0  0  0  0  0  0  0  0
    0.5922    2.7077    1.3418 C   0  0  0  0  0  0  0  0  0  0  0  0
   -0.3558    1.8796    0.7875 C   0  0  0  0  0  0  0  0  0  0  0  0
   -0.0039    1.0119   -0.2515 C   0  0  0  0  0  0  0  0  0  0  0  0
    1.3165    0.9947   -0.7267 C   0  0  0  0  0  0  0  0  0  0  0  0
    1.6665    0.1566   -1.7344 O   0  0  0  0  0  0  0  0  0  0  0  0
   -1.0168    0.1224   -0.8481 C   0  0  0  0  0  0  0  0  0  0  0  0
   -0.7076   -0.6324   -1.7529 O   0  0  0  0  0  0  0  0  0  0  0  0
   -2.3925    0.1460   -0.3539 C   0  0  0  0  0  0  0  0  0  0  0  0
   -3.3210   -0.6694   -0.9009 C   0  0  0  0  0  0  0  0  0  0  0  0
   -4.7036   -0.6457   -0.4042 C   0  0  0  0  0  0  0  0  0  0  0  0
   -5.6677   -1.4895   -0.9691 C   0  0  0  0  0  0  0  0  0  0  0  0
   -6.9615   -1.4632   -0.5001 C   0  0  0  0  0  0  0  0  0  0  0  0
   -7.3119   -0.6005    0.5324 C   0  0  0  0  0  0  0  0  0  0  0  0
   -6.3585    0.2396    1.0969 C   0  0  0  0  0  0  0  0  0  0  0  0
   -5.0605    0.2168    0.6396 C   0  0  0  0  0  0  0  0  0  0  0  0
   -8.5893   -0.5778    0.9906 O   0  0  0  0  0  0  0  0  0  0  0  0
    2.8319    3.5065    1.4252 O   0  0  0  0  0  0  0  0  0  0  0  0
    5.8420   -1.2211    0.2765 C   0  0  0  0  0  0  0  0  0  0  0  0
    4.9292   -2.4454    0.3709 C   0  0  0  0  0  0  0  0  0  0  0  0
    5.6233   -3.5304    1.1532 C   0  0  0  0  0  0  0  0  0  0  0  0
    5.0870   -4.0143    2.1209 O   0  0  0  0  0  0  0  0  0  0  0  0
    5.6043    0.8353   -2.3503 H   0  0  0  0  0  0  0  0  0  0  0  0
    5.8886   -0.9219   -2.3465 H   0  0  0  0  0  0  0  0  0  0  0  0
    4.2266   -0.2894   -2.4246 H   0  0  0  0  0  0  0  0  0  0  0  0
    4.5010    0.8459    1.2014 H   0  0  0  0  0  0  0  0  0  0  0  0
    4.1259    2.7991   -0.5334 H   0  0  0  0  0  0  0  0  0  0  0  0
    3.6913    1.5419   -1.7161 H   0  0  0  0  0  0  0  0  0  0  0  0
    0.3190    3.3770    2.1443 H   0  0  0  0  0  0  0  0  0  0  0  0
   -1.3714    1.8991    1.1545 H   0  0  0  0  0  0  0  0  0  0  0  0
    1.5637    0.5382   -2.6170 H   0  0  0  0  0  0  0  0  0  0  0  0
   -2.6667    0.8151    0.4482 H   0  0  0  0  0  0  0  0  0  0  0  0
   -3.0469   -1.3386   -1.7030 H   0  0  0  0  0  0  0  0  0  0  0  0
   -5.3967   -2.1595   -1.7716 H   0  0  0  0  0  0  0  0  0  0  0  0
   -7.7058   -2.1137   -0.9351 H   0  0  0  0  0  0  0  0  0  0  0  0
   -6.6359    0.9078    1.8987 H   0  0  0  0  0  0  0  0  0  0  0  0
   -4.3207    0.8697    1.0787 H   0  0  0  0  0  0  0  0  0  0  0  0
   -8.7587   -1.1967    1.7141 H   0  0  0  0  0  0  0  0  0  0  0  0
    2.9003    4.3697    0.9946 H   0  0  0  0  0  0  0  0  0  0  0  0
    6.7684   -1.4966   -0.2275 H   0  0  0  0  0  0  0  0  0  0  0  0
    6.0680   -0.8583    1.2792 H   0  0  0  0  0  0  0  0  0  0  0  0
    4.0029   -2.1699    0.8749 H   0  0  0  0  0  0  0  0  0  0  0  0
    4.7032   -2.8082   -0.6318 H   0  0  0  0  0  0  0  0  0  0  0  0
    6.6003   -3.8752    0.8483 H   0  0  0  0  0  0  0  0  0  0  0  0
  1  2  1  0  0  0  0
  2  3  2  0  0  0  0
  3  4  1  0  0  0  0
  4  5  1  0  0  0  0
  5  6  2  0  0  0  0
  6  7  1  0  0  0  0
  7  8  2  0  0  0  0
  8  9  1  0  0  0  0
  9 10  2  0  0  0  0
  5 10  1  0  0  0  0
 10 11  1  0  0  0  0
  9 12  1  0  0  0  0
 12 13  2  0  0  0  0
 12 14  1  0  0  0  0
 14 15  2  0  0  0  0
 15 16  1  0  0  0  0
 16 17  2  0  0  0  0
 17 18  1  0  0  0  0
 18 19  2  0  0  0  0
 19 20  1  0  0  0  0
 20 21  2  0  0  0  0
 16 21  1  0  0  0  0
 19 22  1  0  0  0  0
  6 23  1  0  0  0  0
  2 24  1  0  0  0  0
 24 25  1  0  0  0  0
 25 26  1  0  0  0  0
 26 27  2  0  0  0  0
  1 28  1  0  0  0  0
  1 29  1  0  0  0  0
  1 30  1  0  0  0  0
  3 31  1  0  0  0  0
  4 32  1  0  0  0  0
  4 33  1  0  0  0  0
  7 34  1  0  0  0  0
  8 35  1  0  0  0  0
 11 36  1  0  0  0  0
 14 37  1  0  0  0  0
 15 38  1  0  0  0  0
 17 39  1  0  0  0  0
 18 40  1  0  0  0  0
 20 41  1  0  0  0  0
 21 42  1  0  0  0  0
 22 43  1  0  0  0  0
 23 44  1  0  0  0  0
 24 45  1  0  0  0  0
 24 46  1  0  0  0  0
 25 47  1  0  0  0  0
 25 48  1  0  0  0  0
 26 49  1  0  0  0  0
M  END
$$$$
