C18H20O4
APtclcactv06291802413D 0   0.00000     0.00000
 
 42 43  0  0  0  0  0  0  0  0999 V2000
    4.8361   -1.6397    0.0162 C   0  0  0  0  0  0  0  0  0  0  0  0
    3.5825   -0.8032    0.0102 C   0  0  0  0  0  0  0  0  0  0  0  0
    3.6751    0.5829    0.0031 C   0  0  0  0  0  0  0  0  0  0  0  0
    2.5266    1.3652   -0.0021 C   0  0  0  0  0  0  0  0  0  0  0  0
    1.2797    0.7698   -0.0003 C   0  0  0  0  0  0  0  0  0  0  0  0
    1.1753   -0.6341    0.0064 C   0  0  0  0  0  0  0  0  0  0  0  0
    2.3444   -1.4176    0.0059 C   0  0  0  0  0  0  0  0  0  0  0  0
    2.2565   -2.7709    0.0123 O   0  0  0  0  0  0  0  0  0  0  0  0
   -0.1387   -1.2737    0.0089 C   0  0  0  0  0  0  0  0  0  0  0  0
   -0.2242   -2.4845    0.0146 O   0  0  0  0  0  0  0  0  0  0  0  0
   -1.3874   -0.4301    0.0043 C   0  0  0  0  0  0  0  0  0  0  0  0
   -2.6175   -1.3399    0.0081 C   0  0  0  0  0  0  0  0  0  0  0  0
   -3.8663   -0.4963    0.0035 C   0  0  0  0  0  0  0  0  0  0  0  0
   -4.4385   -0.1151   -1.1957 C   0  0  0  0  0  0  0  0  0  0  0  0
   -5.5839    0.6587   -1.1999 C   0  0  0  0  0  0  0  0  0  0  0  0
   -6.1574    1.0510   -0.0048 C   0  0  0  0  0  0  0  0  0  0  0  0
   -5.5857    0.6691    1.1944 C   0  0  0  0  0  0  0  0  0  0  0  0
   -4.4427   -0.1084    1.1986 C   0  0  0  0  0  0  0  0  0  0  0  0
    0.1603    1.5353   -0.0045 O   0  0  0  0  0  0  0  0  0  0  0  0
    0.3435    2.9525   -0.0106 C   0  0  0  0  0  0  0  0  0  0  0  0
    4.8950    1.1768    0.0018 O   0  0  0  0  0  0  0  0  0  0  0  0
    4.9210    2.6055   -0.0056 C   0  0  0  0  0  0  0  0  0  0  0  0
    5.1368   -1.8360    1.0454 H   0  0  0  0  0  0  0  0  0  0  0  0
    4.6450   -2.5843   -0.4930 H   0  0  0  0  0  0  0  0  0  0  0  0
    5.6330   -1.1037   -0.4993 H   0  0  0  0  0  0  0  0  0  0  0  0
    2.6089    2.4420   -0.0072 H   0  0  0  0  0  0  0  0  0  0  0  0
    2.2280   -3.1673   -0.8693 H   0  0  0  0  0  0  0  0  0  0  0  0
   -1.4012    0.2033    0.8913 H   0  0  0  0  0  0  0  0  0  0  0  0
   -1.4005    0.1948   -0.8887 H   0  0  0  0  0  0  0  0  0  0  0  0
   -2.6037   -1.9733   -0.8789 H   0  0  0  0  0  0  0  0  0  0  0  0
   -2.6045   -1.9648    0.9011 H   0  0  0  0  0  0  0  0  0  0  0  0
   -3.9904   -0.4216   -2.1293 H   0  0  0  0  0  0  0  0  0  0  0  0
   -6.0306    0.9572   -2.1368 H   0  0  0  0  0  0  0  0  0  0  0  0
   -7.0519    1.6562   -0.0081 H   0  0  0  0  0  0  0  0  0  0  0  0
   -6.0335    0.9758    2.1281 H   0  0  0  0  0  0  0  0  0  0  0  0
   -3.9961   -0.4069    2.1355 H   0  0  0  0  0  0  0  0  0  0  0  0
   -0.6291    3.4446   -0.0135 H   0  0  0  0  0  0  0  0  0  0  0  0
    0.8990    3.2509    0.8784 H   0  0  0  0  0  0  0  0  0  0  0  0
    0.9003    3.2430   -0.9015 H   0  0  0  0  0  0  0  0  0  0  0  0
    4.4151    2.9735   -0.8982 H   0  0  0  0  0  0  0  0  0  0  0  0
    4.4126    2.9827    0.8817 H   0  0  0  0  0  0  0  0  0  0  0  0
    5.9551    2.9501   -0.0059 H   0  0  0  0  0  0  0  0  0  0  0  0
  1  2  1  0  0  0  0
  2  3  2  0  0  0  0
  3  4  1  0  0  0  0
  4  5  2  0  0  0  0
  5  6  1  0  0  0  0
  6  7  2  0  0  0  0
  2  7  1  0  0  0  0
  7  8  1  0  0  0  0
  6  9  1  0  0  0  0
  9 10  2  0  0  0  0
  9 11  1  0  0  0  0
 11 12  1  0  0  0  0
 12 13  1  0  0  0  0
 13 14  2  0  0  0  0
 14 15  1  0  0  0  0
 15 16  2  0  0  0  0
 16 17  1  0  0  0  0
 17 18  2  0  0  0  0
 13 18  1  0  0  0  0
  5 19  1  0  0  0  0
 19 20  1  0  0  0  0
  3 21  1  0  0  0  0
 21 22  1  0  0  0  0
  1 23  1  0  0  0  0
  1 24  1  0  0  0  0
  1 25  1  0  0  0  0
  4 26  1  0  0  0  0
  8 27  1  0  0  0  0
 11 28  1  0  0  0  0
 11 29  1  0  0  0  0
 12 30  1  0  0  0  0
 12 31  1  0  0  0  0
 14 32  1  0  0  0  0
 15 33  1  0  0  0  0
 16 34  1  0  0  0  0
 17 35  1  0  0  0  0
 18 36  1  0  0  0  0
 20 37  1  0  0  0  0
 20 38  1  0  0  0  0
 20 39  1  0  0  0  0
 22 40  1  0  0  0  0
 22 41  1  0  0  0  0
 22 42  1  0  0  0  0
M  END
$$$$
