C5H6O3
APtclcactv06211806413D 0   0.00000     0.00000
 
 14 14  0  0  0  0  0  0  0  0999 V2000
    0.2916    1.5278   -0.0000 C   0  0  0  0  0  0  0  0  0  0  0  0
   -0.6707    0.3630   -0.0002 C   0  0  0  0  0  0  0  0  0  0  0  0
    0.0636   -0.7465   -0.0002 C   0  0  0  0  0  0  0  0  0  0  0  0
    1.4856   -0.3926   -0.0001 C   0  0  0  0  0  0  0  0  0  0  0  0
    2.4028   -1.1899    0.0002 O   0  0  0  0  0  0  0  0  0  0  0  0
    1.6256    0.9463   -0.0000 O   0  0  0  0  0  0  0  0  0  0  0  0
   -2.1756    0.4428    0.0002 C   0  0  0  0  0  0  0  0  0  0  0  0
   -2.7226   -0.8774   -0.0001 O   0  0  0  0  0  0  0  0  0  0  0  0
    0.1466    2.1346   -0.8938 H   0  0  0  0  0  0  0  0  0  0  0  0
    0.1465    2.1344    0.8939 H   0  0  0  0  0  0  0  0  0  0  0  0
   -0.3281   -1.7530    0.0000 H   0  0  0  0  0  0  0  0  0  0  0  0
   -2.5110    0.9748    0.8905 H   0  0  0  0  0  0  0  0  0  0  0  0
   -2.5115    0.9754   -0.8895 H   0  0  0  0  0  0  0  0  0  0  0  0
   -3.6893   -0.9027    0.0002 H   0  0  0  0  0  0  0  0  0  0  0  0
  1  2  1  0  0  0  0
  2  3  2  0  0  0  0
  3  4  1  0  0  0  0
  4  5  2  0  0  0  0
  4  6  1  0  0  0  0
  1  6  1  0  0  0  0
  2  7  1  0  0  0  0
  7  8  1  0  0  0  0
  1  9  1  0  0  0  0
  1 10  1  0  0  0  0
  3 11  1  0  0  0  0
  7 12  1  0  0  0  0
  7 13  1  0  0  0  0
  8 14  1  0  0  0  0
M  END
$$$$
