C32H32N6O7S4
APtclcactv06211806413D 0   0.00000     0.00000
 
 81 90  0  0  0  0  0  0  0  0999 V2000
    4.2428   -2.5990   -1.9284 C   0  0  0  0  0  0  0  0  0  0  0  0
    5.0641   -1.7854   -0.9262 C   0  0  0  0  0  0  0  0  0  0  0  0
    6.0112   -0.8513   -1.6821 C   0  0  0  0  0  0  0  0  0  0  0  0
    4.1204   -0.9545   -0.0465 C   0  0  0  0  0  0  0  0  0  0  0  0
    3.2797   -0.2744   -1.0550 C   0  0  0  0  0  0  0  0  0  0  0  0
    3.7156   -0.0200   -2.1582 O   0  0  0  0  0  0  0  0  0  0  0  0
    2.0225    0.0418   -0.7133 N   0  0  0  0  0  0  0  0  0  0  0  0
    1.0197    0.9105   -1.2940 C   0  0  0  0  0  0  0  0  0  0  0  0
   -0.3112    0.2551   -0.9525 C   0  0  0  0  0  0  0  0  0  0  0  0
    0.0912   -0.9964   -0.1571 C   0  0  0  0  0  0  0  0  0  0  0  0
    1.3836   -0.5472    0.5230 C   0  0  0  0  0  0  0  0  0  0  0  0
    2.0981   -1.7365    1.0286 C   0  0  0  0  0  0  0  0  0  0  0  0
    1.4812   -2.5075    1.7398 O   0  0  0  0  0  0  0  0  0  0  0  0
    3.3863   -1.9920    0.7376 N   0  0  0  0  0  0  0  0  0  0  0  0
    4.0426   -3.2396    1.1500 C   0  0  0  0  0  0  0  0  0  0  0  0
    1.0705    0.7543    1.7333 S   0  0  0  0  0  0  0  0  0  0  0  0
    2.7615    1.9510    1.6483 S   0  0  0  0  0  0  0  0  0  0  0  0
    4.2191    0.8000    2.4973 S   0  0  0  0  0  0  0  0  0  0  0  0
    5.2325    0.0476    0.8925 S   0  0  0  0  0  0  0  0  0  0  0  0
   -0.9998   -1.5348    0.5457 O   0  0  0  0  0  0  0  0  0  0  0  0
   -2.1206   -0.7468    0.8696 C   0  0  0  0  0  0  0  0  0  0  0  0
   -1.5616    0.6245    1.2749 C   0  0  0  0  0  0  0  0  0  0  0  0
   -1.2185    1.1468   -0.1203 C   0  0  0  0  0  0  0  0  0  0  0  0
   -2.6127    0.9230   -0.7736 C   0  0  0  0  0  0  0  0  0  0  0  0
   -3.0510   -0.3388   -0.1830 N   0  0  0  0  0  0  0  0  0  0  0  0
   -4.1729   -1.0198   -0.5136 C   0  0  0  0  0  0  0  0  0  0  0  0
   -4.8496   -0.6698   -1.4551 O   0  0  0  0  0  0  0  0  0  0  0  0
   -4.5604   -2.2178    0.3247 C   0  0  0  0  0  0  0  0  0  0  0  0
   -4.0612   -2.0712    1.6957 N   0  0  0  0  0  0  0  0  0  0  0  0
   -2.9428   -1.3774    1.9789 C   0  0  0  0  0  0  0  0  0  0  0  0
   -2.5875   -1.2674    3.1349 O   0  0  0  0  0  0  0  0  0  0  0  0
   -4.7948   -2.7023    2.7965 C   0  0  0  0  0  0  0  0  0  0  0  0
   -6.0868   -2.3160    0.3597 C   0  0  0  0  0  0  0  0  0  0  0  0
   -6.6321   -1.0878    0.8457 O   0  0  0  0  0  0  0  0  0  0  0  0
   -3.3183    2.1245   -0.3494 N   0  0  0  0  0  0  0  0  0  0  0  0
   -2.4102    3.1604   -0.1888 C   0  0  0  0  0  0  0  0  0  0  0  0
   -2.6483    4.5331   -0.1539 C   0  0  0  0  0  0  0  0  0  0  0  0
   -1.5474    5.3579    0.0187 C   0  0  0  0  0  0  0  0  0  0  0  0
   -0.2754    4.8462    0.1572 C   0  0  0  0  0  0  0  0  0  0  0  0
   -0.0332    3.4773    0.1476 C   0  0  0  0  0  0  0  0  0  0  0  0
   -1.1179    2.6392   -0.0470 C   0  0  0  0  0  0  0  0  0  0  0  0
   -2.6143    1.3985    1.8879 O   0  0  0  0  0  0  0  0  0  0  0  0
   -0.8167   -0.2423   -2.2900 C   0  0  0  0  0  0  0  0  0  0  0  0
   -1.8729   -1.0925   -2.5678 C   0  0  0  0  0  0  0  0  0  0  0  0
   -2.1429   -1.3479   -3.9088 C   0  0  0  0  0  0  0  0  0  0  0  0
   -1.3612   -0.8147   -4.9109 C   0  0  0  0  0  0  0  0  0  0  0  0
   -0.2615   -0.0164   -4.6413 C   0  0  0  0  0  0  0  0  0  0  0  0
    0.0070    0.2545   -3.2959 C   0  0  0  0  0  0  0  0  0  0  0  0
    1.0562    0.9641   -2.7516 N   0  0  0  0  0  0  0  0  0  0  0  0
    4.9146   -3.1589   -2.5790 H   0  0  0  0  0  0  0  0  0  0  0  0
    3.5964   -3.2924   -1.3904 H   0  0  0  0  0  0  0  0  0  0  0  0
    3.6323   -1.9254   -2.5297 H   0  0  0  0  0  0  0  0  0  0  0  0
    5.6448   -2.4614   -0.2986 H   0  0  0  0  0  0  0  0  0  0  0  0
    5.4291   -0.1454   -2.2746 H   0  0  0  0  0  0  0  0  0  0  0  0
    6.6283   -0.3048   -0.9689 H   0  0  0  0  0  0  0  0  0  0  0  0
    6.6508   -1.4381   -2.3413 H   0  0  0  0  0  0  0  0  0  0  0  0
    1.1342    1.9218   -0.8766 H   0  0  0  0  0  0  0  0  0  0  0  0
    0.3852   -1.8041   -0.9099 H   0  0  0  0  0  0  0  0  0  0  0  0
    3.3660   -3.8143    1.7824 H   0  0  0  0  0  0  0  0  0  0  0  0
    4.2990   -3.8244    0.2666 H   0  0  0  0  0  0  0  0  0  0  0  0
    4.9500   -3.0059    1.7069 H   0  0  0  0  0  0  0  0  0  0  0  0
   -0.7859    0.4887    2.0035 H   0  0  0  0  0  0  0  0  0  0  0  0
   -2.5468    0.8728   -1.8521 H   0  0  0  0  0  0  0  0  0  0  0  0
   -4.1457   -3.1168   -0.1186 H   0  0  0  0  0  0  0  0  0  0  0  0
   -5.2147   -3.6493    2.4575 H   0  0  0  0  0  0  0  0  0  0  0  0
   -4.1153   -2.8834    3.6293 H   0  0  0  0  0  0  0  0  0  0  0  0
   -5.6001   -2.0434    3.1214 H   0  0  0  0  0  0  0  0  0  0  0  0
   -6.4617   -2.5073   -0.6457 H   0  0  0  0  0  0  0  0  0  0  0  0
   -6.3834   -3.1314    1.0194 H   0  0  0  0  0  0  0  0  0  0  0  0
   -7.5979   -1.0783    0.8946 H   0  0  0  0  0  0  0  0  0  0  0  0
   -4.2790    2.1971   -0.2226 H   0  0  0  0  0  0  0  0  0  0  0  0
   -3.6476    4.9294   -0.2330 H   0  0  0  0  0  0  0  0  0  0  0  0
   -1.7088    6.4231    0.0653 H   0  0  0  0  0  0  0  0  0  0  0  0
    0.5466    5.5355    0.2777 H   0  0  0  0  0  0  0  0  0  0  0  0
    0.9639    3.0976    0.3142 H   0  0  0  0  0  0  0  0  0  0  0  0
   -2.9746    1.0037    2.6937 H   0  0  0  0  0  0  0  0  0  0  0  0
   -2.4350   -1.5810   -1.7939 H   0  0  0  0  0  0  0  0  0  0  0  0
   -2.9824   -1.9739   -4.1658 H   0  0  0  0  0  0  0  0  0  0  0  0
   -1.6060   -1.0464   -5.9384 H   0  0  0  0  0  0  0  0  0  0  0  0
    0.3908    0.3584   -5.4092 H   0  0  0  0  0  0  0  0  0  0  0  0
    1.7402    1.4278   -3.2755 H   0  0  0  0  0  0  0  0  0  0  0  0
  1  2  1  0  0  0  0
  2  3  1  0  0  0  0
  2  4  1  0  0  0  0
  4  5  1  0  0  0  0
  5  6  2  0  0  0  0
  5  7  1  0  0  0  0
  7  8  1  0  0  0  0
  8  9  1  0  0  0  0
  9 10  1  0  0  0  0
 10 11  1  0  0  0  0
  7 11  1  0  0  0  0
 11 12  1  0  0  0  0
 12 13  2  0  0  0  0
 12 14  1  0  0  0  0
  4 14  1  0  0  0  0
 14 15  1  0  0  0  0
 11 16  1  0  0  0  0
 16 17  1  0  0  0  0
 17 18  1  0  0  0  0
 18 19  1  0  0  0  0
  4 19  1  0  0  0  0
 10 20  1  0  0  0  0
 20 21  1  0  0  0  0
 21 22  1  0  0  0  0
 22 23  1  0  0  0  0
  9 23  1  0  0  0  0
 23 24  1  0  0  0  0
 24 25  1  0  0  0  0
 21 25  1  0  0  0  0
 25 26  1  0  0  0  0
 26 27  2  0  0  0  0
 26 28  1  0  0  0  0
 28 29  1  0  0  0  0
 29 30  1  0  0  0  0
 21 30  1  0  0  0  0
 30 31  2  0  0  0  0
 29 32  1  0  0  0  0
 28 33  1  0  0  0  0
 33 34  1  0  0  0  0
 24 35  1  0  0  0  0
 35 36  1  0  0  0  0
 36 37  2  0  0  0  0
 37 38  1  0  0  0  0
 38 39  2  0  0  0  0
 39 40  1  0  0  0  0
 40 41  2  0  0  0  0
 23 41  1  0  0  0  0
 36 41  1  0  0  0  0
 22 42  1  0  0  0  0
  9 43  1  0  0  0  0
 43 44  2  0  0  0  0
 44 45  1  0  0  0  0
 45 46  2  0  0  0  0
 46 47  1  0  0  0  0
 47 48  2  0  0  0  0
 43 48  1  0  0  0  0
 48 49  1  0  0  0  0
  8 49  1  0  0  0  0
  1 50  1  0  0  0  0
  1 51  1  0  0  0  0
  1 52  1  0  0  0  0
  2 53  1  0  0  0  0
  3 54  1  0  0  0  0
  3 55  1  0  0  0  0
  3 56  1  0  0  0  0
  8 57  1  0  0  0  0
 10 58  1  0  0  0  0
 15 59  1  0  0  0  0
 15 60  1  0  0  0  0
 15 61  1  0  0  0  0
 22 62  1  0  0  0  0
 24 63  1  0  0  0  0
 28 64  1  0  0  0  0
 32 65  1  0  0  0  0
 32 66  1  0  0  0  0
 32 67  1  0  0  0  0
 33 68  1  0  0  0  0
 33 69  1  0  0  0  0
 34 70  1  0  0  0  0
 35 71  1  0  0  0  0
 37 72  1  0  0  0  0
 38 73  1  0  0  0  0
 39 74  1  0  0  0  0
 40 75  1  0  0  0  0
 42 76  1  0  0  0  0
 44 77  1  0  0  0  0
 45 78  1  0  0  0  0
 46 79  1  0  0  0  0
 47 80  1  0  0  0  0
 49 81  1  0  0  0  0
M  END
$$$$
