C11H11NO3
APtclcactv06211806413D 0   0.00000     0.00000
 
 26 27  0  0  0  0  0  0  0  0999 V2000
   -1.1351    2.9984   -0.0067 C   0  0  0  0  0  0  0  0  0  0  0  0
   -0.9957    1.5401   -0.0037 N   0  0  0  0  0  0  0  0  0  0  0  0
    0.2666    0.9788    0.0029 C   0  0  0  0  0  0  0  0  0  0  0  0
    0.4039   -0.4202    0.0058 C   0  0  0  0  0  0  0  0  0  0  0  0
    1.6764   -0.9968    0.0129 C   0  0  0  0  0  0  0  0  0  0  0  0
    2.7929   -0.1841    0.0171 C   0  0  0  0  0  0  0  0  0  0  0  0
    2.6533    1.2012    0.0146 C   0  0  0  0  0  0  0  0  0  0  0  0
    1.4034    1.7802    0.0072 C   0  0  0  0  0  0  0  0  0  0  0  0
    4.0341   -0.7393    0.0240 O   0  0  0  0  0  0  0  0  0  0  0  0
   -0.8069   -1.2525    0.0018 C   0  0  0  0  0  0  0  0  0  0  0  0
   -2.0227   -0.6301   -0.0047 C   0  0  0  0  0  0  0  0  0  0  0  0
   -2.0980    0.7713   -0.0018 C   0  0  0  0  0  0  0  0  0  0  0  0
   -3.1941    1.3063   -0.0077 O   0  0  0  0  0  0  0  0  0  0  0  0
   -0.7195   -2.6028    0.0039 O   0  0  0  0  0  0  0  0  0  0  0  0
   -1.9483   -3.3323   -0.0003 C   0  0  0  0  0  0  0  0  0  0  0  0
   -1.1651    3.3584   -1.0351 H   0  0  0  0  0  0  0  0  0  0  0  0
   -2.0579    3.2762    0.5025 H   0  0  0  0  0  0  0  0  0  0  0  0
   -0.2861    3.4457    0.5102 H   0  0  0  0  0  0  0  0  0  0  0  0
    1.7862   -2.0712    0.0155 H   0  0  0  0  0  0  0  0  0  0  0  0
    3.5330    1.8277    0.0186 H   0  0  0  0  0  0  0  0  0  0  0  0
    1.3062    2.8558    0.0054 H   0  0  0  0  0  0  0  0  0  0  0  0
    4.3974   -0.9013   -0.8574 H   0  0  0  0  0  0  0  0  0  0  0  0
   -2.9286   -1.2181   -0.0081 H   0  0  0  0  0  0  0  0  0  0  0  0
   -2.5268   -3.0748    0.8869 H   0  0  0  0  0  0  0  0  0  0  0  0
   -2.5192   -3.0772   -0.8931 H   0  0  0  0  0  0  0  0  0  0  0  0
   -1.7360   -4.4015    0.0020 H   0  0  0  0  0  0  0  0  0  0  0  0
  1  2  1  0  0  0  0
  2  3  1  0  0  0  0
  3  4  2  0  0  0  0
  4  5  1  0  0  0  0
  5  6  2  0  0  0  0
  6  7  1  0  0  0  0
  7  8  2  0  0  0  0
  3  8  1  0  0  0  0
  6  9  1  0  0  0  0
  4 10  1  0  0  0  0
 10 11  2  0  0  0  0
 11 12  1  0  0  0  0
  2 12  1  0  0  0  0
 12 13  2  0  0  0  0
 10 14  1  0  0  0  0
 14 15  1  0  0  0  0
  1 16  1  0  0  0  0
  1 17  1  0  0  0  0
  1 18  1  0  0  0  0
  5 19  1  0  0  0  0
  7 20  1  0  0  0  0
  8 21  1  0  0  0  0
  9 22  1  0  0  0  0
 11 23  1  0  0  0  0
 15 24  1  0  0  0  0
 15 25  1  0  0  0  0
 15 26  1  0  0  0  0
M  END
$$$$
