C12H16O2
APtclcactv06211806413D 0   0.00000     0.00000
 
 30 32  0  0  0  0  0  0  0  0999 V2000
    3.9698    0.1426   -0.0793 C   0  0  0  0  0  0  0  0  0  0  0  0
    2.6407    0.8039    0.2907 C   0  0  0  0  0  0  0  0  0  0  0  0
    1.4837   -0.0959   -0.1482 C   0  0  0  0  0  0  0  0  0  0  0  0
    0.6509   -0.7601    0.9511 C   0  0  0  0  0  0  0  0  0  0  0  0
    0.0624    0.4041    0.1174 C   0  0  0  0  0  0  0  0  0  0  0  0
   -0.1406    1.7556    0.7831 C   0  0  0  0  0  0  0  0  0  0  0  0
   -1.1727    2.6142    0.0801 C   0  0  0  0  0  0  0  0  0  0  0  0
   -2.3790    1.8274   -0.3196 C   0  0  0  0  0  0  0  0  0  0  0  0
   -2.3439    0.5691   -0.6152 C   0  0  0  0  0  0  0  0  0  0  0  0
   -1.1076   -0.2589   -0.6149 C   0  0  0  0  0  0  0  0  0  0  0  0
   -1.3211   -1.5682    0.1137 C   0  0  0  0  0  0  0  0  0  0  0  0
   -2.3654   -2.1652    0.2266 O   0  0  0  0  0  0  0  0  0  0  0  0
   -0.1287   -1.9425    0.6121 O   0  0  0  0  0  0  0  0  0  0  0  0
    1.7201   -0.8937   -1.4322 C   0  0  0  0  0  0  0  0  0  0  0  0
    4.7941    0.7836    0.2334 H   0  0  0  0  0  0  0  0  0  0  0  0
    4.0484   -0.8214    0.4234 H   0  0  0  0  0  0  0  0  0  0  0  0
    4.0139   -0.0056   -1.1583 H   0  0  0  0  0  0  0  0  0  0  0  0
    2.5966    0.9521    1.3697 H   0  0  0  0  0  0  0  0  0  0  0  0
    2.5621    1.7679   -0.2119 H   0  0  0  0  0  0  0  0  0  0  0  0
    0.9374   -0.6226    1.9938 H   0  0  0  0  0  0  0  0  0  0  0  0
   -0.4605    1.5950    1.8126 H   0  0  0  0  0  0  0  0  0  0  0  0
    0.8105    2.2880    0.7929 H   0  0  0  0  0  0  0  0  0  0  0  0
   -1.4798    3.4180    0.7492 H   0  0  0  0  0  0  0  0  0  0  0  0
   -0.7227    3.0503   -0.8117 H   0  0  0  0  0  0  0  0  0  0  0  0
   -3.3303    2.3367   -0.3635 H   0  0  0  0  0  0  0  0  0  0  0  0
   -3.2734    0.0872   -0.8803 H   0  0  0  0  0  0  0  0  0  0  0  0
   -0.8156   -0.4720   -1.6433 H   0  0  0  0  0  0  0  0  0  0  0  0
    2.7704   -1.1785   -1.4948 H   0  0  0  0  0  0  0  0  0  0  0  0
    1.1005   -1.7903   -1.4221 H   0  0  0  0  0  0  0  0  0  0  0  0
    1.4580   -0.2805   -2.2944 H   0  0  0  0  0  0  0  0  0  0  0  0
  1  2  1  0  0  0  0
  2  3  1  0  0  0  0
  3  4  1  0  0  0  0
  4  5  1  0  0  0  0
  3  5  1  0  0  0  0
  5  6  1  0  0  0  0
  6  7  1  0  0  0  0
  7  8  1  0  0  0  0
  8  9  2  0  0  0  0
  9 10  1  0  0  0  0
  5 10  1  0  0  0  0
 10 11  1  0  0  0  0
 11 12  2  0  0  0  0
 11 13  1  0  0  0  0
  4 13  1  0  0  0  0
  3 14  1  0  0  0  0
  1 15  1  0  0  0  0
  1 16  1  0  0  0  0
  1 17  1  0  0  0  0
  2 18  1  0  0  0  0
  2 19  1  0  0  0  0
  4 20  1  0  0  0  0
  6 21  1  0  0  0  0
  6 22  1  0  0  0  0
  7 23  1  0  0  0  0
  7 24  1  0  0  0  0
  8 25  1  0  0  0  0
  9 26  1  0  0  0  0
 10 27  1  0  0  0  0
 14 28  1  0  0  0  0
 14 29  1  0  0  0  0
 14 30  1  0  0  0  0
M  END
$$$$
