C10H16O
APtclcactv06291802413D 0   0.00000     0.00000
 
 27 27  0  0  0  0  0  0  0  0999 V2000
    3.3079   -0.6353   -0.0286 C   0  0  0  0  0  0  0  0  0  0  0  0
    1.8104   -0.4667   -0.0217 C   0  0  0  0  0  0  0  0  0  0  0  0
    1.3313    0.7438   -0.0149 C   0  0  0  0  0  0  0  0  0  0  0  0
   -0.1344    1.0656    0.0017 C   0  0  0  0  0  0  0  0  0  0  0  0
   -0.9481   -0.1617   -0.4143 C   0  0  0  0  0  0  0  0  0  0  0  0
   -0.4668   -1.3647    0.4066 C   0  0  0  0  0  0  0  0  0  0  0  0
    0.9618   -1.7045   -0.0293 C   0  0  0  0  0  0  0  0  0  0  0  0
   -2.4100    0.0841   -0.1431 C   0  0  0  0  0  0  0  0  0  0  0  0
   -3.2736    0.0498   -1.1276 C   0  0  0  0  0  0  0  0  0  0  0  0
   -2.8784    0.3695    1.2605 C   0  0  0  0  0  0  0  0  0  0  0  0
    2.2105    1.7770   -0.0230 O   0  0  0  0  0  0  0  0  0  0  0  0
    3.7382   -0.0949    0.8146 H   0  0  0  0  0  0  0  0  0  0  0  0
    3.5548   -1.6937    0.0540 H   0  0  0  0  0  0  0  0  0  0  0  0
    3.7139   -0.2390   -0.9593 H   0  0  0  0  0  0  0  0  0  0  0  0
   -0.4264    1.3688    1.0071 H   0  0  0  0  0  0  0  0  0  0  0  0
   -0.3329    1.8827   -0.6919 H   0  0  0  0  0  0  0  0  0  0  0  0
   -0.7974   -0.3586   -1.4757 H   0  0  0  0  0  0  0  0  0  0  0  0
   -0.4800   -1.1134    1.4671 H   0  0  0  0  0  0  0  0  0  0  0  0
   -1.1182   -2.2188    0.2214 H   0  0  0  0  0  0  0  0  0  0  0  0
    0.9419   -2.1298   -1.0327 H   0  0  0  0  0  0  0  0  0  0  0  0
    1.3866   -2.4330    0.6613 H   0  0  0  0  0  0  0  0  0  0  0  0
   -4.3213    0.2260   -0.9332 H   0  0  0  0  0  0  0  0  0  0  0  0
   -2.9379   -0.1547   -2.1335 H   0  0  0  0  0  0  0  0  0  0  0  0
   -2.0247    0.3570    1.9381 H   0  0  0  0  0  0  0  0  0  0  0  0
   -3.3536    1.3499    1.2927 H   0  0  0  0  0  0  0  0  0  0  0  0
   -3.5959   -0.3921    1.5660 H   0  0  0  0  0  0  0  0  0  0  0  0
    3.1345    1.5066   -0.1135 H   0  0  0  0  0  0  0  0  0  0  0  0
  1  2  1  0  0  0  0
  2  3  2  0  0  0  0
  3  4  1  0  0  0  0
  4  5  1  0  0  0  0
  5  6  1  0  0  0  0
  6  7  1  0  0  0  0
  2  7  1  0  0  0  0
  5  8  1  0  0  0  0
  8  9  2  0  0  0  0
  8 10  1  0  0  0  0
  3 11  1  0  0  0  0
  1 12  1  0  0  0  0
  1 13  1  0  0  0  0
  1 14  1  0  0  0  0
  4 15  1  0  0  0  0
  4 16  1  0  0  0  0
  5 17  1  0  0  0  0
  6 18  1  0  0  0  0
  6 19  1  0  0  0  0
  7 20  1  0  0  0  0
  7 21  1  0  0  0  0
  9 22  1  0  0  0  0
  9 23  1  0  0  0  0
 10 24  1  0  0  0  0
 10 25  1  0  0  0  0
 10 26  1  0  0  0  0
 11 27  1  0  0  0  0
M  END
$$$$
