C40H56O2
APtclcactv06291802413D 0   0.00000     0.00000
 
 98100  0  0  0  0  0  0  0  0999 V2000
  -11.1819    2.3173    0.4058 C   0  0  0  0  0  0  0  0  0  0  0  0
  -12.2871    1.4117   -0.0731 C   0  0  0  0  0  0  0  0  0  0  0  0
  -12.0916    0.1050   -0.0165 C   0  0  0  0  0  0  0  0  0  0  0  0
  -13.1026   -0.9086   -0.4677 C   0  0  0  0  0  0  0  0  0  0  0  0
  -14.4838   -0.2602   -0.5814 C   0  0  0  0  0  0  0  0  0  0  0  0
  -14.3513    1.0282   -1.4024 C   0  0  0  0  0  0  0  0  0  0  0  0
  -13.5501    2.0436   -0.5818 C   0  0  0  0  0  0  0  0  0  0  0  0
  -12.6895   -1.4646   -1.8320 C   0  0  0  0  0  0  0  0  0  0  0  0
  -13.1612   -2.0527    0.5464 C   0  0  0  0  0  0  0  0  0  0  0  0
  -10.8574   -0.3649    0.4989 C   0  0  0  0  0  0  0  0  0  0  0  0
   -9.6888    0.0269   -0.0732 C   0  0  0  0  0  0  0  0  0  0  0  0
   -8.4631   -0.3324    0.5145 C   0  0  0  0  0  0  0  0  0  0  0  0
   -7.2896    0.0610   -0.0601 C   0  0  0  0  0  0  0  0  0  0  0  0
   -6.0672   -0.2973    0.5261 C   0  0  0  0  0  0  0  0  0  0  0  0
   -4.8836    0.0996   -0.0534 C   0  0  0  0  0  0  0  0  0  0  0  0
   -3.6625   -0.2583    0.5321 C   0  0  0  0  0  0  0  0  0  0  0  0
   -2.4783    0.1387   -0.0477 C   0  0  0  0  0  0  0  0  0  0  0  0
   -1.2572   -0.2192    0.5379 C   0  0  0  0  0  0  0  0  0  0  0  0
   -0.0736    0.1776   -0.0417 C   0  0  0  0  0  0  0  0  0  0  0  0
    1.1488   -0.1807    0.5445 C   0  0  0  0  0  0  0  0  0  0  0  0
    2.3223    0.2128   -0.0301 C   0  0  0  0  0  0  0  0  0  0  0  0
    2.3045    1.0323   -1.2947 C   0  0  0  0  0  0  0  0  0  0  0  0
    3.5480   -0.1465    0.5576 C   0  0  0  0  0  0  0  0  0  0  0  0
    4.7166    0.2453   -0.0145 C   0  0  0  0  0  0  0  0  0  0  0  0
    5.9525   -0.1170    0.5781 C   0  0  0  0  0  0  0  0  0  0  0  0
    7.1018    0.2684    0.0154 C   0  0  0  0  0  0  0  0  0  0  0  0
    7.0841    1.0879   -1.2492 C   0  0  0  0  0  0  0  0  0  0  0  0
    8.4156   -0.1167    0.6453 C   0  0  0  0  0  0  0  0  0  0  0  0
    9.1864   -1.0434   -0.2740 C   0  0  0  0  0  0  0  0  0  0  0  0
   10.4259   -0.6678   -0.2741 C   0  0  0  0  0  0  0  0  0  0  0  0
   11.6196   -1.1956   -1.0369 C   0  0  0  0  0  0  0  0  0  0  0  0
   12.8620   -0.6315   -0.3359 C   0  0  0  0  0  0  0  0  0  0  0  0
   12.8646    0.8874   -0.3093 C   0  0  0  0  0  0  0  0  0  0  0  0
   11.4940    1.5104   -0.0777 C   0  0  0  0  0  0  0  0  0  0  0  0
   10.5800    0.5295    0.6586 C   0  0  0  0  0  0  0  0  0  0  0  0
    9.2525    1.0495    0.8083 O   0  0  0  0  0  0  0  0  0  0  0  0
   11.1830    0.1141    2.0020 C   0  0  0  0  0  0  0  0  0  0  0  0
   13.7429    1.3221    0.7307 O   0  0  0  0  0  0  0  0  0  0  0  0
   11.6388   -2.7247   -0.9901 C   0  0  0  0  0  0  0  0  0  0  0  0
   11.5708   -0.7133   -2.4881 C   0  0  0  0  0  0  0  0  0  0  0  0
   -3.6447   -1.0779    1.7966 C   0  0  0  0  0  0  0  0  0  0  0  0
   -8.4453   -1.1520    1.7791 C   0  0  0  0  0  0  0  0  0  0  0  0
  -10.4683    2.4784   -0.4023 H   0  0  0  0  0  0  0  0  0  0  0  0
  -11.6038    3.2739    0.7139 H   0  0  0  0  0  0  0  0  0  0  0  0
  -10.6741    1.8547    1.2520 H   0  0  0  0  0  0  0  0  0  0  0  0
  -15.1693   -0.9443   -1.0816 H   0  0  0  0  0  0  0  0  0  0  0  0
  -14.8600   -0.0232    0.4138 H   0  0  0  0  0  0  0  0  0  0  0  0
  -13.8318    0.8152   -2.3366 H   0  0  0  0  0  0  0  0  0  0  0  0
  -15.3418    1.4306   -1.6145 H   0  0  0  0  0  0  0  0  0  0  0  0
  -14.1540    2.3861    0.2585 H   0  0  0  0  0  0  0  0  0  0  0  0
  -13.2942    2.8957   -1.2115 H   0  0  0  0  0  0  0  0  0  0  0  0
  -11.7108   -1.9375   -1.7504 H   0  0  0  0  0  0  0  0  0  0  0  0
  -13.4225   -2.2009   -2.1614 H   0  0  0  0  0  0  0  0  0  0  0  0
  -12.6408   -0.6513   -2.5561 H   0  0  0  0  0  0  0  0  0  0  0  0
  -13.5227   -1.6729    1.5021 H   0  0  0  0  0  0  0  0  0  0  0  0
  -13.8383   -2.8259    0.1832 H   0  0  0  0  0  0  0  0  0  0  0  0
  -12.1646   -2.4743    0.6766 H   0  0  0  0  0  0  0  0  0  0  0  0
  -10.8459   -1.0343    1.3464 H   0  0  0  0  0  0  0  0  0  0  0  0
   -9.7016    0.6142   -0.9795 H   0  0  0  0  0  0  0  0  0  0  0  0
   -7.3023    0.6484   -0.9663 H   0  0  0  0  0  0  0  0  0  0  0  0
   -6.0545   -0.8846    1.4323 H   0  0  0  0  0  0  0  0  0  0  0  0
   -4.8963    0.6869   -0.9597 H   0  0  0  0  0  0  0  0  0  0  0  0
   -2.4911    0.7260   -0.9539 H   0  0  0  0  0  0  0  0  0  0  0  0
   -1.2445   -0.8066    1.4441 H   0  0  0  0  0  0  0  0  0  0  0  0
   -0.0863    0.7649   -0.9479 H   0  0  0  0  0  0  0  0  0  0  0  0
    1.1615   -0.7681    1.4507 H   0  0  0  0  0  0  0  0  0  0  0  0
    2.2849    2.0921   -1.0405 H   0  0  0  0  0  0  0  0  0  0  0  0
    3.1977    0.8157   -1.8806 H   0  0  0  0  0  0  0  0  0  0  0  0
    1.4181    0.7820   -1.8775 H   0  0  0  0  0  0  0  0  0  0  0  0
    3.5608   -0.7339    1.4639 H   0  0  0  0  0  0  0  0  0  0  0  0
    4.7039    0.8326   -0.9208 H   0  0  0  0  0  0  0  0  0  0  0  0
    5.9652   -0.7043    1.4843 H   0  0  0  0  0  0  0  0  0  0  0  0
    7.0644    2.1477   -0.9950 H   0  0  0  0  0  0  0  0  0  0  0  0
    7.9773    0.8713   -1.8351 H   0  0  0  0  0  0  0  0  0  0  0  0
    6.1976    0.8376   -1.8320 H   0  0  0  0  0  0  0  0  0  0  0  0
    8.2448   -0.5975    1.6085 H   0  0  0  0  0  0  0  0  0  0  0  0
    8.7743   -1.8720   -0.8308 H   0  0  0  0  0  0  0  0  0  0  0  0
   12.8899   -1.0035    0.6883 H   0  0  0  0  0  0  0  0  0  0  0  0
   13.7524   -0.9778   -0.8608 H   0  0  0  0  0  0  0  0  0  0  0  0
   13.2537    1.2499   -1.2608 H   0  0  0  0  0  0  0  0  0  0  0  0
   11.6057    2.4161    0.5185 H   0  0  0  0  0  0  0  0  0  0  0  0
   11.0477    1.7674   -1.0383 H   0  0  0  0  0  0  0  0  0  0  0  0
   11.1954    0.9712    2.6753 H   0  0  0  0  0  0  0  0  0  0  0  0
   10.5815   -0.6828    2.4394 H   0  0  0  0  0  0  0  0  0  0  0  0
   12.2016   -0.2421    1.8485 H   0  0  0  0  0  0  0  0  0  0  0  0
   13.8041    2.2832    0.8177 H   0  0  0  0  0  0  0  0  0  0  0  0
   10.7256   -3.1135   -1.4409 H   0  0  0  0  0  0  0  0  0  0  0  0
   12.5026   -3.0944   -1.5426 H   0  0  0  0  0  0  0  0  0  0  0  0
   11.7017   -3.0558    0.0465 H   0  0  0  0  0  0  0  0  0  0  0  0
   11.5858    0.3764   -2.5095 H   0  0  0  0  0  0  0  0  0  0  0  0
   12.4352   -1.0992   -3.0285 H   0  0  0  0  0  0  0  0  0  0  0  0
   10.6567   -1.0735   -2.9601 H   0  0  0  0  0  0  0  0  0  0  0  0
   -3.6251   -2.1377    1.5425 H   0  0  0  0  0  0  0  0  0  0  0  0
   -2.7583   -0.8276    2.3794 H   0  0  0  0  0  0  0  0  0  0  0  0
   -4.5379   -0.8613    2.3826 H   0  0  0  0  0  0  0  0  0  0  0  0
   -8.4257   -2.2118    1.5249 H   0  0  0  0  0  0  0  0  0  0  0  0
   -7.5589   -0.9017    2.3619 H   0  0  0  0  0  0  0  0  0  0  0  0
   -9.3385   -0.9354    2.3650 H   0  0  0  0  0  0  0  0  0  0  0  0
  1  2  1  0  0  0  0
  2  3  2  0  0  0  0
  3  4  1  0  0  0  0
  4  5  1  0  0  0  0
  5  6  1  0  0  0  0
  6  7  1  0  0  0  0
  2  7  1  0  0  0  0
  4  8  1  0  0  0  0
  4  9  1  0  0  0  0
  3 10  1  0  0  0  0
 10 11  2  0  0  0  0
 11 12  1  0  0  0  0
 12 13  2  0  0  0  0
 13 14  1  0  0  0  0
 14 15  2  0  0  0  0
 15 16  1  0  0  0  0
 16 17  2  0  0  0  0
 17 18  1  0  0  0  0
 18 19  2  0  0  0  0
 19 20  1  0  0  0  0
 20 21  2  0  0  0  0
 21 22  1  0  0  0  0
 21 23  1  0  0  0  0
 23 24  2  0  0  0  0
 24 25  1  0  0  0  0
 25 26  2  0  0  0  0
 26 27  1  0  0  0  0
 26 28  1  0  0  0  0
 28 29  1  0  0  0  0
 29 30  2  0  0  0  0
 30 31  1  0  0  0  0
 31 32  1  0  0  0  0
 32 33  1  0  0  0  0
 33 34  1  0  0  0  0
 34 35  1  0  0  0  0
 30 35  1  0  0  0  0
 35 36  1  0  0  0  0
 28 36  1  0  0  0  0
 35 37  1  0  0  0  0
 33 38  1  0  0  0  0
 31 39  1  0  0  0  0
 31 40  1  0  0  0  0
 16 41  1  0  0  0  0
 12 42  1  0  0  0  0
  1 43  1  0  0  0  0
  1 44  1  0  0  0  0
  1 45  1  0  0  0  0
  5 46  1  0  0  0  0
  5 47  1  0  0  0  0
  6 48  1  0  0  0  0
  6 49  1  0  0  0  0
  7 50  1  0  0  0  0
  7 51  1  0  0  0  0
  8 52  1  0  0  0  0
  8 53  1  0  0  0  0
  8 54  1  0  0  0  0
  9 55  1  0  0  0  0
  9 56  1  0  0  0  0
  9 57  1  0  0  0  0
 10 58  1  0  0  0  0
 11 59  1  0  0  0  0
 13 60  1  0  0  0  0
 14 61  1  0  0  0  0
 15 62  1  0  0  0  0
 17 63  1  0  0  0  0
 18 64  1  0  0  0  0
 19 65  1  0  0  0  0
 20 66  1  0  0  0  0
 22 67  1  0  0  0  0
 22 68  1  0  0  0  0
 22 69  1  0  0  0  0
 23 70  1  0  0  0  0
 24 71  1  0  0  0  0
 25 72  1  0  0  0  0
 27 73  1  0  0  0  0
 27 74  1  0  0  0  0
 27 75  1  0  0  0  0
 28 76  1  0  0  0  0
 29 77  1  0  0  0  0
 32 78  1  0  0  0  0
 32 79  1  0  0  0  0
 33 80  1  0  0  0  0
 34 81  1  0  0  0  0
 34 82  1  0  0  0  0
 37 83  1  0  0  0  0
 37 84  1  0  0  0  0
 37 85  1  0  0  0  0
 38 86  1  0  0  0  0
 39 87  1  0  0  0  0
 39 88  1  0  0  0  0
 39 89  1  0  0  0  0
 40 90  1  0  0  0  0
 40 91  1  0  0  0  0
 40 92  1  0  0  0  0
 41 93  1  0  0  0  0
 41 94  1  0  0  0  0
 41 95  1  0  0  0  0
 42 96  1  0  0  0  0
 42 97  1  0  0  0  0
 42 98  1  0  0  0  0
M  END
$$$$
