C30H48O4
APtclcactv06211806413D 0   0.00000     0.00000
 
 82 86  0  0  0  0  0  0  0  0999 V2000
    2.8412    0.7813    2.0348 C   0  0  0  0  0  0  0  0  0  0  0  0
    3.1979    1.4164    0.6909 C   0  0  0  0  0  0  0  0  0  0  0  0
    4.6804    1.7963    0.6861 C   0  0  0  0  0  0  0  0  0  0  0  0
    5.5497    0.5556    0.8651 C   0  0  0  0  0  0  0  0  0  0  0  0
    5.2635   -0.4965   -0.2025 C   0  0  0  0  0  0  0  0  0  0  0  0
    3.7724   -0.8308   -0.2610 C   0  0  0  0  0  0  0  0  0  0  0  0
    2.9458    0.4313   -0.4531 C   0  0  0  0  0  0  0  0  0  0  0  0
    1.4591    0.1173   -0.4690 C   0  0  0  0  0  0  0  0  0  0  0  0
    1.0706   -1.1182   -0.3720 C   0  0  0  0  0  0  0  0  0  0  0  0
   -0.3896   -1.5028   -0.3414 C   0  0  0  0  0  0  0  0  0  0  0  0
   -1.1527   -0.3117    0.2347 C   0  0  0  0  0  0  0  0  0  0  0  0
   -2.6065   -0.6490    0.5455 C   0  0  0  0  0  0  0  0  0  0  0  0
   -2.9066   -2.0969    0.1450 C   0  0  0  0  0  0  0  0  0  0  0  0
   -4.3576   -2.4346    0.4865 C   0  0  0  0  0  0  0  0  0  0  0  0
   -5.3121   -1.5229   -0.2722 C   0  0  0  0  0  0  0  0  0  0  0  0
   -5.0355   -0.0429   -0.0025 C   0  0  0  0  0  0  0  0  0  0  0  0
   -3.5602    0.2831   -0.1786 C   0  0  0  0  0  0  0  0  0  0  0  0
   -3.2418    1.7360    0.1269 C   0  0  0  0  0  0  0  0  0  0  0  0
   -1.7805    2.0860   -0.1371 C   0  0  0  0  0  0  0  0  0  0  0  0
   -0.9424    0.9150   -0.6264 C   0  0  0  0  0  0  0  0  0  0  0  0
    0.5412    1.2985   -0.6114 C   0  0  0  0  0  0  0  0  0  0  0  0
    0.8527    2.3379    0.4540 C   0  0  0  0  0  0  0  0  0  0  0  0
    2.3437    2.6674    0.4929 C   0  0  0  0  0  0  0  0  0  0  0  0
    0.8149    1.9289   -1.9820 C   0  0  0  0  0  0  0  0  0  0  0  0
   -1.2473    0.6383   -2.1030 C   0  0  0  0  0  0  0  0  0  0  0  0
   -5.8222    0.7459   -1.0801 C   0  0  0  0  0  0  0  0  0  0  0  0
   -5.6006    0.3669    1.3514 C   0  0  0  0  0  0  0  0  0  0  0  0
   -7.0260    0.2704    1.3216 O   0  0  0  0  0  0  0  0  0  0  0  0
   -5.2007   -1.7740   -1.6775 O   0  0  0  0  0  0  0  0  0  0  0  0
   -2.7507   -0.5309    2.0741 C   0  0  0  0  0  0  0  0  0  0  0  0
    5.7469   -0.0058   -1.5679 C   0  0  0  0  0  0  0  0  0  0  0  0
    6.0243   -1.7578    0.1492 C   0  0  0  0  0  0  0  0  0  0  0  0
    5.4263   -2.7897    0.3431 O   0  0  0  0  0  0  0  0  0  0  0  0
    7.3628   -1.7295    0.2457 O   0  0  0  0  0  0  0  0  0  0  0  0
    3.0372    1.4933    2.8366 H   0  0  0  0  0  0  0  0  0  0  0  0
    1.7855    0.5101    2.0398 H   0  0  0  0  0  0  0  0  0  0  0  0
    3.4466   -0.1123    2.1865 H   0  0  0  0  0  0  0  0  0  0  0  0
    4.9214    2.2960   -0.2528 H   0  0  0  0  0  0  0  0  0  0  0  0
    4.8691    2.4940    1.5083 H   0  0  0  0  0  0  0  0  0  0  0  0
    6.6047    0.8537    0.7816 H   0  0  0  0  0  0  0  0  0  0  0  0
    5.4086    0.1258    1.8553 H   0  0  0  0  0  0  0  0  0  0  0  0
    3.5998   -1.5031   -1.1127 H   0  0  0  0  0  0  0  0  0  0  0  0
    3.4777   -1.3583    0.6451 H   0  0  0  0  0  0  0  0  0  0  0  0
    3.2193    0.9059   -1.4022 H   0  0  0  0  0  0  0  0  0  0  0  0
    1.8030   -1.9082   -0.3110 H   0  0  0  0  0  0  0  0  0  0  0  0
   -0.7308   -1.7731   -1.3306 H   0  0  0  0  0  0  0  0  0  0  0  0
   -0.4971   -2.3659    0.3258 H   0  0  0  0  0  0  0  0  0  0  0  0
   -0.6748   -0.0882    1.2232 H   0  0  0  0  0  0  0  0  0  0  0  0
   -2.7457   -2.2194   -0.9253 H   0  0  0  0  0  0  0  0  0  0  0  0
   -2.2462   -2.7697    0.6936 H   0  0  0  0  0  0  0  0  0  0  0  0
   -4.5487   -3.4744    0.1807 H   0  0  0  0  0  0  0  0  0  0  0  0
   -4.5321   -2.3708    1.5563 H   0  0  0  0  0  0  0  0  0  0  0  0
   -6.3411   -1.7475    0.0359 H   0  0  0  0  0  0  0  0  0  0  0  0
   -3.4067    0.1294   -1.2721 H   0  0  0  0  0  0  0  0  0  0  0  0
   -3.8635    2.3964   -0.4905 H   0  0  0  0  0  0  0  0  0  0  0  0
   -3.4663    1.9675    1.1734 H   0  0  0  0  0  0  0  0  0  0  0  0
   -1.7433    2.8937   -0.8795 H   0  0  0  0  0  0  0  0  0  0  0  0
   -1.3520    2.4768    0.7946 H   0  0  0  0  0  0  0  0  0  0  0  0
    0.3021    3.2603    0.2245 H   0  0  0  0  0  0  0  0  0  0  0  0
    0.5175    1.9855    1.4299 H   0  0  0  0  0  0  0  0  0  0  0  0
    2.5329    3.3521    1.3297 H   0  0  0  0  0  0  0  0  0  0  0  0
    2.6456    3.1702   -0.4256 H   0  0  0  0  0  0  0  0  0  0  0  0
    0.0919    2.7232   -2.1675 H   0  0  0  0  0  0  0  0  0  0  0  0
    1.8226    2.3442   -1.9962 H   0  0  0  0  0  0  0  0  0  0  0  0
    0.7248    1.1674   -2.7567 H   0  0  0  0  0  0  0  0  0  0  0  0
   -1.1929    1.5700   -2.6661 H   0  0  0  0  0  0  0  0  0  0  0  0
   -0.5177   -0.0684   -2.4984 H   0  0  0  0  0  0  0  0  0  0  0  0
   -2.2482    0.2165   -2.1945 H   0  0  0  0  0  0  0  0  0  0  0  0
   -6.8852    0.5225   -0.9902 H   0  0  0  0  0  0  0  0  0  0  0  0
   -5.6622    1.8146   -0.9373 H   0  0  0  0  0  0  0  0  0  0  0  0
   -5.4723    0.4554   -2.0707 H   0  0  0  0  0  0  0  0  0  0  0  0
   -5.2078   -0.2939    2.1241 H   0  0  0  0  0  0  0  0  0  0  0  0
   -5.3105    1.3946    1.5702 H   0  0  0  0  0  0  0  0  0  0  0  0
   -7.4544    0.5170    2.1527 H   0  0  0  0  0  0  0  0  0  0  0  0
   -5.4122   -2.6824   -1.9328 H   0  0  0  0  0  0  0  0  0  0  0  0
   -2.6819    0.5171    2.3656 H   0  0  0  0  0  0  0  0  0  0  0  0
   -3.7178   -0.9303    2.3797 H   0  0  0  0  0  0  0  0  0  0  0  0
   -1.9547   -1.0960    2.5589 H   0  0  0  0  0  0  0  0  0  0  0  0
    6.8202    0.1802   -1.5280 H   0  0  0  0  0  0  0  0  0  0  0  0
    5.5375   -0.7647   -2.3218 H   0  0  0  0  0  0  0  0  0  0  0  0
    5.2276    0.9169   -1.8271 H   0  0  0  0  0  0  0  0  0  0  0  0
    7.8043   -2.5593    0.4726 H   0  0  0  0  0  0  0  0  0  0  0  0
  1  2  1  0  0  0  0
  2  3  1  0  0  0  0
  3  4  1  0  0  0  0
  4  5  1  0  0  0  0
  5  6  1  0  0  0  0
  6  7  1  0  0  0  0
  2  7  1  0  0  0  0
  7  8  1  0  0  0  0
  8  9  2  0  0  0  0
  9 10  1  0  0  0  0
 10 11  1  0  0  0  0
 11 12  1  0  0  0  0
 12 13  1  0  0  0  0
 13 14  1  0  0  0  0
 14 15  1  0  0  0  0
 15 16  1  0  0  0  0
 16 17  1  0  0  0  0
 12 17  1  0  0  0  0
 17 18  1  0  0  0  0
 18 19  1  0  0  0  0
 19 20  1  0  0  0  0
 11 20  1  0  0  0  0
 20 21  1  0  0  0  0
  8 21  1  0  0  0  0
 21 22  1  0  0  0  0
 22 23  1  0  0  0  0
  2 23  1  0  0  0  0
 21 24  1  0  0  0  0
 20 25  1  0  0  0  0
 16 26  1  0  0  0  0
 16 27  1  0  0  0  0
 27 28  1  0  0  0  0
 15 29  1  0  0  0  0
 12 30  1  0  0  0  0
  5 31  1  0  0  0  0
  5 32  1  0  0  0  0
 32 33  2  0  0  0  0
 32 34  1  0  0  0  0
  1 35  1  0  0  0  0
  1 36  1  0  0  0  0
  1 37  1  0  0  0  0
  3 38  1  0  0  0  0
  3 39  1  0  0  0  0
  4 40  1  0  0  0  0
  4 41  1  0  0  0  0
  6 42  1  0  0  0  0
  6 43  1  0  0  0  0
  7 44  1  0  0  0  0
  9 45  1  0  0  0  0
 10 46  1  0  0  0  0
 10 47  1  0  0  0  0
 11 48  1  0  0  0  0
 13 49  1  0  0  0  0
 13 50  1  0  0  0  0
 14 51  1  0  0  0  0
 14 52  1  0  0  0  0
 15 53  1  0  0  0  0
 17 54  1  0  0  0  0
 18 55  1  0  0  0  0
 18 56  1  0  0  0  0
 19 57  1  0  0  0  0
 19 58  1  0  0  0  0
 22 59  1  0  0  0  0
 22 60  1  0  0  0  0
 23 61  1  0  0  0  0
 23 62  1  0  0  0  0
 24 63  1  0  0  0  0
 24 64  1  0  0  0  0
 24 65  1  0  0  0  0
 25 66  1  0  0  0  0
 25 67  1  0  0  0  0
 25 68  1  0  0  0  0
 26 69  1  0  0  0  0
 26 70  1  0  0  0  0
 26 71  1  0  0  0  0
 27 72  1  0  0  0  0
 27 73  1  0  0  0  0
 28 74  1  0  0  0  0
 29 75  1  0  0  0  0
 30 76  1  0  0  0  0
 30 77  1  0  0  0  0
 30 78  1  0  0  0  0
 31 79  1  0  0  0  0
 31 80  1  0  0  0  0
 31 81  1  0  0  0  0
 34 82  1  0  0  0  0
M  END
$$$$
