C15H14O5
APtclcactv06211806413D 0   0.00000     0.00000
 
 34 36  0  0  0  0  0  0  0  0999 V2000
    0.0154    3.2869   -1.0137 C   0  0  0  0  0  0  0  0  0  0  0  0
    0.2443    2.5262    0.1741 O   0  0  0  0  0  0  0  0  0  0  0  0
    0.5546    1.2113    0.0151 C   0  0  0  0  0  0  0  0  0  0  0  0
    1.8783    0.8189   -0.1112 C   0  0  0  0  0  0  0  0  0  0  0  0
    2.1921   -0.5276   -0.2738 C   0  0  0  0  0  0  0  0  0  0  0  0
    1.1886   -1.4841   -0.3112 C   0  0  0  0  0  0  0  0  0  0  0  0
   -0.1449   -1.1037   -0.1855 C   0  0  0  0  0  0  0  0  0  0  0  0
   -0.4578    0.2512   -0.0157 C   0  0  0  0  0  0  0  0  0  0  0  0
   -1.9283    0.3130    0.0834 C   0  0  0  0  0  0  0  0  0  0  0  0
   -2.8417    1.3473    0.2557 C   0  0  0  0  0  0  0  0  0  0  0  0
   -4.1913    1.0660    0.3096 C   0  0  0  0  0  0  0  0  0  0  0  0
   -4.6342   -0.2414    0.1925 C   0  0  0  0  0  0  0  0  0  0  0  0
   -3.7363   -1.2749    0.0216 C   0  0  0  0  0  0  0  0  0  0  0  0
   -2.3735   -1.0112   -0.0355 C   0  0  0  0  0  0  0  0  0  0  0  0
   -1.2968   -1.8136   -0.1873 O   0  0  0  0  0  0  0  0  0  0  0  0
    1.5081   -2.7979   -0.4717 O   0  0  0  0  0  0  0  0  0  0  0  0
    1.7414   -3.5585    0.7154 C   0  0  0  0  0  0  0  0  0  0  0  0
    3.4927   -0.9079   -0.3974 O   0  0  0  0  0  0  0  0  0  0  0  0
    2.8711    1.7503   -0.0767 O   0  0  0  0  0  0  0  0  0  0  0  0
    3.4251    2.0607    1.2034 C   0  0  0  0  0  0  0  0  0  0  0  0
    0.9114    3.2704   -1.6341 H   0  0  0  0  0  0  0  0  0  0  0  0
   -0.8179    2.8542   -1.5674 H   0  0  0  0  0  0  0  0  0  0  0  0
   -0.2221    4.3164   -0.7457 H   0  0  0  0  0  0  0  0  0  0  0  0
   -2.4961    2.3664    0.3473 H   0  0  0  0  0  0  0  0  0  0  0  0
   -4.9038    1.8665    0.4437 H   0  0  0  0  0  0  0  0  0  0  0  0
   -5.6923   -0.4537    0.2357 H   0  0  0  0  0  0  0  0  0  0  0  0
   -4.0933   -2.2902   -0.0682 H   0  0  0  0  0  0  0  0  0  0  0  0
    1.9859   -4.5861    0.4464 H   0  0  0  0  0  0  0  0  0  0  0  0
    2.5715   -3.1209    1.2700 H   0  0  0  0  0  0  0  0  0  0  0  0
    0.8450   -3.5486    1.3353 H   0  0  0  0  0  0  0  0  0  0  0  0
    3.9248   -1.1107    0.4436 H   0  0  0  0  0  0  0  0  0  0  0  0
    2.6406    2.4446    1.8555 H   0  0  0  0  0  0  0  0  0  0  0  0
    3.8536    1.1596    1.6421 H   0  0  0  0  0  0  0  0  0  0  0  0
    4.2039    2.8148    1.0891 H   0  0  0  0  0  0  0  0  0  0  0  0
  1  2  1  0  0  0  0
  2  3  1  0  0  0  0
  3  4  2  0  0  0  0
  4  5  1  0  0  0  0
  5  6  2  0  0  0  0
  6  7  1  0  0  0  0
  7  8  2  0  0  0  0
  3  8  1  0  0  0  0
  8  9  1  0  0  0  0
  9 10  2  0  0  0  0
 10 11  1  0  0  0  0
 11 12  2  0  0  0  0
 12 13  1  0  0  0  0
 13 14  2  0  0  0  0
  9 14  1  0  0  0  0
 14 15  1  0  0  0  0
  7 15  1  0  0  0  0
  6 16  1  0  0  0  0
 16 17  1  0  0  0  0
  5 18  1  0  0  0  0
  4 19  1  0  0  0  0
 19 20  1  0  0  0  0
  1 21  1  0  0  0  0
  1 22  1  0  0  0  0
  1 23  1  0  0  0  0
 10 24  1  0  0  0  0
 11 25  1  0  0  0  0
 12 26  1  0  0  0  0
 13 27  1  0  0  0  0
 17 28  1  0  0  0  0
 17 29  1  0  0  0  0
 17 30  1  0  0  0  0
 18 31  1  0  0  0  0
 20 32  1  0  0  0  0
 20 33  1  0  0  0  0
 20 34  1  0  0  0  0
M  END
$$$$
