C17H15O7
APtclcactv06211806413D 0   0.00000     0.00000
 
 39 41  0  0  0  0  0  0  0  0999 V2000
    2.5950    3.6750   -0.9882 C   0  0  0  0  0  0  0  0  0  0  0  0
    3.5407    2.6823   -0.5855 O   0  0  0  0  0  0  0  0  0  0  0  0
    3.0508    1.4515   -0.2779 C   0  0  0  0  0  0  0  0  0  0  0  0
    1.6919    1.2077   -0.3625 C   0  0  0  0  0  0  0  0  0  0  0  0
    1.1896   -0.0558   -0.0472 C   0  0  0  0  0  0  0  0  0  0  0  0
    2.0603   -1.0707    0.3529 C   0  0  0  0  0  0  0  0  0  0  0  0
    3.4184   -0.8225    0.4361 C   0  0  0  0  0  0  0  0  0  0  0  0
    3.9176    0.4366    0.1161 C   0  0  0  0  0  0  0  0  0  0  0  0
    5.2532    0.6783    0.1982 O   0  0  0  0  0  0  0  0  0  0  0  0
    4.2672   -1.8109    0.8263 O   0  0  0  0  0  0  0  0  0  0  0  0
    3.6870   -3.0799    1.1347 C   0  0  0  0  0  0  0  0  0  0  0  0
   -0.2633   -0.3187   -0.1364 C   0  0  0  0  0  0  0  0  0  0  0  0
   -0.6942   -1.5559   -0.6485 C   0  0  0  0  0  0  0  0  0  0  0  0
   -2.0511   -1.7843   -0.7246 C   0  0  0  0  0  0  0  0  0  0  0  0
   -2.8712   -0.7300   -0.2711 C   0  0  0  0  0  0  0  0  0  0  0  0
   -4.2744   -0.8283   -0.2915 C   0  0  0  0  0  0  0  0  0  0  0  0
   -5.0315    0.2174    0.1580 C   0  0  0  0  0  0  0  0  0  0  0  0
   -4.4233    1.3800    0.6356 C   0  0  0  0  0  0  0  0  0  0  0  0
   -3.0513    1.5022    0.6660 C   0  0  0  0  0  0  0  0  0  0  0  0
   -2.2453    0.4467    0.2127 C   0  0  0  0  0  0  0  0  0  0  0  0
   -1.0312    0.5371    0.2385 O   0  3  0  0  0  0  0  0  0  0  0  0
   -5.1960    2.4062    1.0766 O   0  0  0  0  0  0  0  0  0  0  0  0
   -4.8732   -1.9550   -0.7552 O   0  0  0  0  0  0  0  0  0  0  0  0
    0.1992   -2.4960   -1.0558 O   0  0  0  0  0  0  0  0  0  0  0  0
    3.1166    4.6075   -1.2038 H   0  0  0  0  0  0  0  0  0  0  0  0
    2.0713    3.3365   -1.8822 H   0  0  0  0  0  0  0  0  0  0  0  0
    1.8757    3.8383   -0.1856 H   0  0  0  0  0  0  0  0  0  0  0  0
    1.0199    1.9945   -0.6720 H   0  0  0  0  0  0  0  0  0  0  0  0
    1.6737   -2.0490    0.5976 H   0  0  0  0  0  0  0  0  0  0  0  0
    5.7369    0.4959   -0.6191 H   0  0  0  0  0  0  0  0  0  0  0  0
    2.9756   -2.9651    1.9524 H   0  0  0  0  0  0  0  0  0  0  0  0
    3.1712   -3.4668    0.2559 H   0  0  0  0  0  0  0  0  0  0  0  0
    4.4719   -3.7758    1.4310 H   0  0  0  0  0  0  0  0  0  0  0  0
   -2.4593   -2.7085   -1.1063 H   0  0  0  0  0  0  0  0  0  0  0  0
   -6.1089    0.1439    0.1431 H   0  0  0  0  0  0  0  0  0  0  0  0
   -2.5970    2.4086    1.0379 H   0  0  0  0  0  0  0  0  0  0  0  0
   -5.4077    2.3623    2.0191 H   0  0  0  0  0  0  0  0  0  0  0  0
   -5.0346   -2.6231   -0.0750 H   0  0  0  0  0  0  0  0  0  0  0  0
    0.4698   -3.1094   -0.3589 H   0  0  0  0  0  0  0  0  0  0  0  0
  1  2  1  0  0  0  0
  2  3  1  0  0  0  0
  3  4  2  0  0  0  0
  4  5  1  0  0  0  0
  5  6  2  0  0  0  0
  6  7  1  0  0  0  0
  7  8  2  0  0  0  0
  3  8  1  0  0  0  0
  8  9  1  0  0  0  0
  7 10  1  0  0  0  0
 10 11  1  0  0  0  0
  5 12  1  0  0  0  0
 12 13  2  0  0  0  0
 13 14  1  0  0  0  0
 14 15  2  0  0  0  0
 15 16  1  0  0  0  0
 16 17  2  0  0  0  0
 17 18  1  0  0  0  0
 18 19  2  0  0  0  0
 19 20  1  0  0  0  0
 15 20  1  0  0  0  0
 20 21  2  0  0  0  0
 12 21  1  0  0  0  0
 18 22  1  0  0  0  0
 16 23  1  0  0  0  0
 13 24  1  0  0  0  0
  1 25  1  0  0  0  0
  1 26  1  0  0  0  0
  1 27  1  0  0  0  0
  4 28  1  0  0  0  0
  6 29  1  0  0  0  0
  9 30  1  0  0  0  0
 11 31  1  0  0  0  0
 11 32  1  0  0  0  0
 11 33  1  0  0  0  0
 14 34  1  0  0  0  0
 17 35  1  0  0  0  0
 19 36  1  0  0  0  0
 22 37  1  0  0  0  0
 23 38  1  0  0  0  0
 24 39  1  0  0  0  0
M  CHG  1  21   1
M  END
$$$$
