C15H14O5
APtclcactv06211806413D 0   0.00000     0.00000
 
 34 36  0  0  0  0  0  0  0  0999 V2000
    0.5487   -3.3090   -1.1506 C   0  0  0  0  0  0  0  0  0  0  0  0
    0.2534   -2.6986    0.1073 O   0  0  0  0  0  0  0  0  0  0  0  0
   -0.2810   -1.4480    0.0767 C   0  0  0  0  0  0  0  0  0  0  0  0
   -1.6564   -1.2798    0.0311 C   0  0  0  0  0  0  0  0  0  0  0  0
   -2.1996    0.0016   -0.0003 C   0  0  0  0  0  0  0  0  0  0  0  0
   -1.3743    1.1161    0.0133 C   0  0  0  0  0  0  0  0  0  0  0  0
    0.0087    0.9613    0.0589 C   0  0  0  0  0  0  0  0  0  0  0  0
    0.5529   -0.3291    0.0967 C   0  0  0  0  0  0  0  0  0  0  0  0
    2.0159   -0.1454    0.1395 C   0  0  0  0  0  0  0  0  0  0  0  0
    3.0976   -1.0180    0.1879 C   0  0  0  0  0  0  0  0  0  0  0  0
    4.3816   -0.5145    0.2204 C   0  0  0  0  0  0  0  0  0  0  0  0
    4.5921    0.8547    0.2049 C   0  0  0  0  0  0  0  0  0  0  0  0
    3.5260    1.7290    0.1575 C   0  0  0  0  0  0  0  0  0  0  0  0
    2.2258    1.2409    0.1238 C   0  0  0  0  0  0  0  0  0  0  0  0
    1.0234    1.8562    0.0809 O   0  0  0  0  0  0  0  0  0  0  0  0
   -1.9176    2.3641   -0.0187 O   0  0  0  0  0  0  0  0  0  0  0  0
   -2.0733    2.9713   -1.3029 C   0  0  0  0  0  0  0  0  0  0  0  0
   -3.5502    0.1618   -0.0449 O   0  0  0  0  0  0  0  0  0  0  0  0
   -4.2341    0.2554    1.2063 C   0  0  0  0  0  0  0  0  0  0  0  0
   -2.4755   -2.3674    0.0166 O   0  0  0  0  0  0  0  0  0  0  0  0
    1.2693   -2.6958   -1.6917 H   0  0  0  0  0  0  0  0  0  0  0  0
    0.9686   -4.3008   -0.9835 H   0  0  0  0  0  0  0  0  0  0  0  0
   -0.3666   -3.3958   -1.7361 H   0  0  0  0  0  0  0  0  0  0  0  0
    2.9331   -2.0854    0.2003 H   0  0  0  0  0  0  0  0  0  0  0  0
    5.2243   -1.1890    0.2583 H   0  0  0  0  0  0  0  0  0  0  0  0
    5.6003    1.2412    0.2306 H   0  0  0  0  0  0  0  0  0  0  0  0
    3.7024    2.7945    0.1462 H   0  0  0  0  0  0  0  0  0  0  0  0
   -2.4526    3.9859   -1.1815 H   0  0  0  0  0  0  0  0  0  0  0  0
   -1.1087    3.0022   -1.8095 H   0  0  0  0  0  0  0  0  0  0  0  0
   -2.7773    2.3888   -1.8972 H   0  0  0  0  0  0  0  0  0  0  0  0
   -4.1261   -0.6828    1.7505 H   0  0  0  0  0  0  0  0  0  0  0  0
   -3.8066    1.0677    1.7941 H   0  0  0  0  0  0  0  0  0  0  0  0
   -5.2913    0.4528    1.0286 H   0  0  0  0  0  0  0  0  0  0  0  0
   -2.7402   -2.6722    0.8953 H   0  0  0  0  0  0  0  0  0  0  0  0
  1  2  1  0  0  0  0
  2  3  1  0  0  0  0
  3  4  2  0  0  0  0
  4  5  1  0  0  0  0
  5  6  2  0  0  0  0
  6  7  1  0  0  0  0
  7  8  2  0  0  0  0
  3  8  1  0  0  0  0
  8  9  1  0  0  0  0
  9 10  2  0  0  0  0
 10 11  1  0  0  0  0
 11 12  2  0  0  0  0
 12 13  1  0  0  0  0
 13 14  2  0  0  0  0
  9 14  1  0  0  0  0
 14 15  1  0  0  0  0
  7 15  1  0  0  0  0
  6 16  1  0  0  0  0
 16 17  1  0  0  0  0
  5 18  1  0  0  0  0
 18 19  1  0  0  0  0
  4 20  1  0  0  0  0
  1 21  1  0  0  0  0
  1 22  1  0  0  0  0
  1 23  1  0  0  0  0
 10 24  1  0  0  0  0
 11 25  1  0  0  0  0
 12 26  1  0  0  0  0
 13 27  1  0  0  0  0
 17 28  1  0  0  0  0
 17 29  1  0  0  0  0
 17 30  1  0  0  0  0
 19 31  1  0  0  0  0
 19 32  1  0  0  0  0
 19 33  1  0  0  0  0
 20 34  1  0  0  0  0
M  END
$$$$
