Eu2O3
APtclcactv06211806413D 0   0.00000     0.00000
 
  5  0  0  0  0  0  0  0  0  0999 V2000
  -27.3579   -0.0006   -0.0001 O   0  6  0  0  0  0  0  0  0  0  0  0
  -18.6976   -0.0004   -0.0001 O   0  6  0  0  0  0  0  0  0  0  0  0
  -10.0374   -0.0002   -0.0000 O   0  6  0  0  0  0  0  0  0  0  0  0
   -1.3771   -0.0000   -0.0000 Eu  0  1  0  0  0  0  0  0  0  0  0  0
    7.2832    0.0002    0.0000 Eu  0  1  0  0  0  0  0  0  0  0  0  0
M  CHG  5   1  -2   2  -2   3  -2   4   3   5   3
M  END
$$$$
