C15H11ClO4
APtclcactv06211806413D 0   0.00000     0.00000
 
 31 32  0  0  0  0  0  0  0  0999 V2000
   -4.3591    0.7463    1.2252 C   0  0  0  0  0  0  0  0  0  0  0  0
   -5.3763    1.6757    1.2108 C   0  0  0  0  0  0  0  0  0  0  0  0
   -5.5445    2.5068    0.1103 C   0  0  0  0  0  0  0  0  0  0  0  0
   -4.6884    2.4044   -0.9790 C   0  0  0  0  0  0  0  0  0  0  0  0
   -3.6690    1.4773   -0.9714 C   0  0  0  0  0  0  0  0  0  0  0  0
   -3.4968    0.6409    0.1327 C   0  0  0  0  0  0  0  0  0  0  0  0
   -2.4032   -0.3559    0.1445 C   0  0  0  0  0  0  0  0  0  0  0  0
   -1.3270   -0.0392   -0.3070 O   0  3  0  0  0  0  0  0  0  0  0  0
   -0.3495   -0.7648   -0.3555 C   0  0  0  0  0  0  0  0  0  0  0  0
    0.8573   -0.3032   -0.8992 C   0  0  0  0  0  0  0  0  0  0  0  0
    1.9550   -1.1356   -0.9473 C   0  0  0  0  0  0  0  0  0  0  0  0
    1.8883   -2.4422   -0.4607 C   0  0  0  0  0  0  0  0  0  0  0  0
    0.7172   -2.9256    0.0800 C   0  0  0  0  0  0  0  0  0  0  0  0
   -0.4143   -2.0923    0.1386 C   0  0  0  0  0  0  0  0  0  0  0  0
   -1.6355   -2.5425    0.6839 C   0  0  0  0  0  0  0  0  0  0  0  0
   -2.6582   -1.6251    0.6840 C   0  0  0  0  0  0  0  0  0  0  0  0
    0.6556   -4.1966    0.5524 O   0  0  0  0  0  0  0  0  0  0  0  0
    3.1186   -0.6778   -1.4766 O   0  0  0  0  0  0  0  0  0  0  0  0
   -6.5483    3.4212    0.0993 O   0  0  0  0  0  0  0  0  0  0  0  0
   12.3471    2.3274    0.5235 Cl  0  5  0  0  0  0  0  0  0  0  0  0
   -4.2263    0.1033    2.0827 H   0  0  0  0  0  0  0  0  0  0  0  0
   -6.0438    1.7578    2.0558 H   0  0  0  0  0  0  0  0  0  0  0  0
   -4.8223    3.0518   -1.8330 H   0  0  0  0  0  0  0  0  0  0  0  0
   -3.0043    1.3977   -1.8189 H   0  0  0  0  0  0  0  0  0  0  0  0
    0.9270    0.7048   -1.2807 H   0  0  0  0  0  0  0  0  0  0  0  0
    2.7600   -3.0780   -0.5088 H   0  0  0  0  0  0  0  0  0  0  0  0
   -1.7570   -3.5405    1.0784 H   0  0  0  0  0  0  0  0  0  0  0  0
   -3.6308   -1.8760    1.0807 H   0  0  0  0  0  0  0  0  0  0  0  0
    0.8888   -4.2805    1.4871 H   0  0  0  0  0  0  0  0  0  0  0  0
    3.7065   -0.2606   -0.8321 H   0  0  0  0  0  0  0  0  0  0  0  0
   -6.3003    4.2819    0.4638 H   0  0  0  0  0  0  0  0  0  0  0  0
  1  2  2  0  0  0  0
  2  3  1  0  0  0  0
  3  4  2  0  0  0  0
  4  5  1  0  0  0  0
  5  6  2  0  0  0  0
  1  6  1  0  0  0  0
  6  7  1  0  0  0  0
  7  8  2  0  0  0  0
  8  9  1  0  0  0  0
  9 10  2  0  0  0  0
 10 11  1  0  0  0  0
 11 12  2  0  0  0  0
 12 13  1  0  0  0  0
 13 14  2  0  0  0  0
  9 14  1  0  0  0  0
 14 15  1  0  0  0  0
 15 16  2  0  0  0  0
  7 16  1  0  0  0  0
 13 17  1  0  0  0  0
 11 18  1  0  0  0  0
  3 19  1  0  0  0  0
  1 21  1  0  0  0  0
  2 22  1  0  0  0  0
  4 23  1  0  0  0  0
  5 24  1  0  0  0  0
 10 25  1  0  0  0  0
 12 26  1  0  0  0  0
 15 27  1  0  0  0  0
 16 28  1  0  0  0  0
 17 29  1  0  0  0  0
 18 30  1  0  0  0  0
 19 31  1  0  0  0  0
M  CHG  2   8   1  20  -1
M  END
$$$$
