C20H24O10
APtclcactv06291802413D 0   0.00000     0.00000
 
 54 57  0  0  0  0  0  0  0  0999 V2000
   -1.6119    2.3700   -0.3802 C   0  0  0  0  0  0  0  0  0  0  0  0
   -0.7648    1.1397   -0.7113 C   0  0  0  0  0  0  0  0  0  0  0  0
   -0.3924    1.1612   -2.1952 C   0  0  0  0  0  0  0  0  0  0  0  0
    0.5099    1.1555    0.1347 C   0  0  0  0  0  0  0  0  0  0  0  0
    1.3730   -0.0964   -0.1508 C   0  0  0  0  0  0  0  0  0  0  0  0
    2.7780    0.4661   -0.0568 C   0  0  0  0  0  0  0  0  0  0  0  0
    2.6707    1.8473   -0.1248 C   0  0  0  0  0  0  0  0  0  0  0  0
    1.3731    2.2333   -0.2646 O   0  0  0  0  0  0  0  0  0  0  0  0
    3.8291    2.6304   -0.0513 C   0  0  0  0  0  0  0  0  0  0  0  0
    5.0554    2.0514    0.0800 C   0  0  0  0  0  0  0  0  0  0  0  0
    5.1701    0.6584    0.1423 C   0  0  0  0  0  0  0  0  0  0  0  0
    4.0133   -0.1414    0.0733 C   0  0  0  0  0  0  0  0  0  0  0  0
    4.1232   -1.4859    0.1361 O   0  0  0  0  0  0  0  0  0  0  0  0
    5.3166   -2.0866    0.2631 C   0  0  0  0  0  0  0  0  0  0  0  0
    5.3660   -3.3024    0.3157 O   0  0  0  0  0  0  0  0  0  0  0  0
    6.5147   -1.3468    0.3369 C   0  0  0  0  0  0  0  0  0  0  0  0
    6.4752    0.0100    0.2792 C   0  0  0  0  0  0  0  0  0  0  0  0
    1.1578   -1.1024    0.8411 O   0  0  0  0  0  0  0  0  0  0  0  0
   -1.5120   -0.0442   -0.4248 O   0  0  0  0  0  0  0  0  0  0  0  0
   -2.7654   -0.1198   -1.1070 C   0  0  0  0  0  0  0  0  0  0  0  0
   -3.2968   -1.5540   -1.0412 C   0  0  0  0  0  0  0  0  0  0  0  0
   -3.5407   -1.9332    0.4227 C   0  0  0  0  0  0  0  0  0  0  0  0
   -4.5111   -0.9246    1.0451 C   0  0  0  0  0  0  0  0  0  0  0  0
   -3.9328    0.4853    0.8987 C   0  0  0  0  0  0  0  0  0  0  0  0
   -3.7010    0.7625   -0.4839 O   0  0  0  0  0  0  0  0  0  0  0  0
   -4.9238    1.5046    1.4643 C   0  0  0  0  0  0  0  0  0  0  0  0
   -4.3367    2.8071    1.4344 O   0  0  0  0  0  0  0  0  0  0  0  0
   -5.7703   -0.9963    0.3733 O   0  0  0  0  0  0  0  0  0  0  0  0
   -4.1059   -3.2440    0.4892 O   0  0  0  0  0  0  0  0  0  0  0  0
   -4.5239   -1.6424   -1.7682 O   0  0  0  0  0  0  0  0  0  0  0  0
   -2.4598    2.4218   -1.0631 H   0  0  0  0  0  0  0  0  0  0  0  0
   -1.9750    2.2960    0.6449 H   0  0  0  0  0  0  0  0  0  0  0  0
   -1.0044    3.2687   -0.4865 H   0  0  0  0  0  0  0  0  0  0  0  0
    0.2746    2.0009   -2.3902 H   0  0  0  0  0  0  0  0  0  0  0  0
    0.1096    0.2299   -2.4573 H   0  0  0  0  0  0  0  0  0  0  0  0
   -1.2962    1.2681   -2.7950 H   0  0  0  0  0  0  0  0  0  0  0  0
    0.2672    1.2238    1.1951 H   0  0  0  0  0  0  0  0  0  0  0  0
    1.1753   -0.4867   -1.1491 H   0  0  0  0  0  0  0  0  0  0  0  0
    3.7496    3.7064   -0.0996 H   0  0  0  0  0  0  0  0  0  0  0  0
    5.9401    2.6684    0.1356 H   0  0  0  0  0  0  0  0  0  0  0  0
    7.4611   -1.8573    0.4381 H   0  0  0  0  0  0  0  0  0  0  0  0
    7.3819    0.5942    0.3335 H   0  0  0  0  0  0  0  0  0  0  0  0
    1.6772   -1.9066    0.7047 H   0  0  0  0  0  0  0  0  0  0  0  0
   -2.6303    0.1704   -2.1489 H   0  0  0  0  0  0  0  0  0  0  0  0
   -2.5646   -2.2341   -1.4765 H   0  0  0  0  0  0  0  0  0  0  0  0
   -2.5963   -1.9139    0.9666 H   0  0  0  0  0  0  0  0  0  0  0  0
   -4.6474   -1.1545    2.1018 H   0  0  0  0  0  0  0  0  0  0  0  0
   -2.9920    0.5509    1.4453 H   0  0  0  0  0  0  0  0  0  0  0  0
   -5.8320    1.5015    0.8615 H   0  0  0  0  0  0  0  0  0  0  0  0
   -5.1696    1.2403    2.4928 H   0  0  0  0  0  0  0  0  0  0  0  0
   -4.9104    3.5051    1.7791 H   0  0  0  0  0  0  0  0  0  0  0  0
   -6.1927   -1.8649    0.4212 H   0  0  0  0  0  0  0  0  0  0  0  0
   -3.5466   -3.9334    0.1060 H   0  0  0  0  0  0  0  0  0  0  0  0
   -4.9180   -2.5255   -1.7687 H   0  0  0  0  0  0  0  0  0  0  0  0
  1  2  1  0  0  0  0
  2  3  1  0  0  0  0
  2  4  1  0  0  0  0
  4  5  1  0  0  0  0
  5  6  1  0  0  0  0
  6  7  2  0  0  0  0
  7  8  1  0  0  0  0
  4  8  1  0  0  0  0
  7  9  1  0  0  0  0
  9 10  2  0  0  0  0
 10 11  1  0  0  0  0
 11 12  2  0  0  0  0
  6 12  1  0  0  0  0
 12 13  1  0  0  0  0
 13 14  1  0  0  0  0
 14 15  2  0  0  0  0
 14 16  1  0  0  0  0
 16 17  2  0  0  0  0
 11 17  1  0  0  0  0
  5 18  1  0  0  0  0
  2 19  1  0  0  0  0
 19 20  1  0  0  0  0
 20 21  1  0  0  0  0
 21 22  1  0  0  0  0
 22 23  1  0  0  0  0
 23 24  1  0  0  0  0
 24 25  1  0  0  0  0
 20 25  1  0  0  0  0
 24 26  1  0  0  0  0
 26 27  1  0  0  0  0
 23 28  1  0  0  0  0
 22 29  1  0  0  0  0
 21 30  1  0  0  0  0
  1 31  1  0  0  0  0
  1 32  1  0  0  0  0
  1 33  1  0  0  0  0
  3 34  1  0  0  0  0
  3 35  1  0  0  0  0
  3 36  1  0  0  0  0
  4 37  1  0  0  0  0
  5 38  1  0  0  0  0
  9 39  1  0  0  0  0
 10 40  1  0  0  0  0
 16 41  1  0  0  0  0
 17 42  1  0  0  0  0
 18 43  1  0  0  0  0
 20 44  1  0  0  0  0
 21 45  1  0  0  0  0
 22 46  1  0  0  0  0
 23 47  1  0  0  0  0
 24 48  1  0  0  0  0
 26 49  1  0  0  0  0
 26 50  1  0  0  0  0
 27 51  1  0  0  0  0
 28 52  1  0  0  0  0
 29 53  1  0  0  0  0
 30 54  1  0  0  0  0
M  END
$$$$
