C23H20FN7O3
APtclcactv06291802413D 0   0.00000     0.00000
 
 54 58  0  0  0  0  0  0  0  0999 V2000
    4.1967   -0.7679    0.6616 C   0  0  0  0  0  0  0  0  0  0  0  0
    3.1437   -1.2773   -0.3304 C   0  0  0  0  0  0  0  0  0  0  0  0
    2.0615   -0.2868   -0.4164 N   0  0  0  0  0  0  0  0  0  0  0  0
    2.3979    1.1018   -0.7606 C   0  0  0  0  0  0  0  0  0  0  0  0
    3.4508    1.6112    0.2314 C   0  0  0  0  0  0  0  0  0  0  0  0
    4.5331    0.6207    0.3174 N   0  0  0  0  0  0  0  0  0  0  0  0
    5.8113    0.9794    0.0852 C   0  0  0  0  0  0  0  0  0  0  0  0
    6.0871    2.1445   -0.1245 O   0  0  0  0  0  0  0  0  0  0  0  0
    6.8781   -0.0442    0.0854 C   0  0  0  0  0  0  0  0  0  0  0  0
    7.8837   -0.0088   -0.8819 C   0  0  0  0  0  0  0  0  0  0  0  0
    8.8765   -0.9667   -0.8757 C   0  0  0  0  0  0  0  0  0  0  0  0
    8.8765   -1.9612    0.0862 C   0  0  0  0  0  0  0  0  0  0  0  0
    7.8826   -2.0020    1.0479 C   0  0  0  0  0  0  0  0  0  0  0  0
    6.8872   -1.0468    1.0564 C   0  0  0  0  0  0  0  0  0  0  0  0
    0.7832   -0.6455   -0.1842 C   0  0  0  0  0  0  0  0  0  0  0  0
    0.5003   -1.8153   -0.0258 O   0  0  0  0  0  0  0  0  0  0  0  0
   -0.2839    0.3950   -0.1217 C   0  0  0  0  0  0  0  0  0  0  0  0
    0.0155    1.5730   -0.1156 O   0  0  0  0  0  0  0  0  0  0  0  0
   -1.6903   -0.0023   -0.0678 C   0  0  0  0  0  0  0  0  0  0  0  0
   -2.1908   -1.2925   -0.0666 C   0  0  0  0  0  0  0  0  0  0  0  0
   -3.5336   -1.2540   -0.0086 N   0  0  0  0  0  0  0  0  0  0  0  0
   -3.9839    0.0488    0.0310 C   0  0  0  0  0  0  0  0  0  0  0  0
   -2.8592    0.8890    0.0025 C   0  0  0  0  0  0  0  0  0  0  0  0
   -3.0485    2.2726    0.0340 C   0  0  0  0  0  0  0  0  0  0  0  0
   -4.3366    2.7645    0.0920 C   0  0  0  0  0  0  0  0  0  0  0  0
   -5.3779    1.9495    0.1177 N   0  0  0  0  0  0  0  0  0  0  0  0
   -5.2501    0.6341    0.0950 C   0  0  0  0  0  0  0  0  0  0  0  0
   -6.3890   -0.1752    0.1242 N   0  0  0  0  0  0  0  0  0  0  0  0
   -7.5997    0.1671    0.6366 C   0  0  0  0  0  0  0  0  0  0  0  0
   -8.4299   -0.8873    0.4715 C   0  0  0  0  0  0  0  0  0  0  0  0
   -7.7067   -1.9117   -0.1629 C   0  0  0  0  0  0  0  0  0  0  0  0
   -6.4854   -1.4805   -0.3750 N   0  0  0  0  0  0  0  0  0  0  0  0
   -8.2040   -3.1714   -0.5126 N   0  0  0  0  0  0  0  0  0  0  0  0
   -1.9910    3.1130    0.0085 F   0  0  0  0  0  0  0  0  0  0  0  0
    3.7946   -0.8067    1.6739 H   0  0  0  0  0  0  0  0  0  0  0  0
    5.0908   -1.3879    0.5964 H   0  0  0  0  0  0  0  0  0  0  0  0
    3.5990   -1.4079   -1.3122 H   0  0  0  0  0  0  0  0  0  0  0  0
    2.7421   -2.2286    0.0188 H   0  0  0  0  0  0  0  0  0  0  0  0
    2.8000    1.1406   -1.7729 H   0  0  0  0  0  0  0  0  0  0  0  0
    1.5037    1.7217   -0.6954 H   0  0  0  0  0  0  0  0  0  0  0  0
    3.8524    2.5625   -0.1178 H   0  0  0  0  0  0  0  0  0  0  0  0
    2.9956    1.7418    1.2132 H   0  0  0  0  0  0  0  0  0  0  0  0
    7.8844    0.7665   -1.6337 H   0  0  0  0  0  0  0  0  0  0  0  0
    9.6552   -0.9405   -1.6236 H   0  0  0  0  0  0  0  0  0  0  0  0
    9.6556   -2.7092    0.0862 H   0  0  0  0  0  0  0  0  0  0  0  0
    7.8883   -2.7810    1.7960 H   0  0  0  0  0  0  0  0  0  0  0  0
    6.1122   -1.0795    1.8078 H   0  0  0  0  0  0  0  0  0  0  0  0
   -1.5944   -2.1920   -0.1061 H   0  0  0  0  0  0  0  0  0  0  0  0
   -4.1074   -2.0361    0.0034 H   0  0  0  0  0  0  0  0  0  0  0  0
   -4.4969    3.8322    0.1171 H   0  0  0  0  0  0  0  0  0  0  0  0
   -7.8535    1.1118    1.0942 H   0  0  0  0  0  0  0  0  0  0  0  0
   -9.4656   -0.9342    0.7741 H   0  0  0  0  0  0  0  0  0  0  0  0
   -9.1263   -3.3999   -0.3176 H   0  0  0  0  0  0  0  0  0  0  0  0
   -7.6266   -3.8165   -0.9500 H   0  0  0  0  0  0  0  0  0  0  0  0
  1  2  1  0  0  0  0
  2  3  1  0  0  0  0
  3  4  1  0  0  0  0
  4  5  1  0  0  0  0
  5  6  1  0  0  0  0
  1  6  1  0  0  0  0
  6  7  1  0  0  0  0
  7  8  2  0  0  0  0
  7  9  1  0  0  0  0
  9 10  2  0  0  0  0
 10 11  1  0  0  0  0
 11 12  2  0  0  0  0
 12 13  1  0  0  0  0
 13 14  2  0  0  0  0
  9 14  1  0  0  0  0
  3 15  1  0  0  0  0
 15 16  2  0  0  0  0
 15 17  1  0  0  0  0
 17 18  2  0  0  0  0
 17 19  1  0  0  0  0
 19 20  2  0  0  0  0
 20 21  1  0  0  0  0
 21 22  1  0  0  0  0
 22 23  2  0  0  0  0
 19 23  1  0  0  0  0
 23 24  1  0  0  0  0
 24 25  2  0  0  0  0
 25 26  1  0  0  0  0
 26 27  2  0  0  0  0
 22 27  1  0  0  0  0
 27 28  1  0  0  0  0
 28 29  1  0  0  0  0
 29 30  2  0  0  0  0
 30 31  1  0  0  0  0
 31 32  2  0  0  0  0
 28 32  1  0  0  0  0
 31 33  1  0  0  0  0
 24 34  1  0  0  0  0
  1 35  1  0  0  0  0
  1 36  1  0  0  0  0
  2 37  1  0  0  0  0
  2 38  1  0  0  0  0
  4 39  1  0  0  0  0
  4 40  1  0  0  0  0
  5 41  1  0  0  0  0
  5 42  1  0  0  0  0
 10 43  1  0  0  0  0
 11 44  1  0  0  0  0
 12 45  1  0  0  0  0
 13 46  1  0  0  0  0
 14 47  1  0  0  0  0
 20 48  1  0  0  0  0
 21 49  1  0  0  0  0
 25 50  1  0  0  0  0
 29 51  1  0  0  0  0
 30 52  1  0  0  0  0
 33 53  1  0  0  0  0
 33 54  1  0  0  0  0
M  END
$$$$
