C13H11NO3
APtclcactv06211806413D 0   0.00000     0.00000
 
 28 30  0  0  0  0  0  0  0  0999 V2000
    5.0829    0.1784    0.0094 C   0  0  0  0  0  0  0  0  0  0  0  0
    3.9348   -0.6631    0.1351 O   0  0  0  0  0  0  0  0  0  0  0  0
    2.7178   -0.0609    0.0675 C   0  0  0  0  0  0  0  0  0  0  0  0
    1.5840   -0.8136    0.1811 C   0  0  0  0  0  0  0  0  0  0  0  0
    0.3279   -0.1902    0.1111 C   0  0  0  0  0  0  0  0  0  0  0  0
    0.2472    1.2123   -0.0765 C   0  0  0  0  0  0  0  0  0  0  0  0
    1.4380    1.9544   -0.1888 C   0  0  0  0  0  0  0  0  0  0  0  0
    2.6399    1.3235   -0.1118 C   0  0  0  0  0  0  0  0  0  0  0  0
   -0.9411    1.8209   -0.1461 N   0  0  0  0  0  0  0  0  0  0  0  0
   -2.0741    1.1522   -0.0443 C   0  0  0  0  0  0  0  0  0  0  0  0
   -2.0691   -0.2474    0.1441 C   0  0  0  0  0  0  0  0  0  0  0  0
   -0.8637   -0.9375    0.2241 C   0  0  0  0  0  0  0  0  0  0  0  0
   -0.8350   -2.2808    0.4037 O   0  0  0  0  0  0  0  0  0  0  0  0
   -0.8343   -3.0928   -0.7722 C   0  0  0  0  0  0  0  0  0  0  0  0
   -3.4819   -0.6428    0.2112 C   0  0  0  0  0  0  0  0  0  0  0  0
   -4.1904    0.4833    0.0665 C   0  0  0  0  0  0  0  0  0  0  0  0
   -3.3674    1.5374   -0.0835 O   0  0  0  0  0  0  0  0  0  0  0  0
    5.0786    0.9205    0.8078 H   0  0  0  0  0  0  0  0  0  0  0  0
    5.9866   -0.4269    0.0809 H   0  0  0  0  0  0  0  0  0  0  0  0
    5.0593    0.6834   -0.9562 H   0  0  0  0  0  0  0  0  0  0  0  0
    1.6532   -1.8820    0.3235 H   0  0  0  0  0  0  0  0  0  0  0  0
    1.3970    3.0241   -0.3320 H   0  0  0  0  0  0  0  0  0  0  0  0
    3.5491    1.8999   -0.1989 H   0  0  0  0  0  0  0  0  0  0  0  0
   -0.8100   -4.1446   -0.4874 H   0  0  0  0  0  0  0  0  0  0  0  0
   -1.7360   -2.8940   -1.3514 H   0  0  0  0  0  0  0  0  0  0  0  0
    0.0435   -2.8590   -1.3746 H   0  0  0  0  0  0  0  0  0  0  0  0
   -3.8706   -1.6409    0.3493 H   0  0  0  0  0  0  0  0  0  0  0  0
   -5.2690    0.5383    0.0700 H   0  0  0  0  0  0  0  0  0  0  0  0
  1  2  1  0  0  0  0
  2  3  1  0  0  0  0
  3  4  2  0  0  0  0
  4  5  1  0  0  0  0
  5  6  2  0  0  0  0
  6  7  1  0  0  0  0
  7  8  2  0  0  0  0
  3  8  1  0  0  0  0
  6  9  1  0  0  0  0
  9 10  2  0  0  0  0
 10 11  1  0  0  0  0
 11 12  2  0  0  0  0
  5 12  1  0  0  0  0
 12 13  1  0  0  0  0
 13 14  1  0  0  0  0
 11 15  1  0  0  0  0
 15 16  2  0  0  0  0
 16 17  1  0  0  0  0
 10 17  1  0  0  0  0
  1 18  1  0  0  0  0
  1 19  1  0  0  0  0
  1 20  1  0  0  0  0
  4 21  1  0  0  0  0
  7 22  1  0  0  0  0
  8 23  1  0  0  0  0
 14 24  1  0  0  0  0
 14 25  1  0  0  0  0
 14 26  1  0  0  0  0
 15 27  1  0  0  0  0
 16 28  1  0  0  0  0
M  END
$$$$
