C22H18O7
APtclcactv06211806413D 0   0.00000     0.00000
 
 47 51  0  0  0  0  0  0  0  0999 V2000
   -0.4769    4.3339   -0.0422 C   0  0  0  0  0  0  0  0  0  0  0  0
   -1.8003    3.7981    0.0162 O   0  0  0  0  0  0  0  0  0  0  0  0
   -1.9199    2.4443   -0.0133 C   0  0  0  0  0  0  0  0  0  0  0  0
   -3.1929    1.8595    0.0411 C   0  0  0  0  0  0  0  0  0  0  0  0
   -3.3399    0.5017    0.0129 C   0  0  0  0  0  0  0  0  0  0  0  0
   -2.2058   -0.3198   -0.0713 C   0  0  0  0  0  0  0  0  0  0  0  0
   -0.9198    0.2715   -0.1263 C   0  0  0  0  0  0  0  0  0  0  0  0
   -0.7992    1.6693   -0.1012 C   0  0  0  0  0  0  0  0  0  0  0  0
    0.2244   -0.5553   -0.2113 C   0  0  0  0  0  0  0  0  0  0  0  0
    0.0662   -1.9458   -0.2397 C   0  0  0  0  0  0  0  0  0  0  0  0
   -1.2225   -2.5100   -0.1838 C   0  0  0  0  0  0  0  0  0  0  0  0
   -2.3307   -1.7272   -0.1016 C   0  0  0  0  0  0  0  0  0  0  0  0
   -3.5618   -2.2994   -0.0487 O   0  0  0  0  0  0  0  0  0  0  0  0
   -4.0793   -2.6066    1.2474 C   0  0  0  0  0  0  0  0  0  0  0  0
   -1.0271   -4.0063   -0.2345 C   0  0  0  0  0  0  0  0  0  0  0  0
    0.4064   -4.2302   -0.3193 O   0  0  0  0  0  0  0  0  0  0  0  0
    1.0392   -3.0451   -0.3225 C   0  0  0  0  0  0  0  0  0  0  0  0
    2.2446   -2.9020   -0.3850 O   0  0  0  0  0  0  0  0  0  0  0  0
    1.5744    0.0432   -0.2701 C   0  0  0  0  0  0  0  0  0  0  0  0
    2.4800   -0.1688    0.7715 C   0  0  0  0  0  0  0  0  0  0  0  0
    3.7416    0.3927    0.7128 C   0  0  0  0  0  0  0  0  0  0  0  0
    4.1081    1.1699   -0.3858 C   0  0  0  0  0  0  0  0  0  0  0  0
    3.2073    1.3801   -1.4202 C   0  0  0  0  0  0  0  0  0  0  0  0
    1.9495    0.8176   -1.3700 C   0  0  0  0  0  0  0  0  0  0  0  0
    5.3894    1.6035   -0.2039 O   0  0  0  0  0  0  0  0  0  0  0  0
    5.9432    0.7510    0.8155 C   0  0  0  0  0  0  0  0  0  0  0  0
    4.7945    0.3409    1.5805 O   0  0  0  0  0  0  0  0  0  0  0  0
   -4.2935    2.6526    0.1232 O   0  0  0  0  0  0  0  0  0  0  0  0
   -5.5626    1.9978    0.1755 C   0  0  0  0  0  0  0  0  0  0  0  0
    0.1002    3.9703    0.8080 H   0  0  0  0  0  0  0  0  0  0  0  0
    0.0025    4.0177   -0.9687 H   0  0  0  0  0  0  0  0  0  0  0  0
   -0.5238    5.4224   -0.0106 H   0  0  0  0  0  0  0  0  0  0  0  0
   -4.3255    0.0623    0.0558 H   0  0  0  0  0  0  0  0  0  0  0  0
    0.1767    2.1301   -0.1430 H   0  0  0  0  0  0  0  0  0  0  0  0
   -5.0664   -3.0578    1.1470 H   0  0  0  0  0  0  0  0  0  0  0  0
   -3.4099   -3.3049    1.7498 H   0  0  0  0  0  0  0  0  0  0  0  0
   -4.1563   -1.6912    1.8342 H   0  0  0  0  0  0  0  0  0  0  0  0
   -1.4247   -4.4663    0.6702 H   0  0  0  0  0  0  0  0  0  0  0  0
   -1.5228   -4.4187   -1.1133 H   0  0  0  0  0  0  0  0  0  0  0  0
    2.1949   -0.7705    1.6218 H   0  0  0  0  0  0  0  0  0  0  0  0
    3.4940    1.9823   -2.2696 H   0  0  0  0  0  0  0  0  0  0  0  0
    1.2512    0.9834   -2.1770 H   0  0  0  0  0  0  0  0  0  0  0  0
    6.4332   -0.1134    0.3673 H   0  0  0  0  0  0  0  0  0  0  0  0
    6.6417    1.3065    1.4414 H   0  0  0  0  0  0  0  0  0  0  0  0
   -5.6998    1.3989   -0.7248 H   0  0  0  0  0  0  0  0  0  0  0  0
   -5.6018    1.3508    1.0518 H   0  0  0  0  0  0  0  0  0  0  0  0
   -6.3542    2.7444    0.2394 H   0  0  0  0  0  0  0  0  0  0  0  0
  1  2  1  0  0  0  0
  2  3  1  0  0  0  0
  3  4  2  0  0  0  0
  4  5  1  0  0  0  0
  5  6  2  0  0  0  0
  6  7  1  0  0  0  0
  7  8  2  0  0  0  0
  3  8  1  0  0  0  0
  7  9  1  0  0  0  0
  9 10  2  0  0  0  0
 10 11  1  0  0  0  0
 11 12  2  0  0  0  0
  6 12  1  0  0  0  0
 12 13  1  0  0  0  0
 13 14  1  0  0  0  0
 11 15  1  0  0  0  0
 15 16  1  0  0  0  0
 16 17  1  0  0  0  0
 10 17  1  0  0  0  0
 17 18  2  0  0  0  0
  9 19  1  0  0  0  0
 19 20  2  0  0  0  0
 20 21  1  0  0  0  0
 21 22  2  0  0  0  0
 22 23  1  0  0  0  0
 23 24  2  0  0  0  0
 19 24  1  0  0  0  0
 22 25  1  0  0  0  0
 25 26  1  0  0  0  0
 26 27  1  0  0  0  0
 21 27  1  0  0  0  0
  4 28  1  0  0  0  0
 28 29  1  0  0  0  0
  1 30  1  0  0  0  0
  1 31  1  0  0  0  0
  1 32  1  0  0  0  0
  5 33  1  0  0  0  0
  8 34  1  0  0  0  0
 14 35  1  0  0  0  0
 14 36  1  0  0  0  0
 14 37  1  0  0  0  0
 15 38  1  0  0  0  0
 15 39  1  0  0  0  0
 20 40  1  0  0  0  0
 23 41  1  0  0  0  0
 24 42  1  0  0  0  0
 26 43  1  0  0  0  0
 26 44  1  0  0  0  0
 29 45  1  0  0  0  0
 29 46  1  0  0  0  0
 29 47  1  0  0  0  0
M  END
$$$$
