C19H22O2
APtclcactv06211806413D 0   0.00000     0.00000
 
 43 45  0  0  0  0  0  0  0  0999 V2000
    4.9509   -0.3388   -1.2833 C   0  0  0  0  0  0  0  0  0  0  0  0
    4.2889   -0.9417   -0.0427 C   0  0  0  0  0  0  0  0  0  0  0  0
    4.9771   -0.4055    1.2141 C   0  0  0  0  0  0  0  0  0  0  0  0
    2.8305   -0.5627   -0.0173 C   0  0  0  0  0  0  0  0  0  0  0  0
    1.8999   -1.5354   -0.0335 C   0  0  0  0  0  0  0  0  0  0  0  0
    0.4643   -1.2311   -0.0105 C   0  0  0  0  0  0  0  0  0  0  0  0
    0.0234    0.1047    0.0298 C   0  0  0  0  0  0  0  0  0  0  0  0
   -1.3411    0.4018    0.0520 C   0  0  0  0  0  0  0  0  0  0  0  0
   -2.2613   -0.6274    0.0289 C   0  0  0  0  0  0  0  0  0  0  0  0
   -1.8265   -1.9466   -0.0077 C   0  0  0  0  0  0  0  0  0  0  0  0
   -0.4798   -2.2568   -0.0273 C   0  0  0  0  0  0  0  0  0  0  0  0
   -3.7479   -0.3812    0.0340 C   0  0  0  0  0  0  0  0  0  0  0  0
   -4.0568    1.0367    0.5093 C   0  0  0  0  0  0  0  0  0  0  0  0
   -3.2070    2.0172   -0.3076 C   0  0  0  0  0  0  0  0  0  0  0  0
   -1.7470    1.8511    0.1085 C   0  0  0  0  0  0  0  0  0  0  0  0
   -4.2949   -0.5687   -1.3825 C   0  0  0  0  0  0  0  0  0  0  0  0
   -4.4221   -1.3853    0.9711 C   0  0  0  0  0  0  0  0  0  0  0  0
    1.0269    1.1896    0.0487 C   0  0  0  0  0  0  0  0  0  0  0  0
    0.6886    2.3542    0.0836 O   0  0  0  0  0  0  0  0  0  0  0  0
    2.4748    0.8062    0.0288 C   0  0  0  0  0  0  0  0  0  0  0  0
    3.3361    1.6632    0.0434 O   0  0  0  0  0  0  0  0  0  0  0  0
    6.0057   -0.6129   -1.3017 H   0  0  0  0  0  0  0  0  0  0  0  0
    4.4606   -0.7208   -2.1787 H   0  0  0  0  0  0  0  0  0  0  0  0
    4.8581    0.7468   -1.2534 H   0  0  0  0  0  0  0  0  0  0  0  0
    4.3817   -2.0273   -0.0727 H   0  0  0  0  0  0  0  0  0  0  0  0
    4.8843    0.6801    1.2441 H   0  0  0  0  0  0  0  0  0  0  0  0
    4.5055   -0.8350    2.0980 H   0  0  0  0  0  0  0  0  0  0  0  0
    6.0319   -0.6796    1.1957 H   0  0  0  0  0  0  0  0  0  0  0  0
    2.2181   -2.5670   -0.0645 H   0  0  0  0  0  0  0  0  0  0  0  0
   -2.5543   -2.7444   -0.0208 H   0  0  0  0  0  0  0  0  0  0  0  0
   -0.1606   -3.2881   -0.0556 H   0  0  0  0  0  0  0  0  0  0  0  0
   -5.1143    1.2526    0.3571 H   0  0  0  0  0  0  0  0  0  0  0  0
   -3.8110    1.1310    1.5670 H   0  0  0  0  0  0  0  0  0  0  0  0
   -3.3132    1.7981   -1.3701 H   0  0  0  0  0  0  0  0  0  0  0  0
   -3.5317    3.0385   -0.1085 H   0  0  0  0  0  0  0  0  0  0  0  0
   -1.6190    2.2208    1.1259 H   0  0  0  0  0  0  0  0  0  0  0  0
   -1.1135    2.4282   -0.5652 H   0  0  0  0  0  0  0  0  0  0  0  0
   -4.0942   -1.5863   -1.7178 H   0  0  0  0  0  0  0  0  0  0  0  0
   -5.3704   -0.3915   -1.3830 H   0  0  0  0  0  0  0  0  0  0  0  0
   -3.8099    0.1380   -2.0558 H   0  0  0  0  0  0  0  0  0  0  0  0
   -4.0279   -1.2622    1.9798 H   0  0  0  0  0  0  0  0  0  0  0  0
   -5.4980   -1.2105    0.9775 H   0  0  0  0  0  0  0  0  0  0  0  0
   -4.2207   -2.3986    0.6234 H   0  0  0  0  0  0  0  0  0  0  0  0
  1  2  1  0  0  0  0
  2  3  1  0  0  0  0
  2  4  1  0  0  0  0
  4  5  2  0  0  0  0
  5  6  1  0  0  0  0
  6  7  2  0  0  0  0
  7  8  1  0  0  0  0
  8  9  2  0  0  0  0
  9 10  1  0  0  0  0
 10 11  2  0  0  0  0
  6 11  1  0  0  0  0
  9 12  1  0  0  0  0
 12 13  1  0  0  0  0
 13 14  1  0  0  0  0
 14 15  1  0  0  0  0
  8 15  1  0  0  0  0
 12 16  1  0  0  0  0
 12 17  1  0  0  0  0
  7 18  1  0  0  0  0
 18 19  2  0  0  0  0
 18 20  1  0  0  0  0
  4 20  1  0  0  0  0
 20 21  2  0  0  0  0
  1 22  1  0  0  0  0
  1 23  1  0  0  0  0
  1 24  1  0  0  0  0
  2 25  1  0  0  0  0
  3 26  1  0  0  0  0
  3 27  1  0  0  0  0
  3 28  1  0  0  0  0
  5 29  1  0  0  0  0
 10 30  1  0  0  0  0
 11 31  1  0  0  0  0
 13 32  1  0  0  0  0
 13 33  1  0  0  0  0
 14 34  1  0  0  0  0
 14 35  1  0  0  0  0
 15 36  1  0  0  0  0
 15 37  1  0  0  0  0
 16 38  1  0  0  0  0
 16 39  1  0  0  0  0
 16 40  1  0  0  0  0
 17 41  1  0  0  0  0
 17 42  1  0  0  0  0
 17 43  1  0  0  0  0
M  END
$$$$
