C16H12O5
APtclcactv06211806413D 0   0.00000     0.00000
 
 33 35  0  0  0  0  0  0  0  0999 V2000
    1.7304    2.8145    1.1136 C   0  0  0  0  0  0  0  0  0  0  0  0
    1.7615    2.0689   -0.1051 O   0  0  0  0  0  0  0  0  0  0  0  0
    1.5277    0.7362   -0.0175 C   0  0  0  0  0  0  0  0  0  0  0  0
    0.2228    0.2437   -0.1233 C   0  0  0  0  0  0  0  0  0  0  0  0
   -0.0106   -1.1440   -0.0317 C   0  0  0  0  0  0  0  0  0  0  0  0
    1.0543   -2.0113    0.1622 C   0  0  0  0  0  0  0  0  0  0  0  0
    2.3504   -1.5085    0.2664 C   0  0  0  0  0  0  0  0  0  0  0  0
    2.5845   -0.1466    0.1721 C   0  0  0  0  0  0  0  0  0  0  0  0
    3.9912    0.3817    0.2865 C   0  0  0  0  0  0  0  0  0  0  0  0
    4.5887    0.4302   -1.0106 O   0  0  0  0  0  0  0  0  0  0  0  0
    3.3901   -2.3595    0.4571 O   0  0  0  0  0  0  0  0  0  0  0  0
   -1.3921   -1.6623   -0.1423 C   0  0  0  0  0  0  0  0  0  0  0  0
   -1.5924   -2.8481   -0.3159 O   0  0  0  0  0  0  0  0  0  0  0  0
   -2.5261   -0.7183   -0.0382 C   0  0  0  0  0  0  0  0  0  0  0  0
   -3.8221   -1.1863    0.1500 C   0  0  0  0  0  0  0  0  0  0  0  0
   -4.8708   -0.2875    0.2460 C   0  0  0  0  0  0  0  0  0  0  0  0
   -4.6387    1.0724    0.1557 C   0  0  0  0  0  0  0  0  0  0  0  0
   -3.3544    1.5547   -0.0322 C   0  0  0  0  0  0  0  0  0  0  0  0
   -2.2899    0.6661   -0.1297 C   0  0  0  0  0  0  0  0  0  0  0  0
   -0.9099    1.1626   -0.3281 C   0  0  0  0  0  0  0  0  0  0  0  0
   -0.7133    2.3168   -0.6562 O   0  0  0  0  0  0  0  0  0  0  0  0
    1.9328    3.8645    0.9023 H   0  0  0  0  0  0  0  0  0  0  0  0
    0.7464    2.7193    1.5727 H   0  0  0  0  0  0  0  0  0  0  0  0
    2.4883    2.4284    1.7952 H   0  0  0  0  0  0  0  0  0  0  0  0
    0.8795   -3.0748    0.2328 H   0  0  0  0  0  0  0  0  0  0  0  0
    3.9691    1.3841    0.7141 H   0  0  0  0  0  0  0  0  0  0  0  0
    4.5748   -0.2755    0.9311 H   0  0  0  0  0  0  0  0  0  0  0  0
    5.4972    0.7615   -1.0130 H   0  0  0  0  0  0  0  0  0  0  0  0
    3.7908   -2.6809   -0.3622 H   0  0  0  0  0  0  0  0  0  0  0  0
   -4.0099   -2.2474    0.2207 H   0  0  0  0  0  0  0  0  0  0  0  0
   -5.8772   -0.6513    0.3919 H   0  0  0  0  0  0  0  0  0  0  0  0
   -5.4651    1.7636    0.2319 H   0  0  0  0  0  0  0  0  0  0  0  0
   -3.1802    2.6182   -0.1028 H   0  0  0  0  0  0  0  0  0  0  0  0
  1  2  1  0  0  0  0
  2  3  1  0  0  0  0
  3  4  2  0  0  0  0
  4  5  1  0  0  0  0
  5  6  2  0  0  0  0
  6  7  1  0  0  0  0
  7  8  2  0  0  0  0
  3  8  1  0  0  0  0
  8  9  1  0  0  0  0
  9 10  1  0  0  0  0
  7 11  1  0  0  0  0
  5 12  1  0  0  0  0
 12 13  2  0  0  0  0
 12 14  1  0  0  0  0
 14 15  2  0  0  0  0
 15 16  1  0  0  0  0
 16 17  2  0  0  0  0
 17 18  1  0  0  0  0
 18 19  2  0  0  0  0
 14 19  1  0  0  0  0
 19 20  1  0  0  0  0
  4 20  1  0  0  0  0
 20 21  2  0  0  0  0
  1 22  1  0  0  0  0
  1 23  1  0  0  0  0
  1 24  1  0  0  0  0
  6 25  1  0  0  0  0
  9 26  1  0  0  0  0
  9 27  1  0  0  0  0
 10 28  1  0  0  0  0
 11 29  1  0  0  0  0
 15 30  1  0  0  0  0
 16 31  1  0  0  0  0
 17 32  1  0  0  0  0
 18 33  1  0  0  0  0
M  END
$$$$
