C15H8O6
APtclcactv06211806413D 0   0.00000     0.00000
 
 29 31  0  0  0  0  0  0  0  0999 V2000
   -4.9985    0.2538    0.3675 C   0  0  0  0  0  0  0  0  0  0  0  0
   -4.7824   -1.1118    0.3558 C   0  0  0  0  0  0  0  0  0  0  0  0
   -3.5096   -1.6198    0.1569 C   0  0  0  0  0  0  0  0  0  0  0  0
   -2.4407   -0.7516   -0.0324 C   0  0  0  0  0  0  0  0  0  0  0  0
   -2.6606    0.6386   -0.0210 C   0  0  0  0  0  0  0  0  0  0  0  0
   -3.9454    1.1325    0.1800 C   0  0  0  0  0  0  0  0  0  0  0  0
   -1.5222    1.5606   -0.2211 C   0  0  0  0  0  0  0  0  0  0  0  0
   -1.7169    2.7350   -0.4635 O   0  0  0  0  0  0  0  0  0  0  0  0
   -0.1401    1.0337   -0.1218 C   0  0  0  0  0  0  0  0  0  0  0  0
    0.9348    1.9032   -0.0168 C   0  0  0  0  0  0  0  0  0  0  0  0
    2.2322    1.4044    0.0767 C   0  0  0  0  0  0  0  0  0  0  0  0
    2.4591    0.0222    0.0646 C   0  0  0  0  0  0  0  0  0  0  0  0
    1.3757   -0.8651   -0.0414 C   0  0  0  0  0  0  0  0  0  0  0  0
    0.0755   -0.3600   -0.1341 C   0  0  0  0  0  0  0  0  0  0  0  0
   -1.0732   -1.2755   -0.2448 C   0  0  0  0  0  0  0  0  0  0  0  0
   -0.8995   -2.4496   -0.5088 O   0  0  0  0  0  0  0  0  0  0  0  0
    1.5892   -2.2014   -0.0543 O   0  0  0  0  0  0  0  0  0  0  0  0
    3.8327   -0.5002    0.1627 C   0  0  0  0  0  0  0  0  0  0  0  0
    4.3158   -0.7386    1.2520 O   0  0  0  0  0  0  0  0  0  0  0  0
    4.5538   -0.7139   -0.9556 O   0  0  0  0  0  0  0  0  0  0  0  0
    3.2780    2.2591    0.1791 O   0  0  0  0  0  0  0  0  0  0  0  0
   -5.9966    0.6375    0.5195 H   0  0  0  0  0  0  0  0  0  0  0  0
   -5.6122   -1.7871    0.5032 H   0  0  0  0  0  0  0  0  0  0  0  0
   -3.3478   -2.6876    0.1493 H   0  0  0  0  0  0  0  0  0  0  0  0
   -4.1208    2.1982    0.1890 H   0  0  0  0  0  0  0  0  0  0  0  0
    0.7659    2.9699   -0.0079 H   0  0  0  0  0  0  0  0  0  0  0  0
    1.5812   -2.6095    0.8223 H   0  0  0  0  0  0  0  0  0  0  0  0
    5.4504   -1.0575   -0.8409 H   0  0  0  0  0  0  0  0  0  0  0  0
    3.5110    2.4883    1.0892 H   0  0  0  0  0  0  0  0  0  0  0  0
  1  2  2  0  0  0  0
  2  3  1  0  0  0  0
  3  4  2  0  0  0  0
  4  5  1  0  0  0  0
  5  6  2  0  0  0  0
  1  6  1  0  0  0  0
  5  7  1  0  0  0  0
  7  8  2  0  0  0  0
  7  9  1  0  0  0  0
  9 10  2  0  0  0  0
 10 11  1  0  0  0  0
 11 12  2  0  0  0  0
 12 13  1  0  0  0  0
 13 14  2  0  0  0  0
  9 14  1  0  0  0  0
 14 15  1  0  0  0  0
  4 15  1  0  0  0  0
 15 16  2  0  0  0  0
 13 17  1  0  0  0  0
 12 18  1  0  0  0  0
 18 19  2  0  0  0  0
 18 20  1  0  0  0  0
 11 21  1  0  0  0  0
  1 22  1  0  0  0  0
  2 23  1  0  0  0  0
  3 24  1  0  0  0  0
  6 25  1  0  0  0  0
 10 26  1  0  0  0  0
 17 27  1  0  0  0  0
 20 28  1  0  0  0  0
 21 29  1  0  0  0  0
M  END
$$$$
