C18H17NO3
APtclcactv06211806413D 0   0.00000     0.00000
 
 39 43  0  0  0  0  0  0  0  0999 V2000
   -5.8290    0.5405    0.3183 C   0  0  0  0  0  0  0  0  0  0  0  0
   -4.9882   -0.5706    0.0010 O   0  0  0  0  0  0  0  0  0  0  0  0
   -3.6477   -0.3479   -0.0050 C   0  0  0  0  0  0  0  0  0  0  0  0
   -2.7754   -1.3857   -0.3054 C   0  0  0  0  0  0  0  0  0  0  0  0
   -1.4152   -1.1609   -0.3118 C   0  0  0  0  0  0  0  0  0  0  0  0
   -0.9189    0.1026    0.0019 C   0  0  0  0  0  0  0  0  0  0  0  0
   -1.7945    1.1448    0.2936 C   0  0  0  0  0  0  0  0  0  0  0  0
   -3.1556    0.9179    0.2837 C   0  0  0  0  0  0  0  0  0  0  0  0
    0.5480    0.3113    0.0463 C   0  0  0  0  0  0  0  0  0  0  0  0
    1.3995   -0.7929    0.1144 C   0  0  0  0  0  0  0  0  0  0  0  0
    0.8097   -2.1782    0.1629 C   0  0  0  0  0  0  0  0  0  0  0  0
   -0.4595   -2.2628   -0.6814 C   0  0  0  0  0  0  0  0  0  0  0  0
    1.7932   -3.1411   -0.3531 N   0  0  0  0  0  0  0  0  0  0  0  0
    3.0307   -3.0867    0.4278 C   0  0  0  0  0  0  0  0  0  0  0  0
    3.7310   -1.7517    0.2384 C   0  0  0  0  0  0  0  0  0  0  0  0
    2.7648   -0.6047    0.1485 C   0  0  0  0  0  0  0  0  0  0  0  0
    3.2836    0.6839    0.1075 C   0  0  0  0  0  0  0  0  0  0  0  0
    2.4489    1.7851    0.0403 C   0  0  0  0  0  0  0  0  0  0  0  0
    1.0703    1.6036    0.0109 C   0  0  0  0  0  0  0  0  0  0  0  0
    0.4684    2.8262   -0.0513 O   0  0  0  0  0  0  0  0  0  0  0  0
    1.4982    3.7398   -0.4734 C   0  0  0  0  0  0  0  0  0  0  0  0
    2.7131    3.1240   -0.0064 O   0  0  0  0  0  0  0  0  0  0  0  0
   -5.6678    1.3372   -0.4079 H   0  0  0  0  0  0  0  0  0  0  0  0
   -6.8725    0.2268    0.2878 H   0  0  0  0  0  0  0  0  0  0  0  0
   -5.5882    0.9048    1.3170 H   0  0  0  0  0  0  0  0  0  0  0  0
   -3.1621   -2.3680   -0.5334 H   0  0  0  0  0  0  0  0  0  0  0  0
   -1.4103    2.1279    0.5224 H   0  0  0  0  0  0  0  0  0  0  0  0
   -3.8385    1.7236    0.5094 H   0  0  0  0  0  0  0  0  0  0  0  0
    0.5736   -2.4338    1.1959 H   0  0  0  0  0  0  0  0  0  0  0  0
   -0.9397   -3.2267   -0.5129 H   0  0  0  0  0  0  0  0  0  0  0  0
   -0.1968   -2.1722   -1.7354 H   0  0  0  0  0  0  0  0  0  0  0  0
    1.4131   -4.0757   -0.3638 H   0  0  0  0  0  0  0  0  0  0  0  0
    2.7946   -3.2212    1.4835 H   0  0  0  0  0  0  0  0  0  0  0  0
    3.6942   -3.8888    0.1046 H   0  0  0  0  0  0  0  0  0  0  0  0
    4.4020   -1.5826    1.0806 H   0  0  0  0  0  0  0  0  0  0  0  0
    4.3203   -1.7893   -0.6778 H   0  0  0  0  0  0  0  0  0  0  0  0
    4.3538    0.8278    0.1287 H   0  0  0  0  0  0  0  0  0  0  0  0
    1.5079    3.8309   -1.5596 H   0  0  0  0  0  0  0  0  0  0  0  0
    1.3595    4.7154   -0.0074 H   0  0  0  0  0  0  0  0  0  0  0  0
  1  2  1  0  0  0  0
  2  3  1  0  0  0  0
  3  4  2  0  0  0  0
  4  5  1  0  0  0  0
  5  6  2  0  0  0  0
  6  7  1  0  0  0  0
  7  8  2  0  0  0  0
  3  8  1  0  0  0  0
  6  9  1  0  0  0  0
  9 10  2  0  0  0  0
 10 11  1  0  0  0  0
 11 12  1  0  0  0  0
  5 12  1  0  0  0  0
 11 13  1  0  0  0  0
 13 14  1  0  0  0  0
 14 15  1  0  0  0  0
 15 16  1  0  0  0  0
 10 16  1  0  0  0  0
 16 17  2  0  0  0  0
 17 18  1  0  0  0  0
 18 19  2  0  0  0  0
  9 19  1  0  0  0  0
 19 20  1  0  0  0  0
 20 21  1  0  0  0  0
 21 22  1  0  0  0  0
 18 22  1  0  0  0  0
  1 23  1  0  0  0  0
  1 24  1  0  0  0  0
  1 25  1  0  0  0  0
  4 26  1  0  0  0  0
  7 27  1  0  0  0  0
  8 28  1  0  0  0  0
 11 29  1  0  0  0  0
 12 30  1  0  0  0  0
 12 31  1  0  0  0  0
 13 32  1  0  0  0  0
 14 33  1  0  0  0  0
 14 34  1  0  0  0  0
 15 35  1  0  0  0  0
 15 36  1  0  0  0  0
 17 37  1  0  0  0  0
 21 38  1  0  0  0  0
 21 39  1  0  0  0  0
M  END
$$$$
