C16H14O5
APtclcactv06211806413D 0   0.00000     0.00000
 
 35 38  0  0  0  0  0  0  0  0999 V2000
   -5.4624    1.7158    0.2542 C   0  0  0  0  0  0  0  0  0  0  0  0
   -4.4451    0.7235   -0.3125 C   0  0  0  0  0  0  0  0  0  0  0  0
   -3.2770    0.3094    0.5847 C   0  0  0  0  0  0  0  0  0  0  0  0
   -4.3663   -0.5684    0.2932 O   0  0  0  0  0  0  0  0  0  0  0  0
   -1.9313    0.0221   -0.0841 C   0  0  0  0  0  0  0  0  0  0  0  0
   -0.9456   -0.2324    0.9187 O   0  0  0  0  0  0  0  0  0  0  0  0
    0.3118   -0.5067    0.4907 C   0  0  0  0  0  0  0  0  0  0  0  0
    1.2378    0.5271    0.3017 C   0  0  0  0  0  0  0  0  0  0  0  0
    0.8696    1.9191    0.5611 C   0  0  0  0  0  0  0  0  0  0  0  0
    1.8094    2.8803    0.3608 C   0  0  0  0  0  0  0  0  0  0  0  0
    3.0965    2.5200   -0.0850 C   0  0  0  0  0  0  0  0  0  0  0  0
    3.9287    3.3921   -0.2598 O   0  0  0  0  0  0  0  0  0  0  0  0
    3.4305    1.2419   -0.3218 O   0  0  0  0  0  0  0  0  0  0  0  0
    2.5449    0.2352   -0.1434 C   0  0  0  0  0  0  0  0  0  0  0  0
    2.9143   -1.0728   -0.3951 C   0  0  0  0  0  0  0  0  0  0  0  0
    2.0027   -2.1058   -0.2121 C   0  0  0  0  0  0  0  0  0  0  0  0
    0.7006   -1.8217    0.2388 C   0  0  0  0  0  0  0  0  0  0  0  0
    0.0198   -3.1212    0.3192 C   0  0  0  0  0  0  0  0  0  0  0  0
    0.9167   -4.0363   -0.0686 C   0  0  0  0  0  0  0  0  0  0  0  0
    2.0843   -3.4421   -0.3752 O   0  0  0  0  0  0  0  0  0  0  0  0
   -4.1875    0.8235   -1.8174 C   0  0  0  0  0  0  0  0  0  0  0  0
   -4.9572    2.6465    0.5126 H   0  0  0  0  0  0  0  0  0  0  0  0
   -6.2309    1.9148   -0.4928 H   0  0  0  0  0  0  0  0  0  0  0  0
   -5.9240    1.2931    1.1466 H   0  0  0  0  0  0  0  0  0  0  0  0
   -3.2263    0.7414    1.5842 H   0  0  0  0  0  0  0  0  0  0  0  0
   -2.0257   -0.8504   -0.7305 H   0  0  0  0  0  0  0  0  0  0  0  0
   -1.6299    0.8842   -0.6792 H   0  0  0  0  0  0  0  0  0  0  0  0
   -0.1224    2.1759    0.9022 H   0  0  0  0  0  0  0  0  0  0  0  0
    1.5701    3.9177    0.5426 H   0  0  0  0  0  0  0  0  0  0  0  0
    3.9152   -1.2929   -0.7356 H   0  0  0  0  0  0  0  0  0  0  0  0
   -0.9988   -3.3019    0.6293 H   0  0  0  0  0  0  0  0  0  0  0  0
    0.7314   -5.0989   -0.1227 H   0  0  0  0  0  0  0  0  0  0  0  0
   -3.4254    1.5795   -2.0061 H   0  0  0  0  0  0  0  0  0  0  0  0
   -3.8435   -0.1406   -2.1919 H   0  0  0  0  0  0  0  0  0  0  0  0
   -5.1102    1.1027   -2.3261 H   0  0  0  0  0  0  0  0  0  0  0  0
  1  2  1  0  0  0  0
  2  3  1  0  0  0  0
  3  4  1  0  0  0  0
  2  4  1  0  0  0  0
  3  5  1  0  0  0  0
  5  6  1  0  0  0  0
  6  7  1  0  0  0  0
  7  8  2  0  0  0  0
  8  9  1  0  0  0  0
  9 10  2  0  0  0  0
 10 11  1  0  0  0  0
 11 12  2  0  0  0  0
 11 13  1  0  0  0  0
 13 14  1  0  0  0  0
  8 14  1  0  0  0  0
 14 15  2  0  0  0  0
 15 16  1  0  0  0  0
 16 17  2  0  0  0  0
  7 17  1  0  0  0  0
 17 18  1  0  0  0  0
 18 19  2  0  0  0  0
 19 20  1  0  0  0  0
 16 20  1  0  0  0  0
  2 21  1  0  0  0  0
  1 22  1  0  0  0  0
  1 23  1  0  0  0  0
  1 24  1  0  0  0  0
  3 25  1  0  0  0  0
  5 26  1  0  0  0  0
  5 27  1  0  0  0  0
  9 28  1  0  0  0  0
 10 29  1  0  0  0  0
 15 30  1  0  0  0  0
 18 31  1  0  0  0  0
 19 32  1  0  0  0  0
 21 33  1  0  0  0  0
 21 34  1  0  0  0  0
 21 35  1  0  0  0  0
M  END
$$$$
