C11H8O4
APtclcactv06211806413D 0   0.00000     0.00000
 
 23 24  0  0  0  0  0  0  0  0999 V2000
    2.4020    2.9670   -0.0011 C   0  0  0  0  0  0  0  0  0  0  0  0
    2.6449    1.5588   -0.0006 O   0  0  0  0  0  0  0  0  0  0  0  0
    1.5597    0.7473   -0.0006 C   0  0  0  0  0  0  0  0  0  0  0  0
    1.7303   -0.6522   -0.0001 C   0  0  0  0  0  0  0  0  0  0  0  0
    0.6137   -1.4880    0.0004 C   0  0  0  0  0  0  0  0  0  0  0  0
   -0.6632   -0.9294    0.0004 C   0  0  0  0  0  0  0  0  0  0  0  0
   -1.8557   -1.7821    0.0004 C   0  0  0  0  0  0  0  0  0  0  0  0
   -3.0735   -1.1821   -0.0001 C   0  0  0  0  0  0  0  0  0  0  0  0
   -3.1620    0.2258   -0.0007 C   0  0  0  0  0  0  0  0  0  0  0  0
   -4.2608    0.7507   -0.0007 O   0  0  0  0  0  0  0  0  0  0  0  0
   -2.0671    1.0021   -0.0007 O   0  0  0  0  0  0  0  0  0  0  0  0
   -0.8255    0.4720   -0.0002 C   0  0  0  0  0  0  0  0  0  0  0  0
    0.2906    1.2958    0.0047 C   0  0  0  0  0  0  0  0  0  0  0  0
    3.0796   -1.2283   -0.0006 C   0  0  0  0  0  0  0  0  0  0  0  0
    3.2249   -2.4326   -0.0002 O   0  0  0  0  0  0  0  0  0  0  0  0
    1.8341    3.2374   -0.8913 H   0  0  0  0  0  0  0  0  0  0  0  0
    1.8336    3.2380    0.8887 H   0  0  0  0  0  0  0  0  0  0  0  0
    3.3529    3.4998   -0.0010 H   0  0  0  0  0  0  0  0  0  0  0  0
    0.7377   -2.5608    0.0004 H   0  0  0  0  0  0  0  0  0  0  0  0
   -1.7679   -2.8585    0.0004 H   0  0  0  0  0  0  0  0  0  0  0  0
   -3.9722   -1.7810   -0.0005 H   0  0  0  0  0  0  0  0  0  0  0  0
    0.1677    2.3688    0.0081 H   0  0  0  0  0  0  0  0  0  0  0  0
    3.9434   -0.5801   -0.0013 H   0  0  0  0  0  0  0  0  0  0  0  0
  1  2  1  0  0  0  0
  2  3  1  0  0  0  0
  3  4  2  0  0  0  0
  4  5  1  0  0  0  0
  5  6  2  0  0  0  0
  6  7  1  0  0  0  0
  7  8  2  0  0  0  0
  8  9  1  0  0  0  0
  9 10  2  0  0  0  0
  9 11  1  0  0  0  0
 11 12  1  0  0  0  0
  6 12  1  0  0  0  0
 12 13  2  0  0  0  0
  3 13  1  0  0  0  0
  4 14  1  0  0  0  0
 14 15  2  0  0  0  0
  1 16  1  0  0  0  0
  1 17  1  0  0  0  0
  1 18  1  0  0  0  0
  5 19  1  0  0  0  0
  7 20  1  0  0  0  0
  8 21  1  0  0  0  0
 13 22  1  0  0  0  0
 14 23  1  0  0  0  0
M  END
$$$$
