C26H52NO7P
APtclcactv06291802413D 0   0.00000     0.00000
 
 87 86  0  0  0  0  0  0  0  0999 V2000
  -16.4715    4.9170   -0.0147 C   0  0  0  0  0  0  0  0  0  0  0  0
  -16.1109    3.4720    0.3357 C   0  0  0  0  0  0  0  0  0  0  0  0
  -14.7365    3.1341   -0.2454 C   0  0  0  0  0  0  0  0  0  0  0  0
  -14.3759    1.6891    0.1050 C   0  0  0  0  0  0  0  0  0  0  0  0
  -13.0014    1.3512   -0.4761 C   0  0  0  0  0  0  0  0  0  0  0  0
  -12.6408   -0.0938   -0.1257 C   0  0  0  0  0  0  0  0  0  0  0  0
  -11.2664   -0.4317   -0.7068 C   0  0  0  0  0  0  0  0  0  0  0  0
  -10.9057   -1.8767   -0.3564 C   0  0  0  0  0  0  0  0  0  0  0  0
   -9.5520   -2.2095   -0.9288 C   0  0  0  0  0  0  0  0  0  0  0  0
   -8.6041   -2.6642   -0.1471 C   0  0  0  0  0  0  0  0  0  0  0  0
   -7.2504   -2.9970   -0.7195 C   0  0  0  0  0  0  0  0  0  0  0  0
   -6.1704   -2.2295    0.0457 C   0  0  0  0  0  0  0  0  0  0  0  0
   -4.7960   -2.5673   -0.5354 C   0  0  0  0  0  0  0  0  0  0  0  0
   -3.7161   -1.7998    0.2298 C   0  0  0  0  0  0  0  0  0  0  0  0
   -2.3416   -2.1377   -0.3513 C   0  0  0  0  0  0  0  0  0  0  0  0
   -1.2617   -1.3701    0.4139 C   0  0  0  0  0  0  0  0  0  0  0  0
    0.1127   -1.7080   -0.1672 C   0  0  0  0  0  0  0  0  0  0  0  0
    1.1764   -0.9520    0.5865 C   0  0  0  0  0  0  0  0  0  0  0  0
    0.8669   -0.2182    1.4952 O   0  0  0  0  0  0  0  0  0  0  0  0
    2.4676   -1.0938    0.2483 O   0  0  0  0  0  0  0  0  0  0  0  0
    3.4377   -0.3351    1.0176 C   0  0  0  0  0  0  0  0  0  0  0  0
    4.8447   -0.6236    0.4905 C   0  0  0  0  0  0  0  0  0  0  0  0
    5.8541    0.2681    1.2164 C   0  0  0  0  0  0  0  0  0  0  0  0
    7.1506    0.0833    0.6447 O   0  0  0  0  0  0  0  0  0  0  0  0
    8.4579    0.8663    1.1643 P   0  0  0  0  0  0  0  0  0  0  0  0
    8.1952    2.3884    1.1271 O   0  0  0  0  0  0  0  0  0  0  0  0
    8.7753    0.4338    2.6132 O   0  5  0  0  0  0  0  0  0  0  0  0
    9.7080    0.5140    0.2130 O   0  0  0  0  0  0  0  0  0  0  0  0
   10.9888    1.1329    0.3497 C   0  0  0  0  0  0  0  0  0  0  0  0
   11.9418    0.5717   -0.7075 C   0  0  0  0  0  0  0  0  0  0  0  0
   11.4877    0.9814   -2.0431 N   0  3  0  0  0  0  0  0  0  0  0  0
   11.3445    2.4428   -2.0846 C   0  0  0  0  0  0  0  0  0  0  0  0
   12.4728    0.5572   -3.0468 C   0  0  0  0  0  0  0  0  0  0  0  0
   10.1915    0.3540   -2.3334 C   0  0  0  0  0  0  0  0  0  0  0  0
    5.1682   -1.9960    0.7227 O   0  0  0  0  0  0  0  0  0  0  0  0
  -15.7241    5.5901    0.4052 H   0  0  0  0  0  0  0  0  0  0  0  0
  -16.4967    5.0327   -1.0983 H   0  0  0  0  0  0  0  0  0  0  0  0
  -17.4507    5.1577    0.3993 H   0  0  0  0  0  0  0  0  0  0  0  0
  -16.0857    3.3563    1.4192 H   0  0  0  0  0  0  0  0  0  0  0  0
  -16.8584    2.7989   -0.0843 H   0  0  0  0  0  0  0  0  0  0  0  0
  -14.7617    3.2498   -1.3290 H   0  0  0  0  0  0  0  0  0  0  0  0
  -13.9890    3.8072    0.1745 H   0  0  0  0  0  0  0  0  0  0  0  0
  -14.3506    1.5734    1.1885 H   0  0  0  0  0  0  0  0  0  0  0  0
  -15.1233    1.0160   -0.3150 H   0  0  0  0  0  0  0  0  0  0  0  0
  -13.0266    1.4669   -1.5597 H   0  0  0  0  0  0  0  0  0  0  0  0
  -12.2539    2.0243   -0.0562 H   0  0  0  0  0  0  0  0  0  0  0  0
  -12.6156   -0.2095    0.9578 H   0  0  0  0  0  0  0  0  0  0  0  0
  -13.3883   -0.7669   -0.5457 H   0  0  0  0  0  0  0  0  0  0  0  0
  -11.2916   -0.3160   -1.7904 H   0  0  0  0  0  0  0  0  0  0  0  0
  -10.5189    0.2414   -0.2869 H   0  0  0  0  0  0  0  0  0  0  0  0
  -10.8805   -1.9924    0.7271 H   0  0  0  0  0  0  0  0  0  0  0  0
  -11.6532   -2.5498   -0.7764 H   0  0  0  0  0  0  0  0  0  0  0  0
   -9.3632   -2.0732   -1.9834 H   0  0  0  0  0  0  0  0  0  0  0  0
   -8.7929   -2.8005    0.9075 H   0  0  0  0  0  0  0  0  0  0  0  0
   -7.0699   -4.0679   -0.6265 H   0  0  0  0  0  0  0  0  0  0  0  0
   -7.2211   -2.7136   -1.7716 H   0  0  0  0  0  0  0  0  0  0  0  0
   -6.3509   -1.1585   -0.0473 H   0  0  0  0  0  0  0  0  0  0  0  0
   -6.1997   -2.5128    1.0978 H   0  0  0  0  0  0  0  0  0  0  0  0
   -4.6155   -3.6383   -0.4424 H   0  0  0  0  0  0  0  0  0  0  0  0
   -4.7667   -2.2840   -1.5875 H   0  0  0  0  0  0  0  0  0  0  0  0
   -3.8966   -0.7289    0.1368 H   0  0  0  0  0  0  0  0  0  0  0  0
   -3.7454   -2.0832    1.2819 H   0  0  0  0  0  0  0  0  0  0  0  0
   -2.1611   -3.2086   -0.2583 H   0  0  0  0  0  0  0  0  0  0  0  0
   -2.3123   -1.8543   -1.4034 H   0  0  0  0  0  0  0  0  0  0  0  0
   -1.4422   -0.2992    0.3209 H   0  0  0  0  0  0  0  0  0  0  0  0
   -1.2910   -1.6535    1.4660 H   0  0  0  0  0  0  0  0  0  0  0  0
    0.2932   -2.7789   -0.0742 H   0  0  0  0  0  0  0  0  0  0  0  0
    0.1420   -1.4246   -1.2193 H   0  0  0  0  0  0  0  0  0  0  0  0
    3.2250    0.7297    0.9215 H   0  0  0  0  0  0  0  0  0  0  0  0
    3.3761   -0.6247    2.0666 H   0  0  0  0  0  0  0  0  0  0  0  0
    4.8814   -0.4176   -0.5792 H   0  0  0  0  0  0  0  0  0  0  0  0
    5.5569    1.3117    1.1134 H   0  0  0  0  0  0  0  0  0  0  0  0
    5.8814    0.0007    2.2728 H   0  0  0  0  0  0  0  0  0  0  0  0
   10.8884    2.2097    0.2135 H   0  0  0  0  0  0  0  0  0  0  0  0
   11.3871    0.9280    1.3434 H   0  0  0  0  0  0  0  0  0  0  0  0
   12.9465    0.9561   -0.5316 H   0  0  0  0  0  0  0  0  0  0  0  0
   11.9531   -0.5165   -0.6455 H   0  0  0  0  0  0  0  0  0  0  0  0
   12.3062    2.9084   -1.8692 H   0  0  0  0  0  0  0  0  0  0  0  0
   11.0075    2.7469   -3.0757 H   0  0  0  0  0  0  0  0  0  0  0  0
   10.6135    2.7576   -1.3399 H   0  0  0  0  0  0  0  0  0  0  0  0
   12.5791   -0.5272   -3.0160 H   0  0  0  0  0  0  0  0  0  0  0  0
   12.1358    0.8612   -4.0378 H   0  0  0  0  0  0  0  0  0  0  0  0
   13.4346    1.0228   -2.8314 H   0  0  0  0  0  0  0  0  0  0  0  0
    9.4191    0.8138   -1.7169 H   0  0  0  0  0  0  0  0  0  0  0  0
    9.9476    0.4945   -3.3864 H   0  0  0  0  0  0  0  0  0  0  0  0
   10.2462   -0.7120   -2.1122 H   0  0  0  0  0  0  0  0  0  0  0  0
    5.1550   -2.2509    1.6554 H   0  0  0  0  0  0  0  0  0  0  0  0
  1  2  1  0  0  0  0
  2  3  1  0  0  0  0
  3  4  1  0  0  0  0
  4  5  1  0  0  0  0
  5  6  1  0  0  0  0
  6  7  1  0  0  0  0
  7  8  1  0  0  0  0
  8  9  1  0  0  0  0
  9 10  2  0  0  0  0
 10 11  1  0  0  0  0
 11 12  1  0  0  0  0
 12 13  1  0  0  0  0
 13 14  1  0  0  0  0
 14 15  1  0  0  0  0
 15 16  1  0  0  0  0
 16 17  1  0  0  0  0
 17 18  1  0  0  0  0
 18 19  2  0  0  0  0
 18 20  1  0  0  0  0
 20 21  1  0  0  0  0
 21 22  1  0  0  0  0
 22 23  1  0  0  0  0
 23 24  1  0  0  0  0
 24 25  1  0  0  0  0
 25 26  2  0  0  0  0
 25 27  1  0  0  0  0
 25 28  1  0  0  0  0
 28 29  1  0  0  0  0
 29 30  1  0  0  0  0
 30 31  1  0  0  0  0
 31 32  1  0  0  0  0
 31 33  1  0  0  0  0
 31 34  1  0  0  0  0
 22 35  1  0  0  0  0
  1 36  1  0  0  0  0
  1 37  1  0  0  0  0
  1 38  1  0  0  0  0
  2 39  1  0  0  0  0
  2 40  1  0  0  0  0
  3 41  1  0  0  0  0
  3 42  1  0  0  0  0
  4 43  1  0  0  0  0
  4 44  1  0  0  0  0
  5 45  1  0  0  0  0
  5 46  1  0  0  0  0
  6 47  1  0  0  0  0
  6 48  1  0  0  0  0
  7 49  1  0  0  0  0
  7 50  1  0  0  0  0
  8 51  1  0  0  0  0
  8 52  1  0  0  0  0
  9 53  1  0  0  0  0
 10 54  1  0  0  0  0
 11 55  1  0  0  0  0
 11 56  1  0  0  0  0
 12 57  1  0  0  0  0
 12 58  1  0  0  0  0
 13 59  1  0  0  0  0
 13 60  1  0  0  0  0
 14 61  1  0  0  0  0
 14 62  1  0  0  0  0
 15 63  1  0  0  0  0
 15 64  1  0  0  0  0
 16 65  1  0  0  0  0
 16 66  1  0  0  0  0
 17 67  1  0  0  0  0
 17 68  1  0  0  0  0
 21 69  1  0  0  0  0
 21 70  1  0  0  0  0
 22 71  1  0  0  0  0
 23 72  1  0  0  0  0
 23 73  1  0  0  0  0
 29 74  1  0  0  0  0
 29 75  1  0  0  0  0
 30 76  1  0  0  0  0
 30 77  1  0  0  0  0
 32 78  1  0  0  0  0
 32 79  1  0  0  0  0
 32 80  1  0  0  0  0
 33 81  1  0  0  0  0
 33 82  1  0  0  0  0
 33 83  1  0  0  0  0
 34 84  1  0  0  0  0
 34 85  1  0  0  0  0
 34 86  1  0  0  0  0
 35 87  1  0  0  0  0
M  CHG  2  27  -1  31   1
M  END
$$$$
