C20H18NO4
APtclcactv06211806413D 0   0.00000     0.00000
 
 43 47  0  0  0  0  0  0  0  0999 V2000
    6.3314    1.4518    0.3413 C   0  0  0  0  0  0  0  0  0  0  0  0
    5.7035    0.1804    0.1638 O   0  0  0  0  0  0  0  0  0  0  0  0
    4.3455    0.1659    0.1027 C   0  0  0  0  0  0  0  0  0  0  0  0
    3.6708   -1.0403   -0.0691 C   0  0  0  0  0  0  0  0  0  0  0  0
    2.2882   -1.0572   -0.1381 C   0  0  0  0  0  0  0  0  0  0  0  0
    1.5793    0.1343   -0.0355 C   0  0  0  0  0  0  0  0  0  0  0  0
    2.2590    1.3388    0.1504 C   0  0  0  0  0  0  0  0  0  0  0  0
    3.6348    1.3526    0.2175 C   0  0  0  0  0  0  0  0  0  0  0  0
    1.4640    2.6094    0.3004 C   0  0  0  0  0  0  0  0  0  0  0  0
    0.2114    2.5389   -0.5675 C   0  0  0  0  0  0  0  0  0  0  0  0
   -0.5431    1.3071   -0.3099 N   0  3  0  0  0  0  0  0  0  0  0  0
    0.0963    0.1518   -0.0982 C   0  0  0  0  0  0  0  0  0  0  0  0
   -0.5926   -1.0348    0.0861 C   0  0  0  0  0  0  0  0  0  0  0  0
   -1.9959   -1.0119    0.0848 C   0  0  0  0  0  0  0  0  0  0  0  0
   -2.7629   -2.1724    0.2590 C   0  0  0  0  0  0  0  0  0  0  0  0
   -4.1224   -2.0916    0.2645 C   0  0  0  0  0  0  0  0  0  0  0  0
   -4.7742   -0.8668    0.0987 C   0  0  0  0  0  0  0  0  0  0  0  0
   -4.0487    0.2967   -0.0811 C   0  0  0  0  0  0  0  0  0  0  0  0
   -2.6431    0.2395   -0.0993 C   0  0  0  0  0  0  0  0  0  0  0  0
   -1.8577    1.3817   -0.3022 C   0  0  0  0  0  0  0  0  0  0  0  0
   -4.9144    1.3419   -0.2140 O   0  0  0  0  0  0  0  0  0  0  0  0
   -6.1747    0.8634    0.2920 C   0  0  0  0  0  0  0  0  0  0  0  0
   -6.1059   -0.5584    0.0762 O   0  0  0  0  0  0  0  0  0  0  0  0
    4.3706   -2.2020   -0.1696 O   0  0  0  0  0  0  0  0  0  0  0  0
    3.6144   -3.4018   -0.3447 C   0  0  0  0  0  0  0  0  0  0  0  0
    6.0686    2.1060   -0.4900 H   0  0  0  0  0  0  0  0  0  0  0  0
    5.9914    1.8976    1.2760 H   0  0  0  0  0  0  0  0  0  0  0  0
    7.4131    1.3215    0.3732 H   0  0  0  0  0  0  0  0  0  0  0  0
    1.7630   -1.9914   -0.2713 H   0  0  0  0  0  0  0  0  0  0  0  0
    4.1602    2.2866    0.3511 H   0  0  0  0  0  0  0  0  0  0  0  0
    1.1755    2.7356    1.3439 H   0  0  0  0  0  0  0  0  0  0  0  0
    2.0737    3.4575   -0.0114 H   0  0  0  0  0  0  0  0  0  0  0  0
   -0.4227    3.3984   -0.3503 H   0  0  0  0  0  0  0  0  0  0  0  0
    0.5022    2.5669   -1.6176 H   0  0  0  0  0  0  0  0  0  0  0  0
   -0.0590   -1.9630    0.2281 H   0  0  0  0  0  0  0  0  0  0  0  0
   -2.2769   -3.1282    0.3882 H   0  0  0  0  0  0  0  0  0  0  0  0
   -4.7068   -2.9897    0.3998 H   0  0  0  0  0  0  0  0  0  0  0  0
   -2.3374    2.3374   -0.4538 H   0  0  0  0  0  0  0  0  0  0  0  0
   -6.2710    1.0860    1.3547 H   0  0  0  0  0  0  0  0  0  0  0  0
   -7.0028    1.2970   -0.2685 H   0  0  0  0  0  0  0  0  0  0  0  0
    2.9443   -3.5361    0.5045 H   0  0  0  0  0  0  0  0  0  0  0  0
    3.0293   -3.3321   -1.2617 H   0  0  0  0  0  0  0  0  0  0  0  0
    4.2927   -4.2526   -0.4103 H   0  0  0  0  0  0  0  0  0  0  0  0
  1  2  1  0  0  0  0
  2  3  1  0  0  0  0
  3  4  2  0  0  0  0
  4  5  1  0  0  0  0
  5  6  2  0  0  0  0
  6  7  1  0  0  0  0
  7  8  2  0  0  0  0
  3  8  1  0  0  0  0
  7  9  1  0  0  0  0
  9 10  1  0  0  0  0
 10 11  1  0  0  0  0
 11 12  2  0  0  0  0
  6 12  1  0  0  0  0
 12 13  1  0  0  0  0
 13 14  2  0  0  0  0
 14 15  1  0  0  0  0
 15 16  2  0  0  0  0
 16 17  1  0  0  0  0
 17 18  2  0  0  0  0
 18 19  1  0  0  0  0
 14 19  1  0  0  0  0
 19 20  2  0  0  0  0
 11 20  1  0  0  0  0
 18 21  1  0  0  0  0
 21 22  1  0  0  0  0
 22 23  1  0  0  0  0
 17 23  1  0  0  0  0
  4 24  1  0  0  0  0
 24 25  1  0  0  0  0
  1 26  1  0  0  0  0
  1 27  1  0  0  0  0
  1 28  1  0  0  0  0
  5 29  1  0  0  0  0
  8 30  1  0  0  0  0
  9 31  1  0  0  0  0
  9 32  1  0  0  0  0
 10 33  1  0  0  0  0
 10 34  1  0  0  0  0
 13 35  1  0  0  0  0
 15 36  1  0  0  0  0
 16 37  1  0  0  0  0
 20 38  1  0  0  0  0
 22 39  1  0  0  0  0
 22 40  1  0  0  0  0
 25 41  1  0  0  0  0
 25 42  1  0  0  0  0
 25 43  1  0  0  0  0
M  CHG  1  11   1
M  END
$$$$
