C26H28O14
APtclcactv06291802413D 0   0.00000     0.00000
 
 68 72  0  0  0  0  0  0  0  0999 V2000
   -1.8545    3.1060    2.5765 C   0  0  0  0  0  0  0  0  0  0  0  0
   -0.9898    2.5772    1.4304 C   0  0  0  0  0  0  0  0  0  0  0  0
    0.0543    3.6304    1.0507 C   0  0  0  0  0  0  0  0  0  0  0  0
    0.9539    3.0707   -0.0556 C   0  0  0  0  0  0  0  0  0  0  0  0
    1.5937    1.7673    0.4324 C   0  0  0  0  0  0  0  0  0  0  0  0
    0.4901    0.7860    0.8360 C   0  0  0  0  0  0  0  0  0  0  0  0
   -0.3282    1.3805    1.8455 O   0  0  0  0  0  0  0  0  0  0  0  0
   -0.3116    0.4748   -0.3052 O   0  0  0  0  0  0  0  0  0  0  0  0
   -1.1291   -0.6089   -0.2090 C   0  0  0  0  0  0  0  0  0  0  0  0
   -2.4808   -0.4593   -0.2937 C   0  0  0  0  0  0  0  0  0  0  0  0
   -3.3282   -1.4988   -0.2049 O   0  0  0  0  0  0  0  0  0  0  0  0
   -2.8997   -2.7658   -0.0256 C   0  0  0  0  0  0  0  0  0  0  0  0
   -3.8028   -3.8141    0.0608 C   0  0  0  0  0  0  0  0  0  0  0  0
   -3.3465   -5.1100    0.2452 C   0  0  0  0  0  0  0  0  0  0  0  0
   -1.9851   -5.3749    0.3454 C   0  0  0  0  0  0  0  0  0  0  0  0
   -1.0687   -4.3430    0.2612 C   0  0  0  0  0  0  0  0  0  0  0  0
   -1.5224   -3.0309    0.0749 C   0  0  0  0  0  0  0  0  0  0  0  0
   -0.5805   -1.9046   -0.0255 C   0  0  0  0  0  0  0  0  0  0  0  0
    0.6255   -2.0779    0.0500 O   0  0  0  0  0  0  0  0  0  0  0  0
    0.2604   -4.5994    0.3593 O   0  0  0  0  0  0  0  0  0  0  0  0
   -4.2377   -6.1308    0.3292 O   0  0  0  0  0  0  0  0  0  0  0  0
   -3.0344    0.8932   -0.4895 C   0  0  0  0  0  0  0  0  0  0  0  0
   -2.5254    1.7202   -1.4950 C   0  0  0  0  0  0  0  0  0  0  0  0
   -3.0456    2.9830   -1.6743 C   0  0  0  0  0  0  0  0  0  0  0  0
   -4.0744    3.4353   -0.8571 C   0  0  0  0  0  0  0  0  0  0  0  0
   -4.5831    2.6169    0.1440 C   0  0  0  0  0  0  0  0  0  0  0  0
   -4.0736    1.3502    0.3262 C   0  0  0  0  0  0  0  0  0  0  0  0
   -4.5839    4.6811   -1.0371 O   0  0  0  0  0  0  0  0  0  0  0  0
    2.3783    1.1981   -0.6176 O   0  0  0  0  0  0  0  0  0  0  0  0
    3.4992    0.4393   -0.1597 C   0  0  0  0  0  0  0  0  0  0  0  0
    4.1903   -0.2224   -1.3548 C   0  0  0  0  0  0  0  0  0  0  0  0
    5.4250   -0.9842   -0.8631 C   0  0  0  0  0  0  0  0  0  0  0  0
    6.3489   -0.0129   -0.1219 C   0  0  0  0  0  0  0  0  0  0  0  0
    5.5744    0.6407    1.0256 C   0  0  0  0  0  0  0  0  0  0  0  0
    4.4225    1.3056    0.5031 O   0  0  0  0  0  0  0  0  0  0  0  0
    7.4694   -0.7270    0.4040 O   0  0  0  0  0  0  0  0  0  0  0  0
    5.0202   -2.0295    0.0232 O   0  0  0  0  0  0  0  0  0  0  0  0
    3.2870   -1.1330   -1.9848 O   0  0  0  0  0  0  0  0  0  0  0  0
    0.1712    2.8113   -1.2227 O   0  0  0  0  0  0  0  0  0  0  0  0
   -0.6044    4.8081    0.5804 O   0  0  0  0  0  0  0  0  0  0  0  0
   -2.3583    4.0194    2.2601 H   0  0  0  0  0  0  0  0  0  0  0  0
   -2.5979    2.3560    2.8468 H   0  0  0  0  0  0  0  0  0  0  0  0
   -1.2234    3.3194    3.4393 H   0  0  0  0  0  0  0  0  0  0  0  0
   -1.6208    2.3634    0.5678 H   0  0  0  0  0  0  0  0  0  0  0  0
    0.6596    3.8746    1.9237 H   0  0  0  0  0  0  0  0  0  0  0  0
    1.7344    3.7939   -0.2917 H   0  0  0  0  0  0  0  0  0  0  0  0
    2.2301    1.9738    1.2929 H   0  0  0  0  0  0  0  0  0  0  0  0
    0.9402   -0.1276    1.2244 H   0  0  0  0  0  0  0  0  0  0  0  0
   -4.8627   -3.6209   -0.0152 H   0  0  0  0  0  0  0  0  0  0  0  0
   -1.6427   -6.3889    0.4898 H   0  0  0  0  0  0  0  0  0  0  0  0
    0.6890   -4.7836   -0.4878 H   0  0  0  0  0  0  0  0  0  0  0  0
   -4.4530   -6.5360   -0.5220 H   0  0  0  0  0  0  0  0  0  0  0  0
   -1.7253    1.3697   -2.1302 H   0  0  0  0  0  0  0  0  0  0  0  0
   -2.6530    3.6226   -2.4509 H   0  0  0  0  0  0  0  0  0  0  0  0
   -5.3823    2.9729    0.7773 H   0  0  0  0  0  0  0  0  0  0  0  0
   -4.4698    0.7146    1.1043 H   0  0  0  0  0  0  0  0  0  0  0  0
   -5.3253    4.7171   -1.6570 H   0  0  0  0  0  0  0  0  0  0  0  0
    3.1589   -0.3291    0.5346 H   0  0  0  0  0  0  0  0  0  0  0  0
    4.4948    0.5427   -2.0689 H   0  0  0  0  0  0  0  0  0  0  0  0
    5.9533   -1.4113   -1.7156 H   0  0  0  0  0  0  0  0  0  0  0  0
    6.6970    0.7564   -0.8112 H   0  0  0  0  0  0  0  0  0  0  0  0
    5.2615   -0.1250    1.7354 H   0  0  0  0  0  0  0  0  0  0  0  0
    6.2144    1.3646    1.5301 H   0  0  0  0  0  0  0  0  0  0  0  0
    8.0976   -0.1728    0.8870 H   0  0  0  0  0  0  0  0  0  0  0  0
    5.7532   -2.5540    0.3735 H   0  0  0  0  0  0  0  0  0  0  0  0
    2.4787   -0.7187   -2.3166 H   0  0  0  0  0  0  0  0  0  0  0  0
   -0.2695    3.5932   -1.5825 H   0  0  0  0  0  0  0  0  0  0  0  0
   -1.1954    5.2139    1.2293 H   0  0  0  0  0  0  0  0  0  0  0  0
  1  2  1  0  0  0  0
  2  3  1  0  0  0  0
  3  4  1  0  0  0  0
  4  5  1  0  0  0  0
  5  6  1  0  0  0  0
  6  7  1  0  0  0  0
  2  7  1  0  0  0  0
  6  8  1  0  0  0  0
  8  9  1  0  0  0  0
  9 10  2  0  0  0  0
 10 11  1  0  0  0  0
 11 12  1  0  0  0  0
 12 13  2  0  0  0  0
 13 14  1  0  0  0  0
 14 15  2  0  0  0  0
 15 16  1  0  0  0  0
 16 17  2  0  0  0  0
 12 17  1  0  0  0  0
 17 18  1  0  0  0  0
  9 18  1  0  0  0  0
 18 19  2  0  0  0  0
 16 20  1  0  0  0  0
 14 21  1  0  0  0  0
 10 22  1  0  0  0  0
 22 23  2  0  0  0  0
 23 24  1  0  0  0  0
 24 25  2  0  0  0  0
 25 26  1  0  0  0  0
 26 27  2  0  0  0  0
 22 27  1  0  0  0  0
 25 28  1  0  0  0  0
  5 29  1  0  0  0  0
 29 30  1  0  0  0  0
 30 31  1  0  0  0  0
 31 32  1  0  0  0  0
 32 33  1  0  0  0  0
 33 34  1  0  0  0  0
 34 35  1  0  0  0  0
 30 35  1  0  0  0  0
 33 36  1  0  0  0  0
 32 37  1  0  0  0  0
 31 38  1  0  0  0  0
  4 39  1  0  0  0  0
  3 40  1  0  0  0  0
  1 41  1  0  0  0  0
  1 42  1  0  0  0  0
  1 43  1  0  0  0  0
  2 44  1  0  0  0  0
  3 45  1  0  0  0  0
  4 46  1  0  0  0  0
  5 47  1  0  0  0  0
  6 48  1  0  0  0  0
 13 49  1  0  0  0  0
 15 50  1  0  0  0  0
 20 51  1  0  0  0  0
 21 52  1  0  0  0  0
 23 53  1  0  0  0  0
 24 54  1  0  0  0  0
 26 55  1  0  0  0  0
 27 56  1  0  0  0  0
 28 57  1  0  0  0  0
 30 58  1  0  0  0  0
 31 59  1  0  0  0  0
 32 60  1  0  0  0  0
 33 61  1  0  0  0  0
 34 62  1  0  0  0  0
 34 63  1  0  0  0  0
 36 64  1  0  0  0  0
 37 65  1  0  0  0  0
 38 66  1  0  0  0  0
 39 67  1  0  0  0  0
 40 68  1  0  0  0  0
M  END
$$$$
