Na2O5SiZr
APtclcactv06211806413D 0   0.00000     0.00000
 
  9  4  0  0  0  0  0  0  0  0999 V2000
  -23.3693    0.1701   -0.0164 O   0  6  0  0  0  0  0  0  0  0  0  0
  -13.9339   -0.1582    0.9612 O   0  5  0  0  0  0  0  0  0  0  0  0
  -12.6244   -0.0070    0.0007 Si  0  0  0  0  0  0  0  0  0  0  0  0
  -12.3821   -1.4006   -0.8114 O   0  5  0  0  0  0  0  0  0  0  0  0
  -12.8668    1.2063   -1.0619 O   0  5  0  0  0  0  0  0  0  0  0  0
  -11.3149    0.3243    0.9148 O   0  5  0  0  0  0  0  0  0  0  0  0
   -1.8795   -0.1842    0.0177 Na  0  3  0  0  0  0  0  0  0  0  0  0
    6.7800   -0.0715    0.0069 Na  0  3  0  0  0  0  0  0  0  0  0  0
   15.4395    0.0412   -0.0040 Zr  0  0  0  0  0  0  0  0  0  0  0  0
  2  3  1  0  0  0  0
  3  4  1  0  0  0  0
  3  5  1  0  0  0  0
  3  6  1  0  0  0  0
M  CHG  8   1  -2   2  -1   4  -1   5  -1   6  -1   7   1   8   1   9   4
M  END
$$$$
