C18H16O7
APtclcactv06211806413D 0   0.00000     0.00000
 
 41 43  0  0  0  0  0  0  0  0999 V2000
    7.4848    0.2763   -0.4730 C   0  0  0  0  0  0  0  0  0  0  0  0
    6.6119   -0.6441    0.1849 O   0  0  0  0  0  0  0  0  0  0  0  0
    5.2836   -0.3660    0.1502 C   0  0  0  0  0  0  0  0  0  0  0  0
    4.3804   -1.2207    0.7708 C   0  0  0  0  0  0  0  0  0  0  0  0
    3.0318   -0.9427    0.7376 C   0  0  0  0  0  0  0  0  0  0  0  0
    2.5722    0.2012    0.0790 C   0  0  0  0  0  0  0  0  0  0  0  0
    3.4842    1.0583   -0.5434 C   0  0  0  0  0  0  0  0  0  0  0  0
    4.8314    0.7754   -0.5009 C   0  0  0  0  0  0  0  0  0  0  0  0
    1.1288    0.5028    0.0404 C   0  0  0  0  0  0  0  0  0  0  0  0
    0.7262    1.7945    0.1841 C   0  0  0  0  0  0  0  0  0  0  0  0
   -0.6538    2.1033    0.1494 C   0  0  0  0  0  0  0  0  0  0  0  0
   -1.0499    3.2509    0.2745 O   0  0  0  0  0  0  0  0  0  0  0  0
   -1.5942    0.9862   -0.0442 C   0  0  0  0  0  0  0  0  0  0  0  0
   -1.0735   -0.3121   -0.1823 C   0  0  0  0  0  0  0  0  0  0  0  0
    0.2631   -0.5067   -0.1405 O   0  0  0  0  0  0  0  0  0  0  0  0
   -1.9420   -1.3811   -0.3658 C   0  0  0  0  0  0  0  0  0  0  0  0
   -3.3122   -1.1624   -0.4119 C   0  0  0  0  0  0  0  0  0  0  0  0
   -3.8293    0.1242   -0.2751 C   0  0  0  0  0  0  0  0  0  0  0  0
   -2.9766    1.2005   -0.0906 C   0  0  0  0  0  0  0  0  0  0  0  0
   -3.4791    2.4563    0.0435 O   0  0  0  0  0  0  0  0  0  0  0  0
   -5.1752    0.3240   -0.3223 O   0  0  0  0  0  0  0  0  0  0  0  0
   -5.8848    0.2576    0.9163 C   0  0  0  0  0  0  0  0  0  0  0  0
   -4.1565   -2.2123   -0.5925 O   0  0  0  0  0  0  0  0  0  0  0  0
   -1.4493   -2.6432   -0.5008 O   0  0  0  0  0  0  0  0  0  0  0  0
   -1.2822   -3.4060    0.6960 C   0  0  0  0  0  0  0  0  0  0  0  0
    8.5154   -0.0631   -0.3697 H   0  0  0  0  0  0  0  0  0  0  0  0
    7.2247    0.3315   -1.5301 H   0  0  0  0  0  0  0  0  0  0  0  0
    7.3801    1.2627   -0.0212 H   0  0  0  0  0  0  0  0  0  0  0  0
    4.7364   -2.1044    1.2794 H   0  0  0  0  0  0  0  0  0  0  0  0
    2.3305   -1.6078    1.2195 H   0  0  0  0  0  0  0  0  0  0  0  0
    3.1332    1.9431   -1.0537 H   0  0  0  0  0  0  0  0  0  0  0  0
    5.5368    1.4371   -0.9815 H   0  0  0  0  0  0  0  0  0  0  0  0
    1.4554    2.5788    0.3241 H   0  0  0  0  0  0  0  0  0  0  0  0
   -3.6719    2.7072    0.9573 H   0  0  0  0  0  0  0  0  0  0  0  0
   -6.9453    0.4343    0.7374 H   0  0  0  0  0  0  0  0  0  0  0  0
   -5.7505   -0.7291    1.3595 H   0  0  0  0  0  0  0  0  0  0  0  0
   -5.4996    1.0170    1.5968 H   0  0  0  0  0  0  0  0  0  0  0  0
   -4.4482   -2.6285    0.2301 H   0  0  0  0  0  0  0  0  0  0  0  0
   -0.5896   -2.8908    1.3615 H   0  0  0  0  0  0  0  0  0  0  0  0
   -2.2462   -3.5195    1.1920 H   0  0  0  0  0  0  0  0  0  0  0  0
   -0.8836   -4.3895    0.4473 H   0  0  0  0  0  0  0  0  0  0  0  0
  1  2  1  0  0  0  0
  2  3  1  0  0  0  0
  3  4  2  0  0  0  0
  4  5  1  0  0  0  0
  5  6  2  0  0  0  0
  6  7  1  0  0  0  0
  7  8  2  0  0  0  0
  3  8  1  0  0  0  0
  6  9  1  0  0  0  0
  9 10  2  0  0  0  0
 10 11  1  0  0  0  0
 11 12  2  0  0  0  0
 11 13  1  0  0  0  0
 13 14  2  0  0  0  0
 14 15  1  0  0  0  0
  9 15  1  0  0  0  0
 14 16  1  0  0  0  0
 16 17  2  0  0  0  0
 17 18  1  0  0  0  0
 18 19  2  0  0  0  0
 13 19  1  0  0  0  0
 19 20  1  0  0  0  0
 18 21  1  0  0  0  0
 21 22  1  0  0  0  0
 17 23  1  0  0  0  0
 16 24  1  0  0  0  0
 24 25  1  0  0  0  0
  1 26  1  0  0  0  0
  1 27  1  0  0  0  0
  1 28  1  0  0  0  0
  4 29  1  0  0  0  0
  5 30  1  0  0  0  0
  7 31  1  0  0  0  0
  8 32  1  0  0  0  0
 10 33  1  0  0  0  0
 20 34  1  0  0  0  0
 22 35  1  0  0  0  0
 22 36  1  0  0  0  0
 22 37  1  0  0  0  0
 23 38  1  0  0  0  0
 25 39  1  0  0  0  0
 25 40  1  0  0  0  0
 25 41  1  0  0  0  0
M  END
$$$$
