C27H38O4
APtclcactv06291802423D 0   0.00000     0.00000
 
 69 70  0  0  0  0  0  0  0  0999 V2000
   11.2533   -1.8741   -2.1932 C   0  0  0  0  0  0  0  0  0  0  0  0
   10.3856   -0.7986   -1.8295 O   0  0  0  0  0  0  0  0  0  0  0  0
    9.5572   -1.0047   -0.7721 C   0  0  0  0  0  0  0  0  0  0  0  0
    8.6884   -0.0024   -0.3649 C   0  0  0  0  0  0  0  0  0  0  0  0
    7.8454   -0.2116    0.7100 C   0  0  0  0  0  0  0  0  0  0  0  0
    7.8654   -1.4187    1.3818 C   0  0  0  0  0  0  0  0  0  0  0  0
    8.7326   -2.4244    0.9783 C   0  0  0  0  0  0  0  0  0  0  0  0
    9.5754   -2.2189   -0.1028 C   0  0  0  0  0  0  0  0  0  0  0  0
    8.7521   -3.6114    1.6398 O   0  0  0  0  0  0  0  0  0  0  0  0
    6.9032    0.8789    1.1504 C   0  0  0  0  0  0  0  0  0  0  0  0
    5.5736    0.7351    0.4071 C   0  0  0  0  0  0  0  0  0  0  0  0
    4.6170    1.8423    0.8542 C   0  0  0  0  0  0  0  0  0  0  0  0
    3.2875    1.6985    0.1109 C   0  0  0  0  0  0  0  0  0  0  0  0
    2.3308    2.8056    0.5580 C   0  0  0  0  0  0  0  0  0  0  0  0
    1.0013    2.6619   -0.1853 C   0  0  0  0  0  0  0  0  0  0  0  0
    0.0447    3.7690    0.2618 C   0  0  0  0  0  0  0  0  0  0  0  0
   -1.2649    3.6274   -0.4703 C   0  0  0  0  0  0  0  0  0  0  0  0
   -2.3852    3.5372    0.2027 C   0  0  0  0  0  0  0  0  0  0  0  0
   -3.6947    3.3955   -0.5295 C   0  0  0  0  0  0  0  0  0  0  0  0
   -4.4283    2.1507   -0.0265 C   0  0  0  0  0  0  0  0  0  0  0  0
   -5.7578    2.0069   -0.7698 C   0  0  0  0  0  0  0  0  0  0  0  0
   -6.4914    0.7620   -0.2667 C   0  0  0  0  0  0  0  0  0  0  0  0
   -7.8209    0.6182   -1.0101 C   0  0  0  0  0  0  0  0  0  0  0  0
   -8.5434   -0.6079   -0.5146 C   0  0  0  0  0  0  0  0  0  0  0  0
   -9.4153   -0.5105    0.5529 C   0  0  0  0  0  0  0  0  0  0  0  0
  -10.0815   -1.6382    1.0113 C   0  0  0  0  0  0  0  0  0  0  0  0
   -9.8720   -2.8633    0.3971 C   0  0  0  0  0  0  0  0  0  0  0  0
   -8.9970   -2.9584   -0.6741 C   0  0  0  0  0  0  0  0  0  0  0  0
   -8.3371   -1.8267   -1.1321 C   0  0  0  0  0  0  0  0  0  0  0  0
   -8.7891   -4.1579   -1.2779 O   0  0  0  0  0  0  0  0  0  0  0  0
  -10.9383   -1.5419    2.0618 O   0  0  0  0  0  0  0  0  0  0  0  0
   11.9049   -2.1152   -1.3533 H   0  0  0  0  0  0  0  0  0  0  0  0
   10.6578   -2.7491   -2.4539 H   0  0  0  0  0  0  0  0  0  0  0  0
   11.8590   -1.5785   -3.0498 H   0  0  0  0  0  0  0  0  0  0  0  0
    8.6712    0.9422   -0.8882 H   0  0  0  0  0  0  0  0  0  0  0  0
    7.2059   -1.5797    2.2217 H   0  0  0  0  0  0  0  0  0  0  0  0
   10.2509   -3.0003   -0.4183 H   0  0  0  0  0  0  0  0  0  0  0  0
    8.1389   -4.2695    1.2850 H   0  0  0  0  0  0  0  0  0  0  0  0
    6.7300    0.7980    2.2235 H   0  0  0  0  0  0  0  0  0  0  0  0
    7.3419    1.8510    0.9255 H   0  0  0  0  0  0  0  0  0  0  0  0
    5.7468    0.8160   -0.6660 H   0  0  0  0  0  0  0  0  0  0  0  0
    5.1348   -0.2370    0.6320 H   0  0  0  0  0  0  0  0  0  0  0  0
    4.4439    1.7614    1.9274 H   0  0  0  0  0  0  0  0  0  0  0  0
    5.0558    2.8144    0.6293 H   0  0  0  0  0  0  0  0  0  0  0  0
    3.4606    1.7794   -0.9622 H   0  0  0  0  0  0  0  0  0  0  0  0
    2.8487    0.7264    0.3358 H   0  0  0  0  0  0  0  0  0  0  0  0
    2.1577    2.7247    1.6312 H   0  0  0  0  0  0  0  0  0  0  0  0
    2.7696    3.7777    0.3331 H   0  0  0  0  0  0  0  0  0  0  0  0
    1.1744    2.7428   -1.2584 H   0  0  0  0  0  0  0  0  0  0  0  0
    0.5625    1.6898    0.0397 H   0  0  0  0  0  0  0  0  0  0  0  0
   -0.1285    3.6881    1.3350 H   0  0  0  0  0  0  0  0  0  0  0  0
    0.4834    4.7411    0.0369 H   0  0  0  0  0  0  0  0  0  0  0  0
   -1.2798    3.6003   -1.5499 H   0  0  0  0  0  0  0  0  0  0  0  0
   -2.3703    3.5642    1.2822 H   0  0  0  0  0  0  0  0  0  0  0  0
   -4.3093    4.2774   -0.3486 H   0  0  0  0  0  0  0  0  0  0  0  0
   -3.5047    3.2982   -1.5984 H   0  0  0  0  0  0  0  0  0  0  0  0
   -3.8136    1.2688   -0.2074 H   0  0  0  0  0  0  0  0  0  0  0  0
   -4.6183    2.2480    1.0424 H   0  0  0  0  0  0  0  0  0  0  0  0
   -6.3724    2.8887   -0.5889 H   0  0  0  0  0  0  0  0  0  0  0  0
   -5.5678    1.9095   -1.8387 H   0  0  0  0  0  0  0  0  0  0  0  0
   -5.8767   -0.1198   -0.4477 H   0  0  0  0  0  0  0  0  0  0  0  0
   -6.6814    0.8594    0.8021 H   0  0  0  0  0  0  0  0  0  0  0  0
   -8.4355    1.5001   -0.8292 H   0  0  0  0  0  0  0  0  0  0  0  0
   -7.6308    0.5209   -2.0790 H   0  0  0  0  0  0  0  0  0  0  0  0
   -9.5783    0.4441    1.0310 H   0  0  0  0  0  0  0  0  0  0  0  0
  -10.3892   -3.7421    0.7526 H   0  0  0  0  0  0  0  0  0  0  0  0
   -7.6554   -1.9003   -1.9665 H   0  0  0  0  0  0  0  0  0  0  0  0
   -9.3937   -4.3395   -2.0105 H   0  0  0  0  0  0  0  0  0  0  0  0
  -11.8511   -1.3479    1.8083 H   0  0  0  0  0  0  0  0  0  0  0  0
  1  2  1  0  0  0  0
  2  3  1  0  0  0  0
  3  4  2  0  0  0  0
  4  5  1  0  0  0  0
  5  6  2  0  0  0  0
  6  7  1  0  0  0  0
  7  8  2  0  0  0  0
  3  8  1  0  0  0  0
  7  9  1  0  0  0  0
  5 10  1  0  0  0  0
 10 11  1  0  0  0  0
 11 12  1  0  0  0  0
 12 13  1  0  0  0  0
 13 14  1  0  0  0  0
 14 15  1  0  0  0  0
 15 16  1  0  0  0  0
 16 17  1  0  0  0  0
 17 18  2  0  0  0  0
 18 19  1  0  0  0  0
 19 20  1  0  0  0  0
 20 21  1  0  0  0  0
 21 22  1  0  0  0  0
 22 23  1  0  0  0  0
 23 24  1  0  0  0  0
 24 25  2  0  0  0  0
 25 26  1  0  0  0  0
 26 27  2  0  0  0  0
 27 28  1  0  0  0  0
 28 29  2  0  0  0  0
 24 29  1  0  0  0  0
 28 30  1  0  0  0  0
 26 31  1  0  0  0  0
  1 32  1  0  0  0  0
  1 33  1  0  0  0  0
  1 34  1  0  0  0  0
  4 35  1  0  0  0  0
  6 36  1  0  0  0  0
  8 37  1  0  0  0  0
  9 38  1  0  0  0  0
 10 39  1  0  0  0  0
 10 40  1  0  0  0  0
 11 41  1  0  0  0  0
 11 42  1  0  0  0  0
 12 43  1  0  0  0  0
 12 44  1  0  0  0  0
 13 45  1  0  0  0  0
 13 46  1  0  0  0  0
 14 47  1  0  0  0  0
 14 48  1  0  0  0  0
 15 49  1  0  0  0  0
 15 50  1  0  0  0  0
 16 51  1  0  0  0  0
 16 52  1  0  0  0  0
 17 53  1  0  0  0  0
 18 54  1  0  0  0  0
 19 55  1  0  0  0  0
 19 56  1  0  0  0  0
 20 57  1  0  0  0  0
 20 58  1  0  0  0  0
 21 59  1  0  0  0  0
 21 60  1  0  0  0  0
 22 61  1  0  0  0  0
 22 62  1  0  0  0  0
 23 63  1  0  0  0  0
 23 64  1  0  0  0  0
 25 65  1  0  0  0  0
 27 66  1  0  0  0  0
 29 67  1  0  0  0  0
 30 68  1  0  0  0  0
 31 69  1  0  0  0  0
M  END
$$$$
