C10H8N2OS
APtclcactv06291802413D 0   0.00000     0.00000
 
 22 23  0  0  0  0  0  0  0  0999 V2000
    2.3049    3.0467   -0.0021 C   0  0  0  0  0  0  0  0  0  0  0  0
    1.2809    2.0501   -0.0022 O   0  0  0  0  0  0  0  0  0  0  0  0
    1.6829    0.7531   -0.0010 C   0  0  0  0  0  0  0  0  0  0  0  0
    3.0337    0.4416    0.0001 C   0  0  0  0  0  0  0  0  0  0  0  0
    3.4421   -0.8812    0.0008 C   0  0  0  0  0  0  0  0  0  0  0  0
    2.5154   -1.9044    0.0007 C   0  0  0  0  0  0  0  0  0  0  0  0
    1.1549   -1.6141   -0.0004 C   0  0  0  0  0  0  0  0  0  0  0  0
    0.7387   -0.2747    0.0047 C   0  0  0  0  0  0  0  0  0  0  0  0
   -0.7386   -0.3034    0.0020 C   0  0  0  0  0  0  0  0  0  0  0  0
   -1.0978   -1.6597   -0.0046 C   0  0  0  0  0  0  0  0  0  0  0  0
    0.0273   -2.4150   -0.0011 N   0  0  0  0  0  0  0  0  0  0  0  0
   -1.5578    0.7401    0.0055 N   0  0  0  0  0  0  0  0  0  0  0  0
   -2.7952    0.5632    0.0025 C   0  0  0  0  0  0  0  0  0  0  0  0
   -4.3331    0.3433   -0.0013 S   0  0  0  0  0  0  0  0  0  0  0  0
    1.8486    4.0366   -0.0031 H   0  0  0  0  0  0  0  0  0  0  0  0
    2.9231    2.9325    0.8884 H   0  0  0  0  0  0  0  0  0  0  0  0
    2.9243    2.9313   -0.8916 H   0  0  0  0  0  0  0  0  0  0  0  0
    3.7691    1.2326    0.0002 H   0  0  0  0  0  0  0  0  0  0  0  0
    4.4965   -1.1151    0.0010 H   0  0  0  0  0  0  0  0  0  0  0  0
    2.8473   -2.9322    0.0013 H   0  0  0  0  0  0  0  0  0  0  0  0
   -2.1084   -2.0405   -0.0081 H   0  0  0  0  0  0  0  0  0  0  0  0
    0.0401   -3.3849   -0.0047 H   0  0  0  0  0  0  0  0  0  0  0  0
  1  2  1  0  0  0  0
  2  3  1  0  0  0  0
  3  4  2  0  0  0  0
  4  5  1  0  0  0  0
  5  6  2  0  0  0  0
  6  7  1  0  0  0  0
  7  8  2  0  0  0  0
  3  8  1  0  0  0  0
  8  9  1  0  0  0  0
  9 10  2  0  0  0  0
 10 11  1  0  0  0  0
  7 11  1  0  0  0  0
  9 12  1  0  0  0  0
 12 13  2  0  0  0  0
 13 14  2  0  0  0  0
  1 15  1  0  0  0  0
  1 16  1  0  0  0  0
  1 17  1  0  0  0  0
  4 18  1  0  0  0  0
  5 19  1  0  0  0  0
  6 20  1  0  0  0  0
 10 21  1  0  0  0  0
 11 22  1  0  0  0  0
M  END
$$$$
