C18H14O8
APtclcactv06291802413D 0   0.00000     0.00000
 
 40 43  0  0  0  0  0  0  0  0999 V2000
    4.1328    2.4908    0.3677 C   0  0  0  0  0  0  0  0  0  0  0  0
    3.5410    1.1125    0.2216 C   0  0  0  0  0  0  0  0  0  0  0  0
    4.2657    0.0013    0.5942 C   0  0  0  0  0  0  0  0  0  0  0  0
    3.7193   -1.2718    0.4601 C   0  0  0  0  0  0  0  0  0  0  0  0
    2.4487   -1.4406   -0.0758 C   0  0  0  0  0  0  0  0  0  0  0  0
    1.7264   -0.3336   -0.4770 C   0  0  0  0  0  0  0  0  0  0  0  0
    2.2524    0.9501   -0.2868 C   0  0  0  0  0  0  0  0  0  0  0  0
    1.3957    2.1055   -0.5996 C   0  0  0  0  0  0  0  0  0  0  0  0
    1.7352    2.9154   -1.4397 O   0  0  0  0  0  0  0  0  0  0  0  0
    0.2348    2.2509    0.0557 O   0  0  0  0  0  0  0  0  0  0  0  0
   -0.7458    1.3124   -0.0385 C   0  0  0  0  0  0  0  0  0  0  0  0
   -1.9890    1.7083    0.4803 C   0  0  0  0  0  0  0  0  0  0  0  0
   -3.0682    0.8693    0.4499 C   0  0  0  0  0  0  0  0  0  0  0  0
   -2.9460   -0.4106   -0.1053 C   0  0  0  0  0  0  0  0  0  0  0  0
   -1.7096   -0.8105   -0.6214 C   0  0  0  0  0  0  0  0  0  0  0  0
   -0.6087    0.0531   -0.5854 C   0  0  0  0  0  0  0  0  0  0  0  0
    0.5372   -0.4421   -1.1023 O   0  0  0  0  0  0  0  0  0  0  0  0
   -1.5759   -2.0479   -1.1633 O   0  0  0  0  0  0  0  0  0  0  0  0
   -4.2504   -1.0783   -0.0032 C   0  0  0  0  0  0  0  0  0  0  0  0
   -4.4862   -2.2048   -0.3938 O   0  0  0  0  0  0  0  0  0  0  0  0
   -5.1457   -0.2662    0.5842 O   0  0  0  0  0  0  0  0  0  0  0  0
   -4.4989    0.9941    0.9115 C   0  0  0  0  0  0  0  0  0  0  0  0
   -2.1366    3.0825    1.0810 C   0  0  0  0  0  0  0  0  0  0  0  0
    1.8627   -2.8216   -0.2187 C   0  0  0  0  0  0  0  0  0  0  0  0
    1.1443   -3.1595    0.9695 O   0  0  0  0  0  0  0  0  0  0  0  0
    4.4332   -2.3562    0.8551 O   0  0  0  0  0  0  0  0  0  0  0  0
    4.6630    2.7574   -0.5465 H   0  0  0  0  0  0  0  0  0  0  0  0
    3.3352    3.2114    0.5485 H   0  0  0  0  0  0  0  0  0  0  0  0
    4.8283    2.5004    1.2070 H   0  0  0  0  0  0  0  0  0  0  0  0
    5.2629    0.1188    0.9920 H   0  0  0  0  0  0  0  0  0  0  0  0
   -1.7633   -2.0845   -2.1113 H   0  0  0  0  0  0  0  0  0  0  0  0
   -4.5315    1.1630    1.9879 H   0  0  0  0  0  0  0  0  0  0  0  0
   -4.9908    1.8142    0.3885 H   0  0  0  0  0  0  0  0  0  0  0  0
   -2.4371    3.7875    0.3059 H   0  0  0  0  0  0  0  0  0  0  0  0
   -2.8952    3.0575    1.8633 H   0  0  0  0  0  0  0  0  0  0  0  0
   -1.1843    3.3965    1.5083 H   0  0  0  0  0  0  0  0  0  0  0  0
    1.1843   -2.8420   -1.0716 H   0  0  0  0  0  0  0  0  0  0  0  0
    2.6652   -3.5424   -0.3755 H   0  0  0  0  0  0  0  0  0  0  0  0
    0.7392   -4.0373    0.9479 H   0  0  0  0  0  0  0  0  0  0  0  0
    4.2907   -2.6057    1.7784 H   0  0  0  0  0  0  0  0  0  0  0  0
  1  2  1  0  0  0  0
  2  3  2  0  0  0  0
  3  4  1  0  0  0  0
  4  5  2  0  0  0  0
  5  6  1  0  0  0  0
  6  7  2  0  0  0  0
  2  7  1  0  0  0  0
  7  8  1  0  0  0  0
  8  9  2  0  0  0  0
  8 10  1  0  0  0  0
 10 11  1  0  0  0  0
 11 12  2  0  0  0  0
 12 13  1  0  0  0  0
 13 14  2  0  0  0  0
 14 15  1  0  0  0  0
 15 16  2  0  0  0  0
 11 16  1  0  0  0  0
 16 17  1  0  0  0  0
  6 17  1  0  0  0  0
 15 18  1  0  0  0  0
 14 19  1  0  0  0  0
 19 20  2  0  0  0  0
 19 21  1  0  0  0  0
 21 22  1  0  0  0  0
 13 22  1  0  0  0  0
 12 23  1  0  0  0  0
  5 24  1  0  0  0  0
 24 25  1  0  0  0  0
  4 26  1  0  0  0  0
  1 27  1  0  0  0  0
  1 28  1  0  0  0  0
  1 29  1  0  0  0  0
  3 30  1  0  0  0  0
 18 31  1  0  0  0  0
 22 32  1  0  0  0  0
 22 33  1  0  0  0  0
 23 34  1  0  0  0  0
 23 35  1  0  0  0  0
 23 36  1  0  0  0  0
 24 37  1  0  0  0  0
 24 38  1  0  0  0  0
 25 39  1  0  0  0  0
 26 40  1  0  0  0  0
M  END
$$$$
