C14H14O4
APtclcactv06291802423D 0   0.00000     0.00000
 
 32 33  0  0  0  0  0  0  0  0999 V2000
    3.9731   -1.4625    0.1020 C   0  0  0  0  0  0  0  0  0  0  0  0
    2.6162   -1.4207    0.3582 C   0  0  0  0  0  0  0  0  0  0  0  0
    1.9516   -0.2092    0.3790 C   0  0  0  0  0  0  0  0  0  0  0  0
    2.6459    0.9684    0.1420 C   0  0  0  0  0  0  0  0  0  0  0  0
    4.0078    0.9291   -0.1154 C   0  0  0  0  0  0  0  0  0  0  0  0
    4.6722   -0.2872   -0.1353 C   0  0  0  0  0  0  0  0  0  0  0  0
    6.0070   -0.3289   -0.3869 O   0  0  0  0  0  0  0  0  0  0  0  0
    1.9916    2.1594    0.1617 O   0  0  0  0  0  0  0  0  0  0  0  0
    0.4714   -0.1673    0.6589 C   0  0  0  0  0  0  0  0  0  0  0  0
   -0.2975   -0.1515   -0.6638 C   0  0  0  0  0  0  0  0  0  0  0  0
   -1.7777   -0.1095   -0.3839 C   0  0  0  0  0  0  0  0  0  0  0  0
   -2.4221    1.1066   -0.2607 C   0  0  0  0  0  0  0  0  0  0  0  0
   -3.7850    1.1479   -0.0026 C   0  0  0  0  0  0  0  0  0  0  0  0
   -4.5001   -0.0323    0.1313 C   0  0  0  0  0  0  0  0  0  0  0  0
   -3.8513   -1.2511    0.0068 C   0  0  0  0  0  0  0  0  0  0  0  0
   -2.4892   -1.2871   -0.2565 C   0  0  0  0  0  0  0  0  0  0  0  0
   -4.5494   -2.4096    0.1380 O   0  0  0  0  0  0  0  0  0  0  0  0
   -4.4181    2.3442    0.1193 O   0  0  0  0  0  0  0  0  0  0  0  0
    4.4911   -2.4101    0.0907 H   0  0  0  0  0  0  0  0  0  0  0  0
    2.0739   -2.3364    0.5423 H   0  0  0  0  0  0  0  0  0  0  0  0
    4.5499    1.8447   -0.3005 H   0  0  0  0  0  0  0  0  0  0  0  0
    6.5587   -0.2648    0.4047 H   0  0  0  0  0  0  0  0  0  0  0  0
    1.9676    2.5806    1.0318 H   0  0  0  0  0  0  0  0  0  0  0  0
    0.1854   -1.0473    1.2349 H   0  0  0  0  0  0  0  0  0  0  0  0
    0.2345    0.7319    1.2276 H   0  0  0  0  0  0  0  0  0  0  0  0
   -0.0115    0.7286   -1.2398 H   0  0  0  0  0  0  0  0  0  0  0  0
   -0.0606   -1.0507   -1.2325 H   0  0  0  0  0  0  0  0  0  0  0  0
   -1.8646    2.0256   -0.3651 H   0  0  0  0  0  0  0  0  0  0  0  0
   -5.5607   -0.0022    0.3325 H   0  0  0  0  0  0  0  0  0  0  0  0
   -1.9833   -2.2363   -0.3536 H   0  0  0  0  0  0  0  0  0  0  0  0
   -4.9161   -2.7440   -0.6920 H   0  0  0  0  0  0  0  0  0  0  0  0
   -4.7657    2.6919   -0.7133 H   0  0  0  0  0  0  0  0  0  0  0  0
  1  2  2  0  0  0  0
  2  3  1  0  0  0  0
  3  4  2  0  0  0  0
  4  5  1  0  0  0  0
  5  6  2  0  0  0  0
  1  6  1  0  0  0  0
  6  7  1  0  0  0  0
  4  8  1  0  0  0  0
  3  9  1  0  0  0  0
  9 10  1  0  0  0  0
 10 11  1  0  0  0  0
 11 12  2  0  0  0  0
 12 13  1  0  0  0  0
 13 14  2  0  0  0  0
 14 15  1  0  0  0  0
 15 16  2  0  0  0  0
 11 16  1  0  0  0  0
 15 17  1  0  0  0  0
 13 18  1  0  0  0  0
  1 19  1  0  0  0  0
  2 20  1  0  0  0  0
  5 21  1  0  0  0  0
  7 22  1  0  0  0  0
  8 23  1  0  0  0  0
  9 24  1  0  0  0  0
  9 25  1  0  0  0  0
 10 26  1  0  0  0  0
 10 27  1  0  0  0  0
 12 28  1  0  0  0  0
 14 29  1  0  0  0  0
 16 30  1  0  0  0  0
 17 31  1  0  0  0  0
 18 32  1  0  0  0  0
M  END
$$$$
