C18H16O6
APtclcactv06211806423D 0   0.00000     0.00000
 
 40 42  0  0  0  0  0  0  0  0999 V2000
    7.4717    0.0442   -0.7334 C   0  0  0  0  0  0  0  0  0  0  0  0
    6.6316   -0.8291    0.0239 O   0  0  0  0  0  0  0  0  0  0  0  0
    5.3054   -0.5402    0.0490 C   0  0  0  0  0  0  0  0  0  0  0  0
    4.4333   -1.3496    0.7670 C   0  0  0  0  0  0  0  0  0  0  0  0
    3.0871   -1.0601    0.7951 C   0  0  0  0  0  0  0  0  0  0  0  0
    2.5984    0.0497    0.1000 C   0  0  0  0  0  0  0  0  0  0  0  0
    3.4791    0.8612   -0.6208 C   0  0  0  0  0  0  0  0  0  0  0  0
    4.8246    0.5676   -0.6389 C   0  0  0  0  0  0  0  0  0  0  0  0
    1.1573    0.3634    0.1268 C   0  0  0  0  0  0  0  0  0  0  0  0
    0.7728    1.6651    0.2199 C   0  0  0  0  0  0  0  0  0  0  0  0
   -0.6049    1.9855    0.2464 C   0  0  0  0  0  0  0  0  0  0  0  0
   -0.9853    3.1422    0.3288 O   0  0  0  0  0  0  0  0  0  0  0  0
   -1.5623    0.8688    0.1703 C   0  0  0  0  0  0  0  0  0  0  0  0
   -2.9436    1.0939    0.1896 C   0  0  0  0  0  0  0  0  0  0  0  0
   -3.8114    0.0158    0.1155 C   0  0  0  0  0  0  0  0  0  0  0  0
   -3.3086   -1.2804    0.0226 C   0  0  0  0  0  0  0  0  0  0  0  0
   -1.9414   -1.5072    0.0036 C   0  0  0  0  0  0  0  0  0  0  0  0
   -1.0592   -0.4407    0.0764 C   0  0  0  0  0  0  0  0  0  0  0  0
    0.2756   -0.6459    0.0530 O   0  0  0  0  0  0  0  0  0  0  0  0
   -4.1661   -2.3314   -0.0496 O   0  0  0  0  0  0  0  0  0  0  0  0
   -3.5883   -3.6350   -0.1432 C   0  0  0  0  0  0  0  0  0  0  0  0
   -5.1568    0.2235    0.1339 O   0  0  0  0  0  0  0  0  0  0  0  0
   -5.8014    0.4126   -1.1273 C   0  0  0  0  0  0  0  0  0  0  0  0
   -3.4298    2.3589    0.2807 O   0  0  0  0  0  0  0  0  0  0  0  0
    8.5042   -0.2993   -0.6697 H   0  0  0  0  0  0  0  0  0  0  0  0
    7.1519    0.0426   -1.7754 H   0  0  0  0  0  0  0  0  0  0  0  0
    7.3998    1.0553   -0.3328 H   0  0  0  0  0  0  0  0  0  0  0  0
    4.8117   -2.2072    1.3035 H   0  0  0  0  0  0  0  0  0  0  0  0
    2.4100   -1.6899    1.3531 H   0  0  0  0  0  0  0  0  0  0  0  0
    3.1056    1.7196   -1.1593 H   0  0  0  0  0  0  0  0  0  0  0  0
    5.5058    1.1942   -1.1953 H   0  0  0  0  0  0  0  0  0  0  0  0
    1.5143    2.4485    0.2734 H   0  0  0  0  0  0  0  0  0  0  0  0
   -1.5630   -2.5162   -0.0683 H   0  0  0  0  0  0  0  0  0  0  0  0
   -4.3813   -4.3811   -0.1939 H   0  0  0  0  0  0  0  0  0  0  0  0
   -2.9736   -3.6963   -1.0412 H   0  0  0  0  0  0  0  0  0  0  0  0
   -2.9692   -3.8218    0.7343 H   0  0  0  0  0  0  0  0  0  0  0  0
   -6.8689    0.5673   -0.9702 H   0  0  0  0  0  0  0  0  0  0  0  0
   -5.3773    1.2846   -1.6250 H   0  0  0  0  0  0  0  0  0  0  0  0
   -5.6498   -0.4700   -1.7488 H   0  0  0  0  0  0  0  0  0  0  0  0
   -3.5727    2.7878   -0.5741 H   0  0  0  0  0  0  0  0  0  0  0  0
  1  2  1  0  0  0  0
  2  3  1  0  0  0  0
  3  4  2  0  0  0  0
  4  5  1  0  0  0  0
  5  6  2  0  0  0  0
  6  7  1  0  0  0  0
  7  8  2  0  0  0  0
  3  8  1  0  0  0  0
  6  9  1  0  0  0  0
  9 10  2  0  0  0  0
 10 11  1  0  0  0  0
 11 12  2  0  0  0  0
 11 13  1  0  0  0  0
 13 14  2  0  0  0  0
 14 15  1  0  0  0  0
 15 16  2  0  0  0  0
 16 17  1  0  0  0  0
 17 18  2  0  0  0  0
 13 18  1  0  0  0  0
 18 19  1  0  0  0  0
  9 19  1  0  0  0  0
 16 20  1  0  0  0  0
 20 21  1  0  0  0  0
 15 22  1  0  0  0  0
 22 23  1  0  0  0  0
 14 24  1  0  0  0  0
  1 25  1  0  0  0  0
  1 26  1  0  0  0  0
  1 27  1  0  0  0  0
  4 28  1  0  0  0  0
  5 29  1  0  0  0  0
  7 30  1  0  0  0  0
  8 31  1  0  0  0  0
 10 32  1  0  0  0  0
 17 33  1  0  0  0  0
 21 34  1  0  0  0  0
 21 35  1  0  0  0  0
 21 36  1  0  0  0  0
 23 37  1  0  0  0  0
 23 38  1  0  0  0  0
 23 39  1  0  0  0  0
 24 40  1  0  0  0  0
M  END
$$$$
