C15H26O
APtclcactv06281816283D 0   0.00000     0.00000
 
 42 42  0  0  0  0  0  0  0  0999 V2000
    5.4604    1.1885   -0.4676 C   0  0  0  0  0  0  0  0  0  0  0  0
    4.0665    0.6532   -0.2640 C   0  0  0  0  0  0  0  0  0  0  0  0
    3.1811    1.4453    0.2500 C   0  0  0  0  0  0  0  0  0  0  0  0
    1.7582    1.0531    0.5209 C   0  0  0  0  0  0  0  0  0  0  0  0
    1.4020   -0.2124   -0.2622 C   0  0  0  0  0  0  0  0  0  0  0  0
    2.4974   -1.2582   -0.0183 C   0  0  0  0  0  0  0  0  0  0  0  0
    3.7897   -0.7633   -0.6753 C   0  0  0  0  0  0  0  0  0  0  0  0
    0.0559   -0.7551    0.2220 C   0  0  0  0  0  0  0  0  0  0  0  0
    0.1469   -1.0889    1.7123 C   0  0  0  0  0  0  0  0  0  0  0  0
   -1.0289    0.3010    0.0011 C   0  0  0  0  0  0  0  0  0  0  0  0
   -2.3490   -0.1914    0.5976 C   0  0  0  0  0  0  0  0  0  0  0  0
   -3.4175    0.8487    0.3801 C   0  0  0  0  0  0  0  0  0  0  0  0
   -4.5338    0.5247   -0.2241 C   0  0  0  0  0  0  0  0  0  0  0  0
   -4.7494   -0.8883   -0.7016 C   0  0  0  0  0  0  0  0  0  0  0  0
   -5.6023    1.5648   -0.4416 C   0  0  0  0  0  0  0  0  0  0  0  0
   -0.2730   -1.9365   -0.5116 O   0  0  0  0  0  0  0  0  0  0  0  0
    5.5053    2.2234   -0.1285 H   0  0  0  0  0  0  0  0  0  0  0  0
    6.1675    0.5877    0.1043 H   0  0  0  0  0  0  0  0  0  0  0  0
    5.7166    1.1416   -1.5261 H   0  0  0  0  0  0  0  0  0  0  0  0
    3.4855    2.4510    0.4998 H   0  0  0  0  0  0  0  0  0  0  0  0
    1.6318    0.8657    1.5872 H   0  0  0  0  0  0  0  0  0  0  0  0
    1.0959    1.8640    0.2177 H   0  0  0  0  0  0  0  0  0  0  0  0
    1.3462    0.0186   -1.3260 H   0  0  0  0  0  0  0  0  0  0  0  0
    2.6518   -1.3840    1.0533 H   0  0  0  0  0  0  0  0  0  0  0  0
    2.2022   -2.2085   -0.4631 H   0  0  0  0  0  0  0  0  0  0  0  0
    3.6877   -0.8175   -1.7591 H   0  0  0  0  0  0  0  0  0  0  0  0
    4.6200   -1.3953   -0.3605 H   0  0  0  0  0  0  0  0  0  0  0  0
    0.3978   -0.1877    2.2719 H   0  0  0  0  0  0  0  0  0  0  0  0
   -0.8121   -1.4755    2.0573 H   0  0  0  0  0  0  0  0  0  0  0  0
    0.9197   -1.8412    1.8697 H   0  0  0  0  0  0  0  0  0  0  0  0
   -0.7349    1.2311    0.4875 H   0  0  0  0  0  0  0  0  0  0  0  0
   -1.1553    0.4740   -1.0676 H   0  0  0  0  0  0  0  0  0  0  0  0
   -2.6430   -1.1215    0.1112 H   0  0  0  0  0  0  0  0  0  0  0  0
   -2.2226   -0.3645    1.6664 H   0  0  0  0  0  0  0  0  0  0  0  0
   -3.2630    1.8614    0.7223 H   0  0  0  0  0  0  0  0  0  0  0  0
   -4.7021   -1.5700    0.1477 H   0  0  0  0  0  0  0  0  0  0  0  0
   -5.7276   -0.9663   -1.1760 H   0  0  0  0  0  0  0  0  0  0  0  0
   -3.9744   -1.1507   -1.4217 H   0  0  0  0  0  0  0  0  0  0  0  0
   -5.4398    2.0577   -1.4001 H   0  0  0  0  0  0  0  0  0  0  0  0
   -6.5813    1.0857   -0.4408 H   0  0  0  0  0  0  0  0  0  0  0  0
   -5.5586    2.3035    0.3588 H   0  0  0  0  0  0  0  0  0  0  0  0
   -0.3473   -1.7990   -1.4658 H   0  0  0  0  0  0  0  0  0  0  0  0
  1  2  1  0  0  0  0
  2  3  2  0  0  0  0
  3  4  1  0  0  0  0
  4  5  1  0  0  0  0
  5  6  1  0  0  0  0
  6  7  1  0  0  0  0
  2  7  1  0  0  0  0
  5  8  1  0  0  0  0
  8  9  1  0  0  0  0
  8 10  1  0  0  0  0
 10 11  1  0  0  0  0
 11 12  1  0  0  0  0
 12 13  2  0  0  0  0
 13 14  1  0  0  0  0
 13 15  1  0  0  0  0
  8 16  1  0  0  0  0
  1 17  1  0  0  0  0
  1 18  1  0  0  0  0
  1 19  1  0  0  0  0
  3 20  1  0  0  0  0
  4 21  1  0  0  0  0
  4 22  1  0  0  0  0
  5 23  1  0  0  0  0
  6 24  1  0  0  0  0
  6 25  1  0  0  0  0
  7 26  1  0  0  0  0
  7 27  1  0  0  0  0
  9 28  1  0  0  0  0
  9 29  1  0  0  0  0
  9 30  1  0  0  0  0
 10 31  1  0  0  0  0
 10 32  1  0  0  0  0
 11 33  1  0  0  0  0
 11 34  1  0  0  0  0
 12 35  1  0  0  0  0
 14 36  1  0  0  0  0
 14 37  1  0  0  0  0
 14 38  1  0  0  0  0
 15 39  1  0  0  0  0
 15 40  1  0  0  0  0
 15 41  1  0  0  0  0
 16 42  1  0  0  0  0
M  END
$$$$
