C18H15NO2
APtclcactv06211806423D 0   0.00000     0.00000
 
 36 40  0  0  0  0  0  0  0  0999 V2000
    4.2232    0.5142    0.2097 C   0  0  0  0  0  0  0  0  0  0  0  0
    2.9840    1.1379   -0.2734 N   0  0  0  0  0  0  0  0  0  0  0  0
    2.7189    2.3968    0.4328 C   0  0  0  0  0  0  0  0  0  0  0  0
    1.5013    3.0941   -0.1823 C   0  0  0  0  0  0  0  0  0  0  0  0
    0.3179    2.1624   -0.0980 C   0  0  0  0  0  0  0  0  0  0  0  0
   -0.9533    2.6444   -0.0283 C   0  0  0  0  0  0  0  0  0  0  0  0
   -2.0421    1.7761    0.0526 C   0  0  0  0  0  0  0  0  0  0  0  0
   -1.8458    0.4028    0.0643 C   0  0  0  0  0  0  0  0  0  0  0  0
   -0.5455   -0.1081   -0.0077 C   0  0  0  0  0  0  0  0  0  0  0  0
    0.5461    0.7802   -0.0927 C   0  0  0  0  0  0  0  0  0  0  0  0
    1.9099    0.2554   -0.1765 C   0  0  0  0  0  0  0  0  0  0  0  0
    2.1256   -1.0849   -0.1634 C   0  0  0  0  0  0  0  0  0  0  0  0
    1.0566   -2.0046   -0.0744 C   0  0  0  0  0  0  0  0  0  0  0  0
    1.3074   -3.3857   -0.0628 C   0  0  0  0  0  0  0  0  0  0  0  0
    0.2678   -4.2643    0.0220 C   0  0  0  0  0  0  0  0  0  0  0  0
   -1.0439   -3.8124    0.0972 C   0  0  0  0  0  0  0  0  0  0  0  0
   -1.3220   -2.4750    0.0884 C   0  0  0  0  0  0  0  0  0  0  0  0
   -0.2796   -1.5499    0.0037 C   0  0  0  0  0  0  0  0  0  0  0  0
   -3.0597   -0.2144    0.1505 O   0  0  0  0  0  0  0  0  0  0  0  0
   -4.0260    0.7860   -0.2217 C   0  0  0  0  0  0  0  0  0  0  0  0
   -3.3830    2.0252    0.1301 O   0  0  0  0  0  0  0  0  0  0  0  0
    4.0872    0.1865    1.2403 H   0  0  0  0  0  0  0  0  0  0  0  0
    4.4652   -0.3451   -0.4158 H   0  0  0  0  0  0  0  0  0  0  0  0
    5.0366    1.2382    0.1630 H   0  0  0  0  0  0  0  0  0  0  0  0
    2.5233    2.1876    1.4845 H   0  0  0  0  0  0  0  0  0  0  0  0
    3.5890    3.0482    0.3505 H   0  0  0  0  0  0  0  0  0  0  0  0
    1.2864    4.0092    0.3694 H   0  0  0  0  0  0  0  0  0  0  0  0
    1.7052    3.3328   -1.2261 H   0  0  0  0  0  0  0  0  0  0  0  0
   -1.1208    3.7113   -0.0355 H   0  0  0  0  0  0  0  0  0  0  0  0
    3.1378   -1.4568   -0.2227 H   0  0  0  0  0  0  0  0  0  0  0  0
    2.3218   -3.7519   -0.1212 H   0  0  0  0  0  0  0  0  0  0  0  0
    0.4667   -5.3258    0.0305 H   0  0  0  0  0  0  0  0  0  0  0  0
   -1.8521   -4.5258    0.1629 H   0  0  0  0  0  0  0  0  0  0  0  0
   -2.3452   -2.1341    0.1470 H   0  0  0  0  0  0  0  0  0  0  0  0
   -4.2246    0.7476   -1.2928 H   0  0  0  0  0  0  0  0  0  0  0  0
   -4.9482    0.6581    0.3451 H   0  0  0  0  0  0  0  0  0  0  0  0
  1  2  1  0  0  0  0
  2  3  1  0  0  0  0
  3  4  1  0  0  0  0
  4  5  1  0  0  0  0
  5  6  2  0  0  0  0
  6  7  1  0  0  0  0
  7  8  2  0  0  0  0
  8  9  1  0  0  0  0
  9 10  2  0  0  0  0
  5 10  1  0  0  0  0
 10 11  1  0  0  0  0
  2 11  1  0  0  0  0
 11 12  2  0  0  0  0
 12 13  1  0  0  0  0
 13 14  2  0  0  0  0
 14 15  1  0  0  0  0
 15 16  2  0  0  0  0
 16 17  1  0  0  0  0
 17 18  2  0  0  0  0
 13 18  1  0  0  0  0
  9 18  1  0  0  0  0
  8 19  1  0  0  0  0
 19 20  1  0  0  0  0
 20 21  1  0  0  0  0
  7 21  1  0  0  0  0
  1 22  1  0  0  0  0
  1 23  1  0  0  0  0
  1 24  1  0  0  0  0
  3 25  1  0  0  0  0
  3 26  1  0  0  0  0
  4 27  1  0  0  0  0
  4 28  1  0  0  0  0
  6 29  1  0  0  0  0
 12 30  1  0  0  0  0
 14 31  1  0  0  0  0
 15 32  1  0  0  0  0
 16 33  1  0  0  0  0
 17 34  1  0  0  0  0
 20 35  1  0  0  0  0
 20 36  1  0  0  0  0
M  END
$$$$
