C26H33N3O2
APtclcactv06291802423D 0   0.00000     0.00000
 
 64 66  0  0  0  0  0  0  0  0999 V2000
    8.5717    4.2500   -0.5840 C   0  0  0  0  0  0  0  0  0  0  0  0
    9.4849    3.0800   -0.2122 C   0  0  0  0  0  0  0  0  0  0  0  0
    8.6503    1.8490    0.0311 C   0  0  0  0  0  0  0  0  0  0  0  0
    8.3578    0.9856   -1.0074 C   0  0  0  0  0  0  0  0  0  0  0  0
    7.6281   -0.0936   -0.8023 N   0  0  0  0  0  0  0  0  0  0  0  0
    7.1517   -0.3921    0.3904 C   0  0  0  0  0  0  0  0  0  0  0  0
    7.4036    0.4243    1.4770 C   0  0  0  0  0  0  0  0  0  0  0  0
    8.1710    1.5653    1.3011 C   0  0  0  0  0  0  0  0  0  0  0  0
    6.3227   -1.6376    0.5710 C   0  0  0  0  0  0  0  0  0  0  0  0
    4.9223   -1.3464    0.2360 N   0  0  0  0  0  0  0  0  0  0  0  0
    4.0824   -2.5403    0.4008 C   0  0  0  0  0  0  0  0  0  0  0  0
    2.6562   -2.2037    0.0490 C   0  0  0  0  0  0  0  0  0  0  0  0
    2.2124   -2.3540   -1.2518 C   0  0  0  0  0  0  0  0  0  0  0  0
    0.9055   -2.0461   -1.5768 C   0  0  0  0  0  0  0  0  0  0  0  0
    0.0382   -1.5857   -0.5968 C   0  0  0  0  0  0  0  0  0  0  0  0
    0.4860   -1.4357    0.7077 C   0  0  0  0  0  0  0  0  0  0  0  0
    1.7923   -1.7504    1.0287 C   0  0  0  0  0  0  0  0  0  0  0  0
   -1.2478   -1.2817   -0.9141 O   0  0  0  0  0  0  0  0  0  0  0  0
   -2.0841   -0.8132    0.1456 C   0  0  0  0  0  0  0  0  0  0  0  0
   -3.4844   -0.5248   -0.3993 C   0  0  0  0  0  0  0  0  0  0  0  0
   -4.4125   -0.1431    0.7557 C   0  0  0  0  0  0  0  0  0  0  0  0
   -5.7825    0.0171    0.2505 N   0  0  0  0  0  0  0  0  0  0  0  0
   -6.3224   -1.2645   -0.2226 C   0  0  0  0  0  0  0  0  0  0  0  0
   -6.6546    0.6104    1.2729 C   0  0  0  0  0  0  0  0  0  0  0  0
   -7.9751    0.9853    0.6509 C   0  0  0  0  0  0  0  0  0  0  0  0
   -9.0122    0.0717    0.6274 C   0  0  0  0  0  0  0  0  0  0  0  0
  -10.2234    0.4156    0.0567 C   0  0  0  0  0  0  0  0  0  0  0  0
  -10.3976    1.6732   -0.4900 C   0  0  0  0  0  0  0  0  0  0  0  0
   -9.3607    2.5871   -0.4657 C   0  0  0  0  0  0  0  0  0  0  0  0
   -8.1509    2.2447    0.1088 C   0  0  0  0  0  0  0  0  0  0  0  0
   -3.4189    0.5539   -1.3342 O   0  0  0  0  0  0  0  0  0  0  0  0
    8.0155    4.0035   -1.4884 H   0  0  0  0  0  0  0  0  0  0  0  0
    7.8737    4.4395    0.2315 H   0  0  0  0  0  0  0  0  0  0  0  0
    9.1753    5.1403   -0.7599 H   0  0  0  0  0  0  0  0  0  0  0  0
   10.1829    2.8905   -1.0276 H   0  0  0  0  0  0  0  0  0  0  0  0
   10.0411    3.3264    0.6923 H   0  0  0  0  0  0  0  0  0  0  0  0
    8.7307    1.1973   -1.9986 H   0  0  0  0  0  0  0  0  0  0  0  0
    7.0104    0.1747    2.4514 H   0  0  0  0  0  0  0  0  0  0  0  0
    8.3841    2.2218    2.1318 H   0  0  0  0  0  0  0  0  0  0  0  0
    6.6978   -2.4222   -0.0861 H   0  0  0  0  0  0  0  0  0  0  0  0
    6.3869   -1.9698    1.6071 H   0  0  0  0  0  0  0  0  0  0  0  0
    4.5708   -0.5781    0.7876 H   0  0  0  0  0  0  0  0  0  0  0  0
    4.4420   -3.3312   -0.2574 H   0  0  0  0  0  0  0  0  0  0  0  0
    4.1311   -2.8788    1.4358 H   0  0  0  0  0  0  0  0  0  0  0  0
    2.8880   -2.7121   -2.0144 H   0  0  0  0  0  0  0  0  0  0  0  0
    0.5593   -2.1634   -2.5931 H   0  0  0  0  0  0  0  0  0  0  0  0
   -0.1872   -1.0775    1.4724 H   0  0  0  0  0  0  0  0  0  0  0  0
    2.1414   -1.6338    2.0441 H   0  0  0  0  0  0  0  0  0  0  0  0
   -2.1465   -1.5747    0.9230 H   0  0  0  0  0  0  0  0  0  0  0  0
   -1.6621    0.1002    0.5648 H   0  0  0  0  0  0  0  0  0  0  0  0
   -3.8708   -1.4142   -0.8971 H   0  0  0  0  0  0  0  0  0  0  0  0
   -4.3934   -0.9280    1.5117 H   0  0  0  0  0  0  0  0  0  0  0  0
   -4.0760    0.7950    1.1972 H   0  0  0  0  0  0  0  0  0  0  0  0
   -6.3346   -1.9795    0.6000 H   0  0  0  0  0  0  0  0  0  0  0  0
   -7.3376   -1.1173   -0.5911 H   0  0  0  0  0  0  0  0  0  0  0  0
   -5.6956   -1.6478   -1.0278 H   0  0  0  0  0  0  0  0  0  0  0  0
   -6.8215   -0.1120    2.0719 H   0  0  0  0  0  0  0  0  0  0  0  0
   -6.1798    1.5020    1.6826 H   0  0  0  0  0  0  0  0  0  0  0  0
   -8.8761   -0.9108    1.0546 H   0  0  0  0  0  0  0  0  0  0  0  0
  -11.0335   -0.2984    0.0378 H   0  0  0  0  0  0  0  0  0  0  0  0
  -11.3437    1.9416   -0.9365 H   0  0  0  0  0  0  0  0  0  0  0  0
   -9.4967    3.5696   -0.8932 H   0  0  0  0  0  0  0  0  0  0  0  0
   -7.3409    2.9588    0.1278 H   0  0  0  0  0  0  0  0  0  0  0  0
   -3.0830    1.3795   -0.9593 H   0  0  0  0  0  0  0  0  0  0  0  0
  1  2  1  0  0  0  0
  2  3  1  0  0  0  0
  3  4  2  0  0  0  0
  4  5  1  0  0  0  0
  5  6  2  0  0  0  0
  6  7  1  0  0  0  0
  7  8  2  0  0  0  0
  3  8  1  0  0  0  0
  6  9  1  0  0  0  0
  9 10  1  0  0  0  0
 10 11  1  0  0  0  0
 11 12  1  0  0  0  0
 12 13  2  0  0  0  0
 13 14  1  0  0  0  0
 14 15  2  0  0  0  0
 15 16  1  0  0  0  0
 16 17  2  0  0  0  0
 12 17  1  0  0  0  0
 15 18  1  0  0  0  0
 18 19  1  0  0  0  0
 19 20  1  0  0  0  0
 20 21  1  0  0  0  0
 21 22  1  0  0  0  0
 22 23  1  0  0  0  0
 22 24  1  0  0  0  0
 24 25  1  0  0  0  0
 25 26  2  0  0  0  0
 26 27  1  0  0  0  0
 27 28  2  0  0  0  0
 28 29  1  0  0  0  0
 29 30  2  0  0  0  0
 25 30  1  0  0  0  0
 20 31  1  0  0  0  0
  1 32  1  0  0  0  0
  1 33  1  0  0  0  0
  1 34  1  0  0  0  0
  2 35  1  0  0  0  0
  2 36  1  0  0  0  0
  4 37  1  0  0  0  0
  7 38  1  0  0  0  0
  8 39  1  0  0  0  0
  9 40  1  0  0  0  0
  9 41  1  0  0  0  0
 10 42  1  0  0  0  0
 11 43  1  0  0  0  0
 11 44  1  0  0  0  0
 13 45  1  0  0  0  0
 14 46  1  0  0  0  0
 16 47  1  0  0  0  0
 17 48  1  0  0  0  0
 19 49  1  0  0  0  0
 19 50  1  0  0  0  0
 20 51  1  0  0  0  0
 21 52  1  0  0  0  0
 21 53  1  0  0  0  0
 23 54  1  0  0  0  0
 23 55  1  0  0  0  0
 23 56  1  0  0  0  0
 24 57  1  0  0  0  0
 24 58  1  0  0  0  0
 26 59  1  0  0  0  0
 27 60  1  0  0  0  0
 28 61  1  0  0  0  0
 29 62  1  0  0  0  0
 30 63  1  0  0  0  0
 31 64  1  0  0  0  0
M  END
$$$$
