C15H24O2
APtclcactv06211806423D 0   0.00000     0.00000
 
 41 42  0  0  0  0  0  0  0  0999 V2000
    1.5541    2.4492   -0.1438 C   0  0  0  0  0  0  0  0  0  0  0  0
    1.3914    1.1459   -0.9285 C   0  0  0  0  0  0  0  0  0  0  0  0
    2.5679    0.2165   -0.6237 C   0  0  0  0  0  0  0  0  0  0  0  0
    2.6477   -0.0380    0.8824 C   0  0  0  0  0  0  0  0  0  0  0  0
    1.3864   -0.7748    1.3430 C   0  0  0  0  0  0  0  0  0  0  0  0
    0.1749    0.0382    0.9190 C   0  0  0  0  0  0  0  0  0  0  0  0
   -0.7212    0.3228    1.8180 C   0  0  0  0  0  0  0  0  0  0  0  0
   -1.9564    1.1238    1.5210 C   0  0  0  0  0  0  0  0  0  0  0  0
   -2.3078    0.9673    0.0382 C   0  0  0  0  0  0  0  0  0  0  0  0
   -1.0930    1.3823   -0.7915 C   0  0  0  0  0  0  0  0  0  0  0  0
    0.0840    0.4622   -0.5180 C   0  0  0  0  0  0  0  0  0  0  0  0
   -0.0845   -0.7990   -1.3677 C   0  0  0  0  0  0  0  0  0  0  0  0
   -2.6539   -0.4704   -0.2524 C   0  0  0  0  0  0  0  0  0  0  0  0
   -2.4919   -1.3830    0.6733 C   0  0  0  0  0  0  0  0  0  0  0  0
   -3.1862   -0.8581   -1.6079 C   0  0  0  0  0  0  0  0  0  0  0  0
    1.3353   -2.0673    0.7357 O   0  0  0  0  0  0  0  0  0  0  0  0
    2.3821   -1.0251   -1.3064 O   0  0  0  0  0  0  0  0  0  0  0  0
    2.4854    2.9348   -0.4350 H   0  0  0  0  0  0  0  0  0  0  0  0
    0.7158    3.1112   -0.3611 H   0  0  0  0  0  0  0  0  0  0  0  0
    1.5768    2.2302    0.9237 H   0  0  0  0  0  0  0  0  0  0  0  0
    1.3680    1.3647   -1.9960 H   0  0  0  0  0  0  0  0  0  0  0  0
    3.4940    0.6808   -0.9626 H   0  0  0  0  0  0  0  0  0  0  0  0
    3.5248   -0.6468    1.1021 H   0  0  0  0  0  0  0  0  0  0  0  0
    2.7250    0.9137    1.4082 H   0  0  0  0  0  0  0  0  0  0  0  0
    1.3975   -0.8786    2.4280 H   0  0  0  0  0  0  0  0  0  0  0  0
   -0.5699   -0.0343    2.8260 H   0  0  0  0  0  0  0  0  0  0  0  0
   -2.7826    0.7602    2.1320 H   0  0  0  0  0  0  0  0  0  0  0  0
   -1.7716    2.1748    1.7431 H   0  0  0  0  0  0  0  0  0  0  0  0
   -3.1559    1.6064   -0.2075 H   0  0  0  0  0  0  0  0  0  0  0  0
   -1.3479    1.3340   -1.8502 H   0  0  0  0  0  0  0  0  0  0  0  0
   -0.8161    2.4050   -0.5359 H   0  0  0  0  0  0  0  0  0  0  0  0
    0.0562   -0.5499   -2.4195 H   0  0  0  0  0  0  0  0  0  0  0  0
    0.6558   -1.5407   -1.0678 H   0  0  0  0  0  0  0  0  0  0  0  0
   -1.0854   -1.2048   -1.2211 H   0  0  0  0  0  0  0  0  0  0  0  0
   -2.6983   -2.4197    0.4515 H   0  0  0  0  0  0  0  0  0  0  0  0
   -2.1520   -1.0989    1.6582 H   0  0  0  0  0  0  0  0  0  0  0  0
   -3.2603    0.0293   -2.2365 H   0  0  0  0  0  0  0  0  0  0  0  0
   -2.5105   -1.5766   -2.0717 H   0  0  0  0  0  0  0  0  0  0  0  0
   -4.1730   -1.3073   -1.4958 H   0  0  0  0  0  0  0  0  0  0  0  0
    2.0889   -2.6334    0.9515 H   0  0  0  0  0  0  0  0  0  0  0  0
    3.0919   -1.6651   -1.1588 H   0  0  0  0  0  0  0  0  0  0  0  0
  1  2  1  0  0  0  0
  2  3  1  0  0  0  0
  3  4  1  0  0  0  0
  4  5  1  0  0  0  0
  5  6  1  0  0  0  0
  6  7  2  0  0  0  0
  7  8  1  0  0  0  0
  8  9  1  0  0  0  0
  9 10  1  0  0  0  0
 10 11  1  0  0  0  0
  2 11  1  0  0  0  0
  6 11  1  0  0  0  0
 11 12  1  0  0  0  0
  9 13  1  0  0  0  0
 13 14  2  0  0  0  0
 13 15  1  0  0  0  0
  5 16  1  0  0  0  0
  3 17  1  0  0  0  0
  1 18  1  0  0  0  0
  1 19  1  0  0  0  0
  1 20  1  0  0  0  0
  2 21  1  0  0  0  0
  3 22  1  0  0  0  0
  4 23  1  0  0  0  0
  4 24  1  0  0  0  0
  5 25  1  0  0  0  0
  7 26  1  0  0  0  0
  8 27  1  0  0  0  0
  8 28  1  0  0  0  0
  9 29  1  0  0  0  0
 10 30  1  0  0  0  0
 10 31  1  0  0  0  0
 12 32  1  0  0  0  0
 12 33  1  0  0  0  0
 12 34  1  0  0  0  0
 14 35  1  0  0  0  0
 14 36  1  0  0  0  0
 15 37  1  0  0  0  0
 15 38  1  0  0  0  0
 15 39  1  0  0  0  0
 16 40  1  0  0  0  0
 17 41  1  0  0  0  0
M  END
$$$$
