C19H24N2O
APtclcactv06291802423D 0   0.00000     0.00000
 
 46 49  0  0  0  0  0  0  0  0999 V2000
   -4.1169    2.8600    1.3069 C   0  0  0  0  0  0  0  0  0  0  0  0
   -3.3463    1.5695    1.5925 C   0  0  0  0  0  0  0  0  0  0  0  0
   -3.6026    0.5631    0.4690 C   0  0  0  0  0  0  0  0  0  0  0  0
   -3.0210    1.0989   -0.8425 C   0  0  0  0  0  0  0  0  0  0  0  0
   -2.0047    0.1636   -1.3429 N   0  0  0  0  0  0  0  0  0  0  0  0
   -2.5947   -1.1499   -1.6362 C   0  0  0  0  0  0  0  0  0  0  0  0
   -3.1645   -1.7494   -0.3476 C   0  0  0  0  0  0  0  0  0  0  0  0
   -2.9196   -0.7684    0.8059 C   0  0  0  0  0  0  0  0  0  0  0  0
   -1.4100   -0.5262    0.9300 C   0  0  0  0  0  0  0  0  0  0  0  0
   -0.8892    0.0390   -0.3945 C   0  0  0  0  0  0  0  0  0  0  0  0
    0.1684   -0.9042   -0.9714 C   0  0  0  0  0  0  0  0  0  0  0  0
    1.3978   -0.8733   -0.1003 C   0  0  0  0  0  0  0  0  0  0  0  0
    1.5928   -1.8123    0.8720 C   0  0  0  0  0  0  0  0  0  0  0  0
    2.7373   -1.7645    1.6654 C   0  0  0  0  0  0  0  0  0  0  0  0
    3.6474   -0.8344    1.5079 N   0  0  0  0  0  0  0  0  0  0  0  0
    3.5176    0.1142    0.5749 C   0  0  0  0  0  0  0  0  0  0  0  0
    4.4964    1.1095    0.4108 C   0  0  0  0  0  0  0  0  0  0  0  0
    4.3365    2.0625   -0.5477 C   0  0  0  0  0  0  0  0  0  0  0  0
    3.2147    2.0702   -1.3738 C   0  0  0  0  0  0  0  0  0  0  0  0
    2.2452    1.1227   -1.2444 C   0  0  0  0  0  0  0  0  0  0  0  0
    2.3799    0.1209   -0.2701 C   0  0  0  0  0  0  0  0  0  0  0  0
   -0.3520   -2.2344   -1.0138 O   0  0  0  0  0  0  0  0  0  0  0  0
   -3.7821    3.2808    0.3588 H   0  0  0  0  0  0  0  0  0  0  0  0
   -5.1833    2.6415    1.2511 H   0  0  0  0  0  0  0  0  0  0  0  0
   -3.9343    3.5770    2.1073 H   0  0  0  0  0  0  0  0  0  0  0  0
   -2.2798    1.7879    1.6483 H   0  0  0  0  0  0  0  0  0  0  0  0
   -3.6810    1.1486    2.5406 H   0  0  0  0  0  0  0  0  0  0  0  0
   -4.6754    0.4071    0.3560 H   0  0  0  0  0  0  0  0  0  0  0  0
   -3.8177    1.1987   -1.5796 H   0  0  0  0  0  0  0  0  0  0  0  0
   -2.5639    2.0726   -0.6665 H   0  0  0  0  0  0  0  0  0  0  0  0
   -3.3942   -1.0342   -2.3681 H   0  0  0  0  0  0  0  0  0  0  0  0
   -1.8272   -1.8120   -2.0371 H   0  0  0  0  0  0  0  0  0  0  0  0
   -4.2354   -1.9156   -0.4645 H   0  0  0  0  0  0  0  0  0  0  0  0
   -2.6673   -2.6956   -0.1340 H   0  0  0  0  0  0  0  0  0  0  0  0
   -3.3236   -1.1726    1.7340 H   0  0  0  0  0  0  0  0  0  0  0  0
   -1.2192    0.1873    1.7316 H   0  0  0  0  0  0  0  0  0  0  0  0
   -0.9058   -1.4675    1.1487 H   0  0  0  0  0  0  0  0  0  0  0  0
   -0.4469    1.0202   -0.2224 H   0  0  0  0  0  0  0  0  0  0  0  0
    0.4296   -0.5839   -1.9800 H   0  0  0  0  0  0  0  0  0  0  0  0
    0.8605   -2.5910    1.0261 H   0  0  0  0  0  0  0  0  0  0  0  0
    2.8781   -2.5135    2.4306 H   0  0  0  0  0  0  0  0  0  0  0  0
    5.3719    1.1182    1.0431 H   0  0  0  0  0  0  0  0  0  0  0  0
    5.0912    2.8253   -0.6696 H   0  0  0  0  0  0  0  0  0  0  0  0
    3.1124    2.8379   -2.1265 H   0  0  0  0  0  0  0  0  0  0  0  0
    1.3797    1.1395   -1.8902 H   0  0  0  0  0  0  0  0  0  0  0  0
   -0.6060   -2.5852   -0.1492 H   0  0  0  0  0  0  0  0  0  0  0  0
  1  2  1  0  0  0  0
  2  3  1  0  0  0  0
  3  4  1  0  0  0  0
  4  5  1  0  0  0  0
  5  6  1  0  0  0  0
  6  7  1  0  0  0  0
  7  8  1  0  0  0  0
  3  8  1  0  0  0  0
  8  9  1  0  0  0  0
  9 10  1  0  0  0  0
  5 10  1  0  0  0  0
 10 11  1  0  0  0  0
 11 12  1  0  0  0  0
 12 13  2  0  0  0  0
 13 14  1  0  0  0  0
 14 15  2  0  0  0  0
 15 16  1  0  0  0  0
 16 17  2  0  0  0  0
 17 18  1  0  0  0  0
 18 19  2  0  0  0  0
 19 20  1  0  0  0  0
 20 21  2  0  0  0  0
 12 21  1  0  0  0  0
 16 21  1  0  0  0  0
 11 22  1  0  0  0  0
  1 23  1  0  0  0  0
  1 24  1  0  0  0  0
  1 25  1  0  0  0  0
  2 26  1  0  0  0  0
  2 27  1  0  0  0  0
  3 28  1  0  0  0  0
  4 29  1  0  0  0  0
  4 30  1  0  0  0  0
  6 31  1  0  0  0  0
  6 32  1  0  0  0  0
  7 33  1  0  0  0  0
  7 34  1  0  0  0  0
  8 35  1  0  0  0  0
  9 36  1  0  0  0  0
  9 37  1  0  0  0  0
 10 38  1  0  0  0  0
 11 39  1  0  0  0  0
 13 40  1  0  0  0  0
 14 41  1  0  0  0  0
 17 42  1  0  0  0  0
 18 43  1  0  0  0  0
 19 44  1  0  0  0  0
 20 45  1  0  0  0  0
 22 46  1  0  0  0  0
M  END
$$$$
