C18H16O7
APtclcactv06211806423D 0   0.00000     0.00000
 
 41 43  0  0  0  0  0  0  0  0999 V2000
   -4.1859    2.7645   -1.4419 C   0  0  0  0  0  0  0  0  0  0  0  0
   -5.0424    1.8061   -0.8174 O   0  0  0  0  0  0  0  0  0  0  0  0
   -4.4500    0.7057   -0.2809 C   0  0  0  0  0  0  0  0  0  0  0  0
   -5.2264   -0.2691    0.3434 C   0  0  0  0  0  0  0  0  0  0  0  0
   -4.6253   -1.3935    0.8922 C   0  0  0  0  0  0  0  0  0  0  0  0
   -3.2580   -1.5515    0.8219 C   0  0  0  0  0  0  0  0  0  0  0  0
   -2.4735   -0.5783    0.1971 C   0  0  0  0  0  0  0  0  0  0  0  0
   -3.0794    0.5514   -0.3597 C   0  0  0  0  0  0  0  0  0  0  0  0
   -1.0098   -0.7453    0.1212 C   0  0  0  0  0  0  0  0  0  0  0  0
   -0.5050   -1.9821   -0.1361 C   0  0  0  0  0  0  0  0  0  0  0  0
    0.8962   -2.1617   -0.2131 C   0  0  0  0  0  0  0  0  0  0  0  0
    1.3833   -3.2570   -0.4425 O   0  0  0  0  0  0  0  0  0  0  0  0
    1.7442   -0.9754   -0.0061 C   0  0  0  0  0  0  0  0  0  0  0  0
    3.1400   -1.0611   -0.0651 C   0  0  0  0  0  0  0  0  0  0  0  0
    3.9024    0.0788    0.1349 C   0  0  0  0  0  0  0  0  0  0  0  0
    3.2804    1.2987    0.3929 C   0  0  0  0  0  0  0  0  0  0  0  0
    1.8985    1.3874    0.4525 C   0  0  0  0  0  0  0  0  0  0  0  0
    1.1206    0.2576    0.2540 C   0  0  0  0  0  0  0  0  0  0  0  0
   -0.2272    0.3299    0.3032 O   0  0  0  0  0  0  0  0  0  0  0  0
    4.0352    2.4110    0.5882 O   0  0  0  0  0  0  0  0  0  0  0  0
    3.3378    3.6308    0.8485 C   0  0  0  0  0  0  0  0  0  0  0  0
    5.2608    0.0065    0.0797 O   0  0  0  0  0  0  0  0  0  0  0  0
    5.8704    0.2165   -1.1956 C   0  0  0  0  0  0  0  0  0  0  0  0
    3.7426   -2.2523   -0.3160 O   0  0  0  0  0  0  0  0  0  0  0  0
   -6.5746   -0.1182    0.4154 O   0  0  0  0  0  0  0  0  0  0  0  0
   -3.6489    2.2908   -2.2637 H   0  0  0  0  0  0  0  0  0  0  0  0
   -4.7843    3.5902   -1.8269 H   0  0  0  0  0  0  0  0  0  0  0  0
   -3.4712    3.1435   -0.7114 H   0  0  0  0  0  0  0  0  0  0  0  0
   -5.2304   -2.1462    1.3757 H   0  0  0  0  0  0  0  0  0  0  0  0
   -2.7928   -2.4271    1.2500 H   0  0  0  0  0  0  0  0  0  0  0  0
   -2.4767    1.3057   -0.8438 H   0  0  0  0  0  0  0  0  0  0  0  0
   -1.1694   -2.8213   -0.2802 H   0  0  0  0  0  0  0  0  0  0  0  0
    1.4272    2.3381    0.6539 H   0  0  0  0  0  0  0  0  0  0  0  0
    4.0570    4.4385    0.9852 H   0  0  0  0  0  0  0  0  0  0  0  0
    2.6859    3.8634    0.0065 H   0  0  0  0  0  0  0  0  0  0  0  0
    2.7386    3.5211    1.7524 H   0  0  0  0  0  0  0  0  0  0  0  0
    5.5083   -0.5332   -1.8992 H   0  0  0  0  0  0  0  0  0  0  0  0
    5.6149    1.2111   -1.5611 H   0  0  0  0  0  0  0  0  0  0  0  0
    6.9528    0.1317   -1.0994 H   0  0  0  0  0  0  0  0  0  0  0  0
    3.8908   -2.4280   -1.2553 H   0  0  0  0  0  0  0  0  0  0  0  0
   -7.0534   -0.4975   -0.3342 H   0  0  0  0  0  0  0  0  0  0  0  0
  1  2  1  0  0  0  0
  2  3  1  0  0  0  0
  3  4  2  0  0  0  0
  4  5  1  0  0  0  0
  5  6  2  0  0  0  0
  6  7  1  0  0  0  0
  7  8  2  0  0  0  0
  3  8  1  0  0  0  0
  7  9  1  0  0  0  0
  9 10  2  0  0  0  0
 10 11  1  0  0  0  0
 11 12  2  0  0  0  0
 11 13  1  0  0  0  0
 13 14  2  0  0  0  0
 14 15  1  0  0  0  0
 15 16  2  0  0  0  0
 16 17  1  0  0  0  0
 17 18  2  0  0  0  0
 13 18  1  0  0  0  0
 18 19  1  0  0  0  0
  9 19  1  0  0  0  0
 16 20  1  0  0  0  0
 20 21  1  0  0  0  0
 15 22  1  0  0  0  0
 22 23  1  0  0  0  0
 14 24  1  0  0  0  0
  4 25  1  0  0  0  0
  1 26  1  0  0  0  0
  1 27  1  0  0  0  0
  1 28  1  0  0  0  0
  5 29  1  0  0  0  0
  6 30  1  0  0  0  0
  8 31  1  0  0  0  0
 10 32  1  0  0  0  0
 17 33  1  0  0  0  0
 21 34  1  0  0  0  0
 21 35  1  0  0  0  0
 21 36  1  0  0  0  0
 23 37  1  0  0  0  0
 23 38  1  0  0  0  0
 23 39  1  0  0  0  0
 24 40  1  0  0  0  0
 25 41  1  0  0  0  0
M  END
$$$$
