C12H16O2
APtclcactv06211806083D 0   0.00000     0.00000
 
 30 30  0  0  0  0  0  0  0  0999 V2000
    6.4911   -0.1861    0.0000 C   0  0  0  0  0  0  0  0  0  0  0  0
    5.1191   -0.8634    0.0005 C   0  0  0  0  0  0  0  0  0  0  0  0
    4.0233    0.2043    0.0000 C   0  0  0  0  0  0  0  0  0  0  0  0
    2.6514   -0.4730    0.0004 C   0  0  0  0  0  0  0  0  0  0  0  0
    1.5555    0.5947   -0.0000 C   0  0  0  0  0  0  0  0  0  0  0  0
    0.2535   -0.0480    0.0004 O   0  0  0  0  0  0  0  0  0  0  0  0
   -0.8262    0.7575    0.0001 C   0  0  0  0  0  0  0  0  0  0  0  0
   -0.6840    1.9639   -0.0005 O   0  0  0  0  0  0  0  0  0  0  0  0
   -2.1833    0.1738    0.0004 C   0  0  0  0  0  0  0  0  0  0  0  0
   -3.3046    1.0058    0.0001 C   0  0  0  0  0  0  0  0  0  0  0  0
   -4.5689    0.4541    0.0005 C   0  0  0  0  0  0  0  0  0  0  0  0
   -4.7273   -0.9205    0.0012 C   0  0  0  0  0  0  0  0  0  0  0  0
   -3.6204   -1.7508    0.0015 C   0  0  0  0  0  0  0  0  0  0  0  0
   -2.3504   -1.2124   -0.0047 C   0  0  0  0  0  0  0  0  0  0  0  0
    6.5895    0.4359    0.8897 H   0  0  0  0  0  0  0  0  0  0  0  0
    7.2718   -0.9468    0.0004 H   0  0  0  0  0  0  0  0  0  0  0  0
    6.5893    0.4350   -0.8902 H   0  0  0  0  0  0  0  0  0  0  0  0
    5.0207   -1.4854   -0.8892 H   0  0  0  0  0  0  0  0  0  0  0  0
    5.0209   -1.4845    0.8907 H   0  0  0  0  0  0  0  0  0  0  0  0
    4.1217    0.8263    0.8897 H   0  0  0  0  0  0  0  0  0  0  0  0
    4.1216    0.8255   -0.8903 H   0  0  0  0  0  0  0  0  0  0  0  0
    2.5530   -1.0950   -0.8892 H   0  0  0  0  0  0  0  0  0  0  0  0
    2.5531   -1.0941    0.8907 H   0  0  0  0  0  0  0  0  0  0  0  0
    1.6539    1.2167    0.8897 H   0  0  0  0  0  0  0  0  0  0  0  0
    1.6538    1.2159   -0.8903 H   0  0  0  0  0  0  0  0  0  0  0  0
   -3.1823    2.0789   -0.0001 H   0  0  0  0  0  0  0  0  0  0  0  0
   -5.4370    1.0965    0.0006 H   0  0  0  0  0  0  0  0  0  0  0  0
   -5.7194   -1.3472    0.0019 H   0  0  0  0  0  0  0  0  0  0  0  0
   -3.7512   -2.8229    0.0025 H   0  0  0  0  0  0  0  0  0  0  0  0
   -1.4873   -1.8617   -0.0044 H   0  0  0  0  0  0  0  0  0  0  0  0
  1  2  1  0  0  0  0
  2  3  1  0  0  0  0
  3  4  1  0  0  0  0
  4  5  1  0  0  0  0
  5  6  1  0  0  0  0
  6  7  1  0  0  0  0
  7  8  2  0  0  0  0
  7  9  1  0  0  0  0
  9 10  2  0  0  0  0
 10 11  1  0  0  0  0
 11 12  2  0  0  0  0
 12 13  1  0  0  0  0
 13 14  2  0  0  0  0
  9 14  1  0  0  0  0
  1 15  1  0  0  0  0
  1 16  1  0  0  0  0
  1 17  1  0  0  0  0
  2 18  1  0  0  0  0
  2 19  1  0  0  0  0
  3 20  1  0  0  0  0
  3 21  1  0  0  0  0
  4 22  1  0  0  0  0
  4 23  1  0  0  0  0
  5 24  1  0  0  0  0
  5 25  1  0  0  0  0
 10 26  1  0  0  0  0
 11 27  1  0  0  0  0
 12 28  1  0  0  0  0
 13 29  1  0  0  0  0
 14 30  1  0  0  0  0
M  END
$$$$
