C15H18O3
APtclcactv06211806423D 0   0.00000     0.00000
 
 36 38  0  0  0  0  0  0  0  0999 V2000
    5.2216    0.9759    0.1563 C   0  0  0  0  0  0  0  0  0  0  0  0
    4.5205   -0.2680    0.0988 O   0  0  0  0  0  0  0  0  0  0  0  0
    3.1638   -0.2098    0.0473 C   0  0  0  0  0  0  0  0  0  0  0  0
    2.5207    1.0181    0.0520 C   0  0  0  0  0  0  0  0  0  0  0  0
    1.1374    1.0717    0.0008 C   0  0  0  0  0  0  0  0  0  0  0  0
    0.3936   -0.1014   -0.0552 C   0  0  0  0  0  0  0  0  0  0  0  0
    1.0379   -1.3253   -0.0613 C   0  0  0  0  0  0  0  0  0  0  0  0
    2.4201   -1.3785   -0.0158 C   0  0  0  0  0  0  0  0  0  0  0  0
    0.0164   -2.4411   -0.1280 C   0  0  0  0  0  0  0  0  0  0  0  0
   -1.2909   -1.7658   -0.5964 C   0  0  0  0  0  0  0  0  0  0  0  0
   -1.1007   -0.3149   -0.1159 C   0  0  0  0  0  0  0  0  0  0  0  0
   -1.7144   -0.1433    1.2704 C   0  0  0  0  0  0  0  0  0  0  0  0
   -3.2075   -0.4847    1.2142 C   0  0  0  0  0  0  0  0  0  0  0  0
   -3.8502    0.3496    0.1284 C   0  0  0  0  0  0  0  0  0  0  0  0
   -4.8355    1.0095    0.3565 O   0  0  0  0  0  0  0  0  0  0  0  0
   -3.2278    0.3373   -1.2503 C   0  0  0  0  0  0  0  0  0  0  0  0
   -1.7335    0.6506   -1.1130 C   0  0  0  0  0  0  0  0  0  0  0  0
    0.5055    2.2748    0.0058 O   0  0  0  0  0  0  0  0  0  0  0  0
    4.9872    1.5663   -0.7294 H   0  0  0  0  0  0  0  0  0  0  0  0
    4.9178    1.5232    1.0487 H   0  0  0  0  0  0  0  0  0  0  0  0
    6.2944    0.7869    0.1936 H   0  0  0  0  0  0  0  0  0  0  0  0
    3.0966    1.9307    0.0957 H   0  0  0  0  0  0  0  0  0  0  0  0
    2.9215   -2.3350   -0.0207 H   0  0  0  0  0  0  0  0  0  0  0  0
    0.3297   -3.1980   -0.8471 H   0  0  0  0  0  0  0  0  0  0  0  0
   -0.1206   -2.8877    0.8568 H   0  0  0  0  0  0  0  0  0  0  0  0
   -1.3808   -1.8061   -1.6819 H   0  0  0  0  0  0  0  0  0  0  0  0
   -2.1567   -2.2226   -0.1171 H   0  0  0  0  0  0  0  0  0  0  0  0
   -1.2155   -0.8102    1.9736 H   0  0  0  0  0  0  0  0  0  0  0  0
   -1.5897    0.8889    1.5977 H   0  0  0  0  0  0  0  0  0  0  0  0
   -3.3329   -1.5430    0.9854 H   0  0  0  0  0  0  0  0  0  0  0  0
   -3.6716   -0.2571    2.1739 H   0  0  0  0  0  0  0  0  0  0  0  0
   -3.3556   -0.6470   -1.7009 H   0  0  0  0  0  0  0  0  0  0  0  0
   -3.7047    1.0933   -1.8740 H   0  0  0  0  0  0  0  0  0  0  0  0
   -1.6079    1.6735   -0.7580 H   0  0  0  0  0  0  0  0  0  0  0  0
   -1.2487    0.5406   -2.0830 H   0  0  0  0  0  0  0  0  0  0  0  0
    0.3561    2.6442   -0.8752 H   0  0  0  0  0  0  0  0  0  0  0  0
  1  2  1  0  0  0  0
  2  3  1  0  0  0  0
  3  4  2  0  0  0  0
  4  5  1  0  0  0  0
  5  6  2  0  0  0  0
  6  7  1  0  0  0  0
  7  8  2  0  0  0  0
  3  8  1  0  0  0  0
  7  9  1  0  0  0  0
  9 10  1  0  0  0  0
 10 11  1  0  0  0  0
  6 11  1  0  0  0  0
 11 12  1  0  0  0  0
 12 13  1  0  0  0  0
 13 14  1  0  0  0  0
 14 15  2  0  0  0  0
 14 16  1  0  0  0  0
 16 17  1  0  0  0  0
 11 17  1  0  0  0  0
  5 18  1  0  0  0  0
  1 19  1  0  0  0  0
  1 20  1  0  0  0  0
  1 21  1  0  0  0  0
  4 22  1  0  0  0  0
  8 23  1  0  0  0  0
  9 24  1  0  0  0  0
  9 25  1  0  0  0  0
 10 26  1  0  0  0  0
 10 27  1  0  0  0  0
 12 28  1  0  0  0  0
 12 29  1  0  0  0  0
 13 30  1  0  0  0  0
 13 31  1  0  0  0  0
 16 32  1  0  0  0  0
 16 33  1  0  0  0  0
 17 34  1  0  0  0  0
 17 35  1  0  0  0  0
 18 36  1  0  0  0  0
M  END
$$$$
