C17H24O4
APtclcactv06211806423D 0   0.00000     0.00000
 
 45 45  0  0  0  0  0  0  0  0999 V2000
    9.4755   -0.3764   -0.4994 C   0  0  0  0  0  0  0  0  0  0  0  0
    8.1736   -0.2123    0.2873 C   0  0  0  0  0  0  0  0  0  0  0  0
    6.9881   -0.2262   -0.6798 C   0  0  0  0  0  0  0  0  0  0  0  0
    5.6862   -0.0621    0.1070 C   0  0  0  0  0  0  0  0  0  0  0  0
    4.5007   -0.0760   -0.8601 C   0  0  0  0  0  0  0  0  0  0  0  0
    3.2183    0.0857   -0.0851 C   0  0  0  0  0  0  0  0  0  0  0  0
    3.2494    0.2002    1.1166 O   0  0  0  0  0  0  0  0  0  0  0  0
    1.8972    0.1044   -0.8099 C   0  0  0  0  0  0  0  0  0  0  0  0
    0.7799    0.2765    0.1866 C   0  0  0  0  0  0  0  0  0  0  0  0
    1.0306    0.3738    1.3639 O   0  0  0  0  0  0  0  0  0  0  0  0
   -0.6502    0.3270   -0.2860 C   0  0  0  0  0  0  0  0  0  0  0  0
   -1.5787    0.5064    0.9168 C   0  0  0  0  0  0  0  0  0  0  0  0
   -3.0088    0.5570    0.4442 C   0  0  0  0  0  0  0  0  0  0  0  0
   -3.7435   -0.6097    0.3434 C   0  0  0  0  0  0  0  0  0  0  0  0
   -5.0585   -0.5650   -0.0910 C   0  0  0  0  0  0  0  0  0  0  0  0
   -5.6366    0.6560   -0.4250 C   0  0  0  0  0  0  0  0  0  0  0  0
   -4.8946    1.8217   -0.3217 C   0  0  0  0  0  0  0  0  0  0  0  0
   -3.5848    1.7706    0.1178 C   0  0  0  0  0  0  0  0  0  0  0  0
   -6.9267    0.7050   -0.8522 O   0  0  0  0  0  0  0  0  0  0  0  0
   -5.7826   -1.7118   -0.1912 O   0  0  0  0  0  0  0  0  0  0  0  0
   -5.1241   -2.9282    0.1680 C   0  0  0  0  0  0  0  0  0  0  0  0
    9.5766    0.4440   -1.2099 H   0  0  0  0  0  0  0  0  0  0  0  0
   10.3201   -0.3665    0.1895 H   0  0  0  0  0  0  0  0  0  0  0  0
    9.4574   -1.3237   -1.0384 H   0  0  0  0  0  0  0  0  0  0  0  0
    8.0726   -1.0327    0.9978 H   0  0  0  0  0  0  0  0  0  0  0  0
    8.1918    0.7350    0.8263 H   0  0  0  0  0  0  0  0  0  0  0  0
    7.0892    0.5942   -1.3903 H   0  0  0  0  0  0  0  0  0  0  0  0
    6.9700   -1.1735   -1.2187 H   0  0  0  0  0  0  0  0  0  0  0  0
    5.5851   -0.8825    0.8175 H   0  0  0  0  0  0  0  0  0  0  0  0
    5.7043    0.8852    0.6460 H   0  0  0  0  0  0  0  0  0  0  0  0
    4.6017    0.7444   -1.5706 H   0  0  0  0  0  0  0  0  0  0  0  0
    4.4825   -1.0233   -1.3990 H   0  0  0  0  0  0  0  0  0  0  0  0
    1.8831    0.9328   -1.5182 H   0  0  0  0  0  0  0  0  0  0  0  0
    1.7639   -0.8349   -1.3467 H   0  0  0  0  0  0  0  0  0  0  0  0
   -0.7770    1.1653   -0.9711 H   0  0  0  0  0  0  0  0  0  0  0  0
   -0.8962   -0.6024   -0.7995 H   0  0  0  0  0  0  0  0  0  0  0  0
   -1.4519   -0.3318    1.6019 H   0  0  0  0  0  0  0  0  0  0  0  0
   -1.3327    1.4358    1.4303 H   0  0  0  0  0  0  0  0  0  0  0  0
   -3.2924   -1.5561    0.6028 H   0  0  0  0  0  0  0  0  0  0  0  0
   -5.3408    2.7705   -0.5803 H   0  0  0  0  0  0  0  0  0  0  0  0
   -3.0076    2.6799    0.1978 H   0  0  0  0  0  0  0  0  0  0  0  0
   -7.5724    0.8184   -0.1413 H   0  0  0  0  0  0  0  0  0  0  0  0
   -4.8034   -2.8742    1.2083 H   0  0  0  0  0  0  0  0  0  0  0  0
   -5.8120   -3.7644    0.0428 H   0  0  0  0  0  0  0  0  0  0  0  0
   -4.2547   -3.0737   -0.4732 H   0  0  0  0  0  0  0  0  0  0  0  0
  1  2  1  0  0  0  0
  2  3  1  0  0  0  0
  3  4  1  0  0  0  0
  4  5  1  0  0  0  0
  5  6  1  0  0  0  0
  6  7  2  0  0  0  0
  6  8  1  0  0  0  0
  8  9  1  0  0  0  0
  9 10  2  0  0  0  0
  9 11  1  0  0  0  0
 11 12  1  0  0  0  0
 12 13  1  0  0  0  0
 13 14  2  0  0  0  0
 14 15  1  0  0  0  0
 15 16  2  0  0  0  0
 16 17  1  0  0  0  0
 17 18  2  0  0  0  0
 13 18  1  0  0  0  0
 16 19  1  0  0  0  0
 15 20  1  0  0  0  0
 20 21  1  0  0  0  0
  1 22  1  0  0  0  0
  1 23  1  0  0  0  0
  1 24  1  0  0  0  0
  2 25  1  0  0  0  0
  2 26  1  0  0  0  0
  3 27  1  0  0  0  0
  3 28  1  0  0  0  0
  4 29  1  0  0  0  0
  4 30  1  0  0  0  0
  5 31  1  0  0  0  0
  5 32  1  0  0  0  0
  8 33  1  0  0  0  0
  8 34  1  0  0  0  0
 11 35  1  0  0  0  0
 11 36  1  0  0  0  0
 12 37  1  0  0  0  0
 12 38  1  0  0  0  0
 14 39  1  0  0  0  0
 17 40  1  0  0  0  0
 18 41  1  0  0  0  0
 19 42  1  0  0  0  0
 21 43  1  0  0  0  0
 21 44  1  0  0  0  0
 21 45  1  0  0  0  0
M  END
$$$$
