C6H10S3
APtclcactv06211805503D 0   0.00000     0.00000
 
 19 18  0  0  0  0  0  0  0  0999 V2000
    4.6635   -0.6573    0.0777 C   0  0  0  0  0  0  0  0  0  0  0  0
    3.4036   -0.6008    0.4318 C   0  0  0  0  0  0  0  0  0  0  0  0
    2.6562    0.7054    0.3516 C   0  0  0  0  0  0  0  0  0  0  0  0
    1.3371    0.5723   -0.8864 S   0  0  0  0  0  0  0  0  0  0  0  0
   -0.0000   -0.7041   -0.0002 S   0  0  0  0  0  0  0  0  0  0  0  0
   -1.3371    0.5718    0.8867 S   0  0  0  0  0  0  0  0  0  0  0  0
   -2.6562    0.7056   -0.3512 C   0  0  0  0  0  0  0  0  0  0  0  0
   -3.4036   -0.6005   -0.4322 C   0  0  0  0  0  0  0  0  0  0  0  0
   -4.6635   -0.6573   -0.0781 C   0  0  0  0  0  0  0  0  0  0  0  0
    5.1667    0.2321   -0.2717 H   0  0  0  0  0  0  0  0  0  0  0  0
    5.2003   -1.5925    0.1393 H   0  0  0  0  0  0  0  0  0  0  0  0
    2.9004   -1.4903    0.7812 H   0  0  0  0  0  0  0  0  0  0  0  0
    2.2202    0.9348    1.3239 H   0  0  0  0  0  0  0  0  0  0  0  0
    3.3444    1.5007    0.0653 H   0  0  0  0  0  0  0  0  0  0  0  0
   -3.3444    1.5008   -0.0644 H   0  0  0  0  0  0  0  0  0  0  0  0
   -2.2202    0.9356   -1.3234 H   0  0  0  0  0  0  0  0  0  0  0  0
   -2.9004   -1.4897   -0.7822 H   0  0  0  0  0  0  0  0  0  0  0  0
   -5.1667    0.2320    0.2718 H   0  0  0  0  0  0  0  0  0  0  0  0
   -5.1991   -1.5933   -0.1362 H   0  0  0  0  0  0  0  0  0  0  0  0
  1  2  2  0  0  0  0
  2  3  1  0  0  0  0
  3  4  1  0  0  0  0
  4  5  1  0  0  0  0
  5  6  1  0  0  0  0
  6  7  1  0  0  0  0
  7  8  1  0  0  0  0
  8  9  2  0  0  0  0
  1 10  1  0  0  0  0
  1 11  1  0  0  0  0
  2 12  1  0  0  0  0
  3 13  1  0  0  0  0
  3 14  1  0  0  0  0
  7 15  1  0  0  0  0
  7 16  1  0  0  0  0
  8 17  1  0  0  0  0
  9 18  1  0  0  0  0
  9 19  1  0  0  0  0
M  END
$$$$
