C10H14O
APtclcactv06211806083D 0   0.00000     0.00000
 
 25 25  0  0  0  0  0  0  0  0999 V2000
    3.0794   -0.1453   -1.2436 C   0  0  0  0  0  0  0  0  0  0  0  0
    2.5518    0.1154    0.1437 C   0  0  0  0  0  0  0  0  0  0  0  0
    3.3810    0.3999    1.1171 C   0  0  0  0  0  0  0  0  0  0  0  0
    1.0702    0.0489    0.4112 C   0  0  0  0  0  0  0  0  0  0  0  0
    0.3427    1.0810   -0.4591 C   0  0  0  0  0  0  0  0  0  0  0  0
   -1.1248    1.1316   -0.0291 C   0  0  0  0  0  0  0  0  0  0  0  0
   -1.6937   -0.2562    0.0307 C   0  0  0  0  0  0  0  0  0  0  0  0
   -0.9553   -1.3501    0.0714 C   0  0  0  0  0  0  0  0  0  0  0  0
    0.5456   -1.3436    0.0550 C   0  0  0  0  0  0  0  0  0  0  0  0
   -3.1486   -0.4052    0.0443 C   0  0  0  0  0  0  0  0  0  0  0  0
   -3.8594    0.5774    0.0076 O   0  0  0  0  0  0  0  0  0  0  0  0
    4.1655   -0.0532   -1.2426 H   0  0  0  0  0  0  0  0  0  0  0  0
    2.8005   -1.1519   -1.5552 H   0  0  0  0  0  0  0  0  0  0  0  0
    2.6539    0.5805   -1.9366 H   0  0  0  0  0  0  0  0  0  0  0  0
    3.0029    0.5867    2.1113 H   0  0  0  0  0  0  0  0  0  0  0  0
    4.4428    0.4475    0.9254 H   0  0  0  0  0  0  0  0  0  0  0  0
    0.8785    0.2573    1.4638 H   0  0  0  0  0  0  0  0  0  0  0  0
    0.7984    2.0617   -0.3222 H   0  0  0  0  0  0  0  0  0  0  0  0
    0.4074    0.7872   -1.5067 H   0  0  0  0  0  0  0  0  0  0  0  0
   -1.1972    1.5945    0.9551 H   0  0  0  0  0  0  0  0  0  0  0  0
   -1.6916    1.7239   -0.7474 H   0  0  0  0  0  0  0  0  0  0  0  0
   -1.4600   -2.3037    0.1199 H   0  0  0  0  0  0  0  0  0  0  0  0
    0.8973   -1.6180   -0.9396 H   0  0  0  0  0  0  0  0  0  0  0  0
    0.9181   -2.0671    0.7802 H   0  0  0  0  0  0  0  0  0  0  0  0
   -3.5902   -1.3898    0.0869 H   0  0  0  0  0  0  0  0  0  0  0  0
  1  2  1  0  0  0  0
  2  3  2  0  0  0  0
  2  4  1  0  0  0  0
  4  5  1  0  0  0  0
  5  6  1  0  0  0  0
  6  7  1  0  0  0  0
  7  8  2  0  0  0  0
  8  9  1  0  0  0  0
  4  9  1  0  0  0  0
  7 10  1  0  0  0  0
 10 11  2  0  0  0  0
  1 12  1  0  0  0  0
  1 13  1  0  0  0  0
  1 14  1  0  0  0  0
  3 15  1  0  0  0  0
  3 16  1  0  0  0  0
  4 17  1  0  0  0  0
  5 18  1  0  0  0  0
  5 19  1  0  0  0  0
  6 20  1  0  0  0  0
  6 21  1  0  0  0  0
  8 22  1  0  0  0  0
  9 23  1  0  0  0  0
  9 24  1  0  0  0  0
 10 25  1  0  0  0  0
M  END
$$$$
