C19H18O6
APtclcactv06211806423D 0   0.00000     0.00000
 
 43 45  0  0  0  0  0  0  0  0999 V2000
   -7.2892   -0.0482    0.8031 C   0  0  0  0  0  0  0  0  0  0  0  0
   -6.4054   -0.2890   -0.2937 O   0  0  0  0  0  0  0  0  0  0  0  0
   -5.0855   -0.0498   -0.0856 C   0  0  0  0  0  0  0  0  0  0  0  0
   -4.1806   -0.2646   -1.1105 C   0  0  0  0  0  0  0  0  0  0  0  0
   -2.8284   -0.0212   -0.9018 C   0  0  0  0  0  0  0  0  0  0  0  0
   -2.4061    0.4344    0.3597 C   0  0  0  0  0  0  0  0  0  0  0  0
   -3.3299    0.6504    1.3819 C   0  0  0  0  0  0  0  0  0  0  0  0
   -4.6563    0.4150    1.1561 C   0  0  0  0  0  0  0  0  0  0  0  0
   -0.9636    0.6664    0.5650 C   0  0  0  0  0  0  0  0  0  0  0  0
   -0.5356    1.2644    1.5373 O   0  0  0  0  0  0  0  0  0  0  0  0
   -0.0716    0.1288   -0.4804 C   0  0  0  0  0  0  0  0  0  0  0  0
   -0.6306   -0.2850   -1.6472 C   0  0  0  0  0  0  0  0  0  0  0  0
   -1.9389   -0.2114   -1.8941 O   0  0  0  0  0  0  0  0  0  0  0  0
    1.3931    0.0432   -0.2634 C   0  0  0  0  0  0  0  0  0  0  0  0
    2.1756    1.1949   -0.3174 C   0  0  0  0  0  0  0  0  0  0  0  0
    3.5414    1.1116   -0.1142 C   0  0  0  0  0  0  0  0  0  0  0  0
    4.1345   -0.1211    0.1441 C   0  0  0  0  0  0  0  0  0  0  0  0
    3.3594   -1.2691    0.1981 C   0  0  0  0  0  0  0  0  0  0  0  0
    1.9911   -1.1923    0.0013 C   0  0  0  0  0  0  0  0  0  0  0  0
    1.2314   -2.3186    0.0549 O   0  0  0  0  0  0  0  0  0  0  0  0
    1.9112   -3.5476    0.3185 C   0  0  0  0  0  0  0  0  0  0  0  0
    5.4774   -0.1992    0.3434 O   0  0  0  0  0  0  0  0  0  0  0  0
    6.0203   -1.4952    0.6036 C   0  0  0  0  0  0  0  0  0  0  0  0
    4.3061    2.2358   -0.1672 O   0  0  0  0  0  0  0  0  0  0  0  0
    3.6322    3.4667   -0.4370 C   0  0  0  0  0  0  0  0  0  0  0  0
   -7.2244    0.9990    1.0988 H   0  0  0  0  0  0  0  0  0  0  0  0
   -8.3115   -0.2784    0.5033 H   0  0  0  0  0  0  0  0  0  0  0  0
   -7.0058   -0.6813    1.6439 H   0  0  0  0  0  0  0  0  0  0  0  0
   -4.5245   -0.6208   -2.0703 H   0  0  0  0  0  0  0  0  0  0  0  0
   -2.9986    1.0064    2.3462 H   0  0  0  0  0  0  0  0  0  0  0  0
   -5.3742    0.5816    1.9456 H   0  0  0  0  0  0  0  0  0  0  0  0
    0.0151   -0.6926   -2.4110 H   0  0  0  0  0  0  0  0  0  0  0  0
    1.7163    2.1516   -0.5181 H   0  0  0  0  0  0  0  0  0  0  0  0
    3.8228   -2.2239    0.3983 H   0  0  0  0  0  0  0  0  0  0  0  0
    1.1905   -4.3652    0.3344 H   0  0  0  0  0  0  0  0  0  0  0  0
    2.6495   -3.7292   -0.4625 H   0  0  0  0  0  0  0  0  0  0  0  0
    2.4120   -3.4859    1.2847 H   0  0  0  0  0  0  0  0  0  0  0  0
    7.0984   -1.4162    0.7434 H   0  0  0  0  0  0  0  0  0  0  0  0
    5.5660   -1.9050    1.5057 H   0  0  0  0  0  0  0  0  0  0  0  0
    5.8107   -2.1530   -0.2399 H   0  0  0  0  0  0  0  0  0  0  0  0
    4.3560    4.2816   -0.4517 H   0  0  0  0  0  0  0  0  0  0  0  0
    3.1356    3.4044   -1.4053 H   0  0  0  0  0  0  0  0  0  0  0  0
    2.8910    3.6531    0.3402 H   0  0  0  0  0  0  0  0  0  0  0  0
  1  2  1  0  0  0  0
  2  3  1  0  0  0  0
  3  4  2  0  0  0  0
  4  5  1  0  0  0  0
  5  6  2  0  0  0  0
  6  7  1  0  0  0  0
  7  8  2  0  0  0  0
  3  8  1  0  0  0  0
  6  9  1  0  0  0  0
  9 10  2  0  0  0  0
  9 11  1  0  0  0  0
 11 12  2  0  0  0  0
 12 13  1  0  0  0  0
  5 13  1  0  0  0  0
 11 14  1  0  0  0  0
 14 15  2  0  0  0  0
 15 16  1  0  0  0  0
 16 17  2  0  0  0  0
 17 18  1  0  0  0  0
 18 19  2  0  0  0  0
 14 19  1  0  0  0  0
 19 20  1  0  0  0  0
 20 21  1  0  0  0  0
 17 22  1  0  0  0  0
 22 23  1  0  0  0  0
 16 24  1  0  0  0  0
 24 25  1  0  0  0  0
  1 26  1  0  0  0  0
  1 27  1  0  0  0  0
  1 28  1  0  0  0  0
  4 29  1  0  0  0  0
  7 30  1  0  0  0  0
  8 31  1  0  0  0  0
 12 32  1  0  0  0  0
 15 33  1  0  0  0  0
 18 34  1  0  0  0  0
 21 35  1  0  0  0  0
 21 36  1  0  0  0  0
 21 37  1  0  0  0  0
 23 38  1  0  0  0  0
 23 39  1  0  0  0  0
 23 40  1  0  0  0  0
 25 41  1  0  0  0  0
 25 42  1  0  0  0  0
 25 43  1  0  0  0  0
M  END
$$$$
