C11H18O2
APtclcactv06211806083D 0   0.00000     0.00000
 
 31 31  0  0  0  0  0  0  0  0999 V2000
    4.4079   -0.6125   -0.1122 C   0  0  0  0  0  0  0  0  0  0  0  0
    2.9379   -0.2868   -0.0506 C   0  0  0  0  0  0  0  0  0  0  0  0
    2.2708   -0.6849    0.9849 C   0  0  0  0  0  0  0  0  0  0  0  0
    0.8028   -0.4446    1.1826 C   0  0  0  0  0  0  0  0  0  0  0  0
    0.3189    0.6632    0.2444 C   0  0  0  0  0  0  0  0  0  0  0  0
    0.8139    0.3491   -1.1731 C   0  0  0  0  0  0  0  0  0  0  0  0
    2.3396    0.4842   -1.1906 C   0  0  0  0  0  0  0  0  0  0  0  0
   -1.2102    0.7151    0.2555 C   0  0  0  0  0  0  0  0  0  0  0  0
   -1.7004    1.0025    1.6761 C   0  0  0  0  0  0  0  0  0  0  0  0
   -1.6896    1.8238   -0.6835 C   0  0  0  0  0  0  0  0  0  0  0  0
   -1.7410   -0.5605   -0.1909 O   0  0  0  0  0  0  0  0  0  0  0  0
   -3.0770   -0.6813   -0.2391 C   0  0  0  0  0  0  0  0  0  0  0  0
   -3.5770   -1.7194   -0.6027 O   0  0  0  0  0  0  0  0  0  0  0  0
    4.6950   -1.1668    0.7814 H   0  0  0  0  0  0  0  0  0  0  0  0
    4.6092   -1.2182   -0.9958 H   0  0  0  0  0  0  0  0  0  0  0  0
    4.9830    0.3119   -0.1667 H   0  0  0  0  0  0  0  0  0  0  0  0
    2.8039   -1.2237    1.7542 H   0  0  0  0  0  0  0  0  0  0  0  0
    0.2547   -1.3626    0.9706 H   0  0  0  0  0  0  0  0  0  0  0  0
    0.6211   -0.1482    2.2157 H   0  0  0  0  0  0  0  0  0  0  0  0
    0.7235    1.6216    0.5699 H   0  0  0  0  0  0  0  0  0  0  0  0
    0.5294   -0.6677   -1.4436 H   0  0  0  0  0  0  0  0  0  0  0  0
    0.3764    1.0553   -1.8788 H   0  0  0  0  0  0  0  0  0  0  0  0
    2.6102    1.5366   -1.1041 H   0  0  0  0  0  0  0  0  0  0  0  0
    2.7265    0.0899   -2.1303 H   0  0  0  0  0  0  0  0  0  0  0  0
   -1.3019    1.9601    2.0112 H   0  0  0  0  0  0  0  0  0  0  0  0
   -2.7898    1.0395    1.6840 H   0  0  0  0  0  0  0  0  0  0  0  0
   -1.3588    0.2127    2.3451 H   0  0  0  0  0  0  0  0  0  0  0  0
   -1.3404    1.6191   -1.6956 H   0  0  0  0  0  0  0  0  0  0  0  0
   -2.7790    1.8608   -0.6756 H   0  0  0  0  0  0  0  0  0  0  0  0
   -1.2911    2.7814   -0.3484 H   0  0  0  0  0  0  0  0  0  0  0  0
   -3.7050    0.1494    0.0472 H   0  0  0  0  0  0  0  0  0  0  0  0
  1  2  1  0  0  0  0
  2  3  2  0  0  0  0
  3  4  1  0  0  0  0
  4  5  1  0  0  0  0
  5  6  1  0  0  0  0
  6  7  1  0  0  0  0
  2  7  1  0  0  0  0
  5  8  1  0  0  0  0
  8  9  1  0  0  0  0
  8 10  1  0  0  0  0
  8 11  1  0  0  0  0
 11 12  1  0  0  0  0
 12 13  2  0  0  0  0
  1 14  1  0  0  0  0
  1 15  1  0  0  0  0
  1 16  1  0  0  0  0
  3 17  1  0  0  0  0
  4 18  1  0  0  0  0
  4 19  1  0  0  0  0
  5 20  1  0  0  0  0
  6 21  1  0  0  0  0
  6 22  1  0  0  0  0
  7 23  1  0  0  0  0
  7 24  1  0  0  0  0
  9 25  1  0  0  0  0
  9 26  1  0  0  0  0
  9 27  1  0  0  0  0
 10 28  1  0  0  0  0
 10 29  1  0  0  0  0
 10 30  1  0  0  0  0
 12 31  1  0  0  0  0
M  END
$$$$
