C6H10S2
APtclcactv06211806083D 0   0.00000     0.00000
 
 18 17  0  0  0  0  0  0  0  0999 V2000
    4.0128    0.2004   -0.1242 C   0  0  0  0  0  0  0  0  0  0  0  0
    2.7512    0.5032   -0.3050 C   0  0  0  0  0  0  0  0  0  0  0  0
    1.7811   -0.5541   -0.7656 C   0  0  0  0  0  0  0  0  0  0  0  0
    0.5570   -0.8605    0.5376 S   0  0  0  0  0  0  0  0  0  0  0  0
   -0.5569    0.8604    0.5378 S   0  0  0  0  0  0  0  0  0  0  0  0
   -1.7812    0.5543   -0.7654 C   0  0  0  0  0  0  0  0  0  0  0  0
   -2.7512   -0.5031   -0.3049 C   0  0  0  0  0  0  0  0  0  0  0  0
   -4.0128   -0.2004   -0.1240 C   0  0  0  0  0  0  0  0  0  0  0  0
    4.7081    0.9581    0.2059 H   0  0  0  0  0  0  0  0  0  0  0  0
    4.3569   -0.8079   -0.3009 H   0  0  0  0  0  0  0  0  0  0  0  0
    2.4063    1.5105   -0.1239 H   0  0  0  0  0  0  0  0  0  0  0  0
    1.2736   -0.2132   -1.6680 H   0  0  0  0  0  0  0  0  0  0  0  0
    2.3226   -1.4756   -0.9794 H   0  0  0  0  0  0  0  0  0  0  0  0
   -2.3226    1.4758   -0.9790 H   0  0  0  0  0  0  0  0  0  0  0  0
   -1.2737    0.2135   -1.6678 H   0  0  0  0  0  0  0  0  0  0  0  0
   -2.4063   -1.5104   -0.1241 H   0  0  0  0  0  0  0  0  0  0  0  0
   -4.3578    0.8069   -0.3048 H   0  0  0  0  0  0  0  0  0  0  0  0
   -4.7080   -0.9582    0.2060 H   0  0  0  0  0  0  0  0  0  0  0  0
  1  2  2  0  0  0  0
  2  3  1  0  0  0  0
  3  4  1  0  0  0  0
  4  5  1  0  0  0  0
  5  6  1  0  0  0  0
  6  7  1  0  0  0  0
  7  8  2  0  0  0  0
  1  9  1  0  0  0  0
  1 10  1  0  0  0  0
  2 11  1  0  0  0  0
  3 12  1  0  0  0  0
  3 13  1  0  0  0  0
  6 14  1  0  0  0  0
  6 15  1  0  0  0  0
  7 16  1  0  0  0  0
  8 17  1  0  0  0  0
  8 18  1  0  0  0  0
M  END
$$$$
