C4H10S2
APtclcactv06211806083D 0   0.00000     0.00000
 
 16 15  0  0  0  0  0  0  0  0999 V2000
    3.2344    0.8470   -0.0985 C   0  0  0  0  0  0  0  0  0  0  0  0
    1.9750    0.1818    0.4605 C   0  0  0  0  0  0  0  0  0  0  0  0
    1.1481   -0.3934   -0.6911 C   0  0  0  0  0  0  0  0  0  0  0  0
   -0.3450   -1.1821   -0.0284 S   0  0  0  0  0  0  0  0  0  0  0  0
   -1.4567    0.4112    0.6256 S   0  0  0  0  0  0  0  0  0  0  0  0
   -2.3310    0.9413   -0.8728 C   0  0  0  0  0  0  0  0  0  0  0  0
    3.8235    1.2568    0.7220 H   0  0  0  0  0  0  0  0  0  0  0  0
    3.8270    0.1079   -0.6376 H   0  0  0  0  0  0  0  0  0  0  0  0
    2.9498    1.6504   -0.7780 H   0  0  0  0  0  0  0  0  0  0  0  0
    2.2596   -0.6216    1.1400 H   0  0  0  0  0  0  0  0  0  0  0  0
    1.3824    0.9209    0.9996 H   0  0  0  0  0  0  0  0  0  0  0  0
    0.8635    0.4099   -1.3707 H   0  0  0  0  0  0  0  0  0  0  0  0
    1.7407   -1.1325   -1.2303 H   0  0  0  0  0  0  0  0  0  0  0  0
   -2.9489    0.1226   -1.2417 H   0  0  0  0  0  0  0  0  0  0  0  0
   -2.9637    1.7979   -0.6404 H   0  0  0  0  0  0  0  0  0  0  0  0
   -1.6057    1.2219   -1.6366 H   0  0  0  0  0  0  0  0  0  0  0  0
  1  2  1  0  0  0  0
  2  3  1  0  0  0  0
  3  4  1  0  0  0  0
  4  5  1  0  0  0  0
  5  6  1  0  0  0  0
  1  7  1  0  0  0  0
  1  8  1  0  0  0  0
  1  9  1  0  0  0  0
  2 10  1  0  0  0  0
  2 11  1  0  0  0  0
  3 12  1  0  0  0  0
  3 13  1  0  0  0  0
  6 14  1  0  0  0  0
  6 15  1  0  0  0  0
  6 16  1  0  0  0  0
M  END
$$$$
