H2O3
APtclcactv06211805283D 0   0.00000     0.00000
 
  5  4  0  0  0  0  0  0  0  0999 V2000
    1.2320   -0.2772   -0.0000 O   0  0  0  0  0  0  0  0  0  0  0  0
   -0.0000    0.5229    0.0000 O   0  0  0  0  0  0  0  0  0  0  0  0
   -1.2320   -0.2772    0.0000 O   0  0  0  0  0  0  0  0  0  0  0  0
    2.0430    0.2495    0.0000 H   0  0  0  0  0  0  0  0  0  0  0  0
   -2.0430    0.2495   -0.0000 H   0  0  0  0  0  0  0  0  0  0  0  0
  1  2  1  0  0  0  0
  2  3  1  0  0  0  0
  1  4  1  0  0  0  0
  3  5  1  0  0  0  0
M  END
$$$$
