C4H6O2S2
APtclcactv06211806083D 0   0.00000     0.00000
 
 14 14  0  0  0  0  0  0  0  0999 V2000
    0.1327    1.2934    0.0866 C   0  0  0  0  0  0  0  0  0  0  0  0
   -0.5855    0.0385   -0.4490 C   0  0  0  0  0  0  0  0  0  0  0  0
    0.0178   -1.2717    0.0601 C   0  0  0  0  0  0  0  0  0  0  0  0
    1.8236   -1.0575    0.2667 S   0  0  0  0  0  0  0  0  0  0  0  0
    1.9142    0.9521   -0.2355 S   0  0  0  0  0  0  0  0  0  0  0  0
   -2.0333    0.0969   -0.0349 C   0  0  0  0  0  0  0  0  0  0  0  0
   -2.4394    1.0330    0.6121 O   0  0  0  0  0  0  0  0  0  0  0  0
   -2.8718   -0.8911   -0.3849 O   0  0  0  0  0  0  0  0  0  0  0  0
   -0.1912    2.1810   -0.4568 H   0  0  0  0  0  0  0  0  0  0  0  0
   -0.0474    1.4106    1.1552 H   0  0  0  0  0  0  0  0  0  0  0  0
   -0.5366    0.0459   -1.5379 H   0  0  0  0  0  0  0  0  0  0  0  0
   -0.4313   -1.5328    1.0184 H   0  0  0  0  0  0  0  0  0  0  0  0
   -0.1759   -2.0671   -0.6596 H   0  0  0  0  0  0  0  0  0  0  0  0
   -3.7911   -0.8096   -0.0963 H   0  0  0  0  0  0  0  0  0  0  0  0
  1  2  1  0  0  0  0
  2  3  1  0  0  0  0
  3  4  1  0  0  0  0
  4  5  1  0  0  0  0
  1  5  1  0  0  0  0
  2  6  1  0  0  0  0
  6  7  2  0  0  0  0
  6  8  1  0  0  0  0
  1  9  1  0  0  0  0
  1 10  1  0  0  0  0
  2 11  1  0  0  0  0
  3 12  1  0  0  0  0
  3 13  1  0  0  0  0
  8 14  1  0  0  0  0
M  END
$$$$
