C20H16O5
APtclcactv06291802423D 0   0.00000     0.00000
 
 41 44  0  0  0  0  0  0  0  0999 V2000
    2.5158   -3.5821   -0.5695 C   0  0  0  0  0  0  0  0  0  0  0  0
    3.2708   -2.9035    0.5442 C   0  0  0  0  0  0  0  0  0  0  0  0
    3.7163   -1.6820    0.3842 C   0  0  0  0  0  0  0  0  0  0  0  0
    3.3747   -0.9131   -0.8661 C   0  0  0  0  0  0  0  0  0  0  0  0
    2.7524    0.4069   -0.4898 C   0  0  0  0  0  0  0  0  0  0  0  0
    3.5524    1.5197   -0.3018 C   0  0  0  0  0  0  0  0  0  0  0  0
    2.9893    2.7434    0.0462 C   0  0  0  0  0  0  0  0  0  0  0  0
    1.6258    2.8565    0.2066 C   0  0  0  0  0  0  0  0  0  0  0  0
    0.8123    1.7422    0.0191 C   0  0  0  0  0  0  0  0  0  0  0  0
    1.3755    0.5068   -0.3376 C   0  0  0  0  0  0  0  0  0  0  0  0
    0.3767   -0.3954   -0.4550 O   0  0  0  0  0  0  0  0  0  0  0  0
   -0.8182    0.1583   -0.1995 C   0  0  0  0  0  0  0  0  0  0  0  0
   -0.6382    1.5052    0.1041 C   0  0  0  0  0  0  0  0  0  0  0  0
   -1.7563    2.3096    0.4121 C   0  0  0  0  0  0  0  0  0  0  0  0
   -1.5900    3.4865    0.6765 O   0  0  0  0  0  0  0  0  0  0  0  0
   -3.0003    1.8026    0.4189 O   0  0  0  0  0  0  0  0  0  0  0  0
   -3.2465    0.5052    0.1338 C   0  0  0  0  0  0  0  0  0  0  0  0
   -2.1903   -0.3649   -0.1877 C   0  0  0  0  0  0  0  0  0  0  0  0
   -2.4504   -1.7061   -0.4822 C   0  0  0  0  0  0  0  0  0  0  0  0
   -3.7343   -2.1709   -0.4572 C   0  0  0  0  0  0  0  0  0  0  0  0
   -4.7860   -1.3151   -0.1396 C   0  0  0  0  0  0  0  0  0  0  0  0
   -4.5455    0.0176    0.1509 C   0  0  0  0  0  0  0  0  0  0  0  0
   -6.0579   -1.7900   -0.1188 O   0  0  0  0  0  0  0  0  0  0  0  0
    4.8987    1.4168   -0.4577 O   0  0  0  0  0  0  0  0  0  0  0  0
    3.5134   -3.6301    1.8420 C   0  0  0  0  0  0  0  0  0  0  0  0
    3.1177   -3.5675   -1.4781 H   0  0  0  0  0  0  0  0  0  0  0  0
    2.3055   -4.6143   -0.2896 H   0  0  0  0  0  0  0  0  0  0  0  0
    1.5781   -3.0553   -0.7464 H   0  0  0  0  0  0  0  0  0  0  0  0
    4.3283   -1.2259    1.1484 H   0  0  0  0  0  0  0  0  0  0  0  0
    4.2824   -0.7356   -1.4428 H   0  0  0  0  0  0  0  0  0  0  0  0
    2.6700   -1.4892   -1.4658 H   0  0  0  0  0  0  0  0  0  0  0  0
    3.6224    3.6063    0.1911 H   0  0  0  0  0  0  0  0  0  0  0  0
    1.1892    3.8064    0.4774 H   0  0  0  0  0  0  0  0  0  0  0  0
   -1.6379   -2.3734   -0.7294 H   0  0  0  0  0  0  0  0  0  0  0  0
   -3.9350   -3.2073   -0.6852 H   0  0  0  0  0  0  0  0  0  0  0  0
   -5.3668    0.6746    0.3962 H   0  0  0  0  0  0  0  0  0  0  0  0
   -6.3356   -2.1331    0.7416 H   0  0  0  0  0  0  0  0  0  0  0  0
    5.2049    1.5915   -1.3581 H   0  0  0  0  0  0  0  0  0  0  0  0
    4.4550   -4.1760    1.7822 H   0  0  0  0  0  0  0  0  0  0  0  0
    3.5626   -2.9093    2.6582 H   0  0  0  0  0  0  0  0  0  0  0  0
    2.6983   -4.3303    2.0242 H   0  0  0  0  0  0  0  0  0  0  0  0
  1  2  1  0  0  0  0
  2  3  2  0  0  0  0
  3  4  1  0  0  0  0
  4  5  1  0  0  0  0
  5  6  2  0  0  0  0
  6  7  1  0  0  0  0
  7  8  2  0  0  0  0
  8  9  1  0  0  0  0
  9 10  2  0  0  0  0
  5 10  1  0  0  0  0
 10 11  1  0  0  0  0
 11 12  1  0  0  0  0
 12 13  2  0  0  0  0
  9 13  1  0  0  0  0
 13 14  1  0  0  0  0
 14 15  2  0  0  0  0
 14 16  1  0  0  0  0
 16 17  1  0  0  0  0
 17 18  2  0  0  0  0
 12 18  1  0  0  0  0
 18 19  1  0  0  0  0
 19 20  2  0  0  0  0
 20 21  1  0  0  0  0
 21 22  2  0  0  0  0
 17 22  1  0  0  0  0
 21 23  1  0  0  0  0
  6 24  1  0  0  0  0
  2 25  1  0  0  0  0
  1 26  1  0  0  0  0
  1 27  1  0  0  0  0
  1 28  1  0  0  0  0
  3 29  1  0  0  0  0
  4 30  1  0  0  0  0
  4 31  1  0  0  0  0
  7 32  1  0  0  0  0
  8 33  1  0  0  0  0
 19 34  1  0  0  0  0
 20 35  1  0  0  0  0
 22 36  1  0  0  0  0
 23 37  1  0  0  0  0
 24 38  1  0  0  0  0
 25 39  1  0  0  0  0
 25 40  1  0  0  0  0
 25 41  1  0  0  0  0
M  END
$$$$
