C10H15N
APtclcactv06211806083D 0   0.00000     0.00000
 
 26 26  0  0  0  0  0  0  0  0999 V2000
    5.1186    0.0672   -0.1483 C   0  0  0  0  0  0  0  0  0  0  0  0
    3.6995    0.4981   -0.5245 C   0  0  0  0  0  0  0  0  0  0  0  0
    2.6875   -0.3347    0.2649 C   0  0  0  0  0  0  0  0  0  0  0  0
    1.2685    0.0962   -0.1113 C   0  0  0  0  0  0  0  0  0  0  0  0
    0.2564   -0.7366    0.6781 C   0  0  0  0  0  0  0  0  0  0  0  0
   -1.1413   -0.3121    0.3076 C   0  0  0  0  0  0  0  0  0  0  0  0
   -2.0441   -1.2554   -0.1447 C   0  0  0  0  0  0  0  0  0  0  0  0
   -3.3278   -0.8545   -0.4831 C   0  0  0  0  0  0  0  0  0  0  0  0
   -3.6561    0.4861   -0.3530 C   0  0  0  0  0  0  0  0  0  0  0  0
   -2.6999    1.3722    0.1063 C   0  0  0  0  0  0  0  0  0  0  0  0
   -1.4902    0.9544    0.4239 N   0  0  0  0  0  0  0  0  0  0  0  0
    5.8396    0.6605   -0.7106 H   0  0  0  0  0  0  0  0  0  0  0  0
    5.2744    0.2223    0.9193 H   0  0  0  0  0  0  0  0  0  0  0  0
    5.2527   -0.9882   -0.3855 H   0  0  0  0  0  0  0  0  0  0  0  0
    3.5654    1.5535   -0.2872 H   0  0  0  0  0  0  0  0  0  0  0  0
    3.5437    0.3431   -1.5921 H   0  0  0  0  0  0  0  0  0  0  0  0
    2.8217   -1.3901    0.0277 H   0  0  0  0  0  0  0  0  0  0  0  0
    2.8433   -0.1796    1.3325 H   0  0  0  0  0  0  0  0  0  0  0  0
    1.1343    1.1516    0.1260 H   0  0  0  0  0  0  0  0  0  0  0  0
    1.1126   -0.0588   -1.1789 H   0  0  0  0  0  0  0  0  0  0  0  0
    0.3906   -1.7920    0.4409 H   0  0  0  0  0  0  0  0  0  0  0  0
    0.4123   -0.5815    1.7457 H   0  0  0  0  0  0  0  0  0  0  0  0
   -1.7536   -2.2917   -0.2340 H   0  0  0  0  0  0  0  0  0  0  0  0
   -4.0543   -1.5695   -0.8397 H   0  0  0  0  0  0  0  0  0  0  0  0
   -4.6464    0.8338   -0.6077 H   0  0  0  0  0  0  0  0  0  0  0  0
   -2.9476    2.4183    0.2102 H   0  0  0  0  0  0  0  0  0  0  0  0
  1  2  1  0  0  0  0
  2  3  1  0  0  0  0
  3  4  1  0  0  0  0
  4  5  1  0  0  0  0
  5  6  1  0  0  0  0
  6  7  2  0  0  0  0
  7  8  1  0  0  0  0
  8  9  2  0  0  0  0
  9 10  1  0  0  0  0
 10 11  2  0  0  0  0
  6 11  1  0  0  0  0
  1 12  1  0  0  0  0
  1 13  1  0  0  0  0
  1 14  1  0  0  0  0
  2 15  1  0  0  0  0
  2 16  1  0  0  0  0
  3 17  1  0  0  0  0
  3 18  1  0  0  0  0
  4 19  1  0  0  0  0
  4 20  1  0  0  0  0
  5 21  1  0  0  0  0
  5 22  1  0  0  0  0
  7 23  1  0  0  0  0
  8 24  1  0  0  0  0
  9 25  1  0  0  0  0
 10 26  1  0  0  0  0
M  END
$$$$
