C12H22O2
APtclcactv06211806093D 0   0.00000     0.00000
 
 36 36  0  0  0  0  0  0  0  0999 V2000
    7.2250   -0.7494    0.0695 C   0  0  0  0  0  0  0  0  0  0  0  0
    6.0489    0.0950   -0.4252 C   0  0  0  0  0  0  0  0  0  0  0  0
    4.7505   -0.4271    0.1933 C   0  0  0  0  0  0  0  0  0  0  0  0
    3.5744    0.4172   -0.3014 C   0  0  0  0  0  0  0  0  0  0  0  0
    2.2760   -0.1048    0.3170 C   0  0  0  0  0  0  0  0  0  0  0  0
    1.0999    0.7395   -0.1777 C   0  0  0  0  0  0  0  0  0  0  0  0
   -0.1985    0.2174    0.4407 C   0  0  0  0  0  0  0  0  0  0  0  0
   -1.3746    1.0618   -0.0540 C   0  0  0  0  0  0  0  0  0  0  0  0
   -2.6731    0.5397    0.5645 C   0  0  0  0  0  0  0  0  0  0  0  0
   -3.8511    1.4564    0.1751 C   0  0  0  0  0  0  0  0  0  0  0  0
   -4.8059    0.5002   -0.5747 C   0  0  0  0  0  0  0  0  0  0  0  0
   -4.3104   -0.8788   -0.1789 C   0  0  0  0  0  0  0  0  0  0  0  0
   -4.9802   -1.8789   -0.0734 O   0  0  0  0  0  0  0  0  0  0  0  0
   -2.9855   -0.7787    0.0318 O   0  0  0  0  0  0  0  0  0  0  0  0
    8.1500   -0.3774   -0.3711 H   0  0  0  0  0  0  0  0  0  0  0  0
    7.2879   -0.6838    1.1557 H   0  0  0  0  0  0  0  0  0  0  0  0
    7.0750   -1.7884   -0.2236 H   0  0  0  0  0  0  0  0  0  0  0  0
    6.1989    1.1340   -0.1320 H   0  0  0  0  0  0  0  0  0  0  0  0
    5.9861    0.0294   -1.5114 H   0  0  0  0  0  0  0  0  0  0  0  0
    4.6005   -1.4662   -0.0999 H   0  0  0  0  0  0  0  0  0  0  0  0
    4.8134   -0.3615    1.2795 H   0  0  0  0  0  0  0  0  0  0  0  0
    3.7244    1.4563   -0.0083 H   0  0  0  0  0  0  0  0  0  0  0  0
    3.5115    0.3516   -1.3877 H   0  0  0  0  0  0  0  0  0  0  0  0
    2.1260   -1.1439    0.0238 H   0  0  0  0  0  0  0  0  0  0  0  0
    2.3388   -0.0392    1.4032 H   0  0  0  0  0  0  0  0  0  0  0  0
    1.2499    1.7786    0.1154 H   0  0  0  0  0  0  0  0  0  0  0  0
    1.0370    0.6739   -1.2639 H   0  0  0  0  0  0  0  0  0  0  0  0
   -0.3485   -0.8216    0.1476 H   0  0  0  0  0  0  0  0  0  0  0  0
   -0.1357    0.2830    1.5269 H   0  0  0  0  0  0  0  0  0  0  0  0
   -1.2247    2.1008    0.2392 H   0  0  0  0  0  0  0  0  0  0  0  0
   -1.4375    0.9962   -1.1402 H   0  0  0  0  0  0  0  0  0  0  0  0
   -2.5780    0.4930    1.6493 H   0  0  0  0  0  0  0  0  0  0  0  0
   -4.3330    1.8628    1.0642 H   0  0  0  0  0  0  0  0  0  0  0  0
   -3.5143    2.2580   -0.4823 H   0  0  0  0  0  0  0  0  0  0  0  0
   -5.8341    0.6479   -0.2445 H   0  0  0  0  0  0  0  0  0  0  0  0
   -4.7236    0.6428   -1.6522 H   0  0  0  0  0  0  0  0  0  0  0  0
  1  2  1  0  0  0  0
  2  3  1  0  0  0  0
  3  4  1  0  0  0  0
  4  5  1  0  0  0  0
  5  6  1  0  0  0  0
  6  7  1  0  0  0  0
  7  8  1  0  0  0  0
  8  9  1  0  0  0  0
  9 10  1  0  0  0  0
 10 11  1  0  0  0  0
 11 12  1  0  0  0  0
 12 13  2  0  0  0  0
 12 14  1  0  0  0  0
  9 14  1  0  0  0  0
  1 15  1  0  0  0  0
  1 16  1  0  0  0  0
  1 17  1  0  0  0  0
  2 18  1  0  0  0  0
  2 19  1  0  0  0  0
  3 20  1  0  0  0  0
  3 21  1  0  0  0  0
  4 22  1  0  0  0  0
  4 23  1  0  0  0  0
  5 24  1  0  0  0  0
  5 25  1  0  0  0  0
  6 26  1  0  0  0  0
  6 27  1  0  0  0  0
  7 28  1  0  0  0  0
  7 29  1  0  0  0  0
  8 30  1  0  0  0  0
  8 31  1  0  0  0  0
  9 32  1  0  0  0  0
 10 33  1  0  0  0  0
 10 34  1  0  0  0  0
 11 35  1  0  0  0  0
 11 36  1  0  0  0  0
M  END
$$$$
