C10H12O2
APtclcactv06211806093D 0   0.00000     0.00000
 
 24 24  0  0  0  0  0  0  0  0999 V2000
    5.0204    0.3336   -0.0003 C   0  0  0  0  0  0  0  0  0  0  0  0
    3.5939    0.8868   -0.0007 C   0  0  0  0  0  0  0  0  0  0  0  0
    2.5969   -0.2738   -0.0001 C   0  0  0  0  0  0  0  0  0  0  0  0
    1.2431    0.2512   -0.0005 O   0  0  0  0  0  0  0  0  0  0  0  0
    0.2389   -0.6468   -0.0001 C   0  0  0  0  0  0  0  0  0  0  0  0
    0.4875   -1.8359    0.0006 O   0  0  0  0  0  0  0  0  0  0  0  0
   -1.1645   -0.1856   -0.0004 C   0  0  0  0  0  0  0  0  0  0  0  0
   -2.2077   -1.1137    0.0000 C   0  0  0  0  0  0  0  0  0  0  0  0
   -3.5159   -0.6761   -0.0004 C   0  0  0  0  0  0  0  0  0  0  0  0
   -3.7954    0.6791   -0.0012 C   0  0  0  0  0  0  0  0  0  0  0  0
   -2.7665    1.6042   -0.0016 C   0  0  0  0  0  0  0  0  0  0  0  0
   -1.4537    1.1804    0.0046 C   0  0  0  0  0  0  0  0  0  0  0  0
    5.1733   -0.2763    0.8901 H   0  0  0  0  0  0  0  0  0  0  0  0
    5.1734   -0.2773   -0.8899 H   0  0  0  0  0  0  0  0  0  0  0  0
    5.7307    1.1604   -0.0007 H   0  0  0  0  0  0  0  0  0  0  0  0
    3.4408    1.4977    0.8890 H   0  0  0  0  0  0  0  0  0  0  0  0
    3.4409    1.4967   -0.8910 H   0  0  0  0  0  0  0  0  0  0  0  0
    2.7499   -0.8847   -0.8897 H   0  0  0  0  0  0  0  0  0  0  0  0
    2.7498   -0.8837    0.8902 H   0  0  0  0  0  0  0  0  0  0  0  0
   -1.9909   -2.1717    0.0003 H   0  0  0  0  0  0  0  0  0  0  0  0
   -4.3238   -1.3928   -0.0004 H   0  0  0  0  0  0  0  0  0  0  0  0
   -4.8214    1.0163   -0.0018 H   0  0  0  0  0  0  0  0  0  0  0  0
   -2.9916    2.6605   -0.0026 H   0  0  0  0  0  0  0  0  0  0  0  0
   -0.6515    1.9035    0.0043 H   0  0  0  0  0  0  0  0  0  0  0  0
  1  2  1  0  0  0  0
  2  3  1  0  0  0  0
  3  4  1  0  0  0  0
  4  5  1  0  0  0  0
  5  6  2  0  0  0  0
  5  7  1  0  0  0  0
  7  8  2  0  0  0  0
  8  9  1  0  0  0  0
  9 10  2  0  0  0  0
 10 11  1  0  0  0  0
 11 12  2  0  0  0  0
  7 12  1  0  0  0  0
  1 13  1  0  0  0  0
  1 14  1  0  0  0  0
  1 15  1  0  0  0  0
  2 16  1  0  0  0  0
  2 17  1  0  0  0  0
  3 18  1  0  0  0  0
  3 19  1  0  0  0  0
  8 20  1  0  0  0  0
  9 21  1  0  0  0  0
 10 22  1  0  0  0  0
 11 23  1  0  0  0  0
 12 24  1  0  0  0  0
M  END
$$$$
