C6H8O2
APtclcactv06211806093D 0   0.00000     0.00000
 
 16 16  0  0  0  0  0  0  0  0999 V2000
    2.7965    0.8172    0.0529 C   0  0  0  0  0  0  0  0  0  0  0  0
    1.8568   -0.3046    0.4994 C   0  0  0  0  0  0  0  0  0  0  0  0
    0.6817   -0.4038   -0.4754 C   0  0  0  0  0  0  0  0  0  0  0  0
   -0.1910   -1.5848   -0.1198 C   0  0  0  0  0  0  0  0  0  0  0  0
   -1.3984   -1.1030    0.1639 C   0  0  0  0  0  0  0  0  0  0  0  0
   -1.3904    0.3550    0.0183 C   0  0  0  0  0  0  0  0  0  0  0  0
   -2.3469    1.0803    0.2089 O   0  0  0  0  0  0  0  0  0  0  0  0
   -0.1672    0.7723   -0.3583 O   0  0  0  0  0  0  0  0  0  0  0  0
    3.1715    0.6005   -0.9474 H   0  0  0  0  0  0  0  0  0  0  0  0
    2.2539    1.7624    0.0406 H   0  0  0  0  0  0  0  0  0  0  0  0
    3.6337    0.8878    0.7473 H   0  0  0  0  0  0  0  0  0  0  0  0
    2.3995   -1.2499    0.5117 H   0  0  0  0  0  0  0  0  0  0  0  0
    1.4819   -0.0880    1.4997 H   0  0  0  0  0  0  0  0  0  0  0  0
    1.0491   -0.5027   -1.4968 H   0  0  0  0  0  0  0  0  0  0  0  0
    0.1081   -2.6224   -0.1001 H   0  0  0  0  0  0  0  0  0  0  0  0
   -2.2528   -1.6955    0.4563 H   0  0  0  0  0  0  0  0  0  0  0  0
  1  2  1  0  0  0  0
  2  3  1  0  0  0  0
  3  4  1  0  0  0  0
  4  5  2  0  0  0  0
  5  6  1  0  0  0  0
  6  7  2  0  0  0  0
  6  8  1  0  0  0  0
  3  8  1  0  0  0  0
  1  9  1  0  0  0  0
  1 10  1  0  0  0  0
  1 11  1  0  0  0  0
  2 12  1  0  0  0  0
  2 13  1  0  0  0  0
  3 14  1  0  0  0  0
  4 15  1  0  0  0  0
  5 16  1  0  0  0  0
M  END
$$$$
