C7H14O2
APtclcactv06211806093D 0   0.00000     0.00000
 
 23 22  0  0  0  0  0  0  0  0999 V2000
   -2.6744    1.3114   -0.5717 C   0  0  0  0  0  0  0  0  0  0  0  0
   -2.4075    0.1199    0.3502 C   0  0  0  0  0  0  0  0  0  0  0  0
   -3.4899   -0.9407    0.1392 C   0  0  0  0  0  0  0  0  0  0  0  0
   -1.0371   -0.4786    0.0262 C   0  0  0  0  0  0  0  0  0  0  0  0
    0.0553    0.5407    0.3556 C   0  0  0  0  0  0  0  0  0  0  0  0
    1.4050   -0.0487    0.0366 C   0  0  0  0  0  0  0  0  0  0  0  0
    1.4850   -1.1691   -0.4086 O   0  0  0  0  0  0  0  0  0  0  0  0
    2.5184    0.6710    0.2470 O   0  0  0  0  0  0  0  0  0  0  0  0
    3.7836    0.0396   -0.0831 C   0  0  0  0  0  0  0  0  0  0  0  0
   -1.9033    2.0670   -0.4214 H   0  0  0  0  0  0  0  0  0  0  0  0
   -2.6595    0.9785   -1.6095 H   0  0  0  0  0  0  0  0  0  0  0  0
   -3.6507    1.7378   -0.3409 H   0  0  0  0  0  0  0  0  0  0  0  0
   -2.4224    0.4528    1.3879 H   0  0  0  0  0  0  0  0  0  0  0  0
   -3.4750   -1.2737   -0.8986 H   0  0  0  0  0  0  0  0  0  0  0  0
   -3.2997   -1.7896    0.7959 H   0  0  0  0  0  0  0  0  0  0  0  0
   -4.4662   -0.5144    0.3700 H   0  0  0  0  0  0  0  0  0  0  0  0
   -0.8845   -1.3796    0.6204 H   0  0  0  0  0  0  0  0  0  0  0  0
   -0.9918   -0.7301   -1.0334 H   0  0  0  0  0  0  0  0  0  0  0  0
   -0.0974    1.4417   -0.2385 H   0  0  0  0  0  0  0  0  0  0  0  0
    0.0100    0.7923    1.4153 H   0  0  0  0  0  0  0  0  0  0  0  0
    3.7964   -0.2166   -1.1424 H   0  0  0  0  0  0  0  0  0  0  0  0
    4.6006    0.7277    0.1341 H   0  0  0  0  0  0  0  0  0  0  0  0
    3.9037   -0.8661    0.5113 H   0  0  0  0  0  0  0  0  0  0  0  0
  1  2  1  0  0  0  0
  2  3  1  0  0  0  0
  2  4  1  0  0  0  0
  4  5  1  0  0  0  0
  5  6  1  0  0  0  0
  6  7  2  0  0  0  0
  6  8  1  0  0  0  0
  8  9  1  0  0  0  0
  1 10  1  0  0  0  0
  1 11  1  0  0  0  0
  1 12  1  0  0  0  0
  2 13  1  0  0  0  0
  3 14  1  0  0  0  0
  3 15  1  0  0  0  0
  3 16  1  0  0  0  0
  4 17  1  0  0  0  0
  4 18  1  0  0  0  0
  5 19  1  0  0  0  0
  5 20  1  0  0  0  0
  9 21  1  0  0  0  0
  9 22  1  0  0  0  0
  9 23  1  0  0  0  0
M  END
$$$$
