C20H18O8
APtclcactv06211806423D 0   0.00000     0.00000
 
 46 49  0  0  0  0  0  0  0  0999 V2000
    4.3659    3.1123    1.3748 C   0  0  0  0  0  0  0  0  0  0  0  0
    4.8648    1.8348    0.9732 O   0  0  0  0  0  0  0  0  0  0  0  0
    3.9604    0.9449    0.4837 C   0  0  0  0  0  0  0  0  0  0  0  0
    2.6240    1.2954    0.3930 C   0  0  0  0  0  0  0  0  0  0  0  0
    1.6977    0.3834   -0.1090 C   0  0  0  0  0  0  0  0  0  0  0  0
    2.1182   -0.8804   -0.5191 C   0  0  0  0  0  0  0  0  0  0  0  0
    3.4553   -1.2278   -0.4271 C   0  0  0  0  0  0  0  0  0  0  0  0
    4.3792   -0.3147    0.0692 C   0  0  0  0  0  0  0  0  0  0  0  0
    5.6932   -0.6576    0.1585 O   0  0  0  0  0  0  0  0  0  0  0  0
    6.5151   -0.3788   -0.9767 C   0  0  0  0  0  0  0  0  0  0  0  0
    3.8661   -2.4610   -0.8272 O   0  0  0  0  0  0  0  0  0  0  0  0
    2.8644   -3.3465   -1.3317 C   0  0  0  0  0  0  0  0  0  0  0  0
    0.2656    0.7571   -0.2064 C   0  0  0  0  0  0  0  0  0  0  0  0
   -0.1428    1.7478   -1.0407 C   0  0  0  0  0  0  0  0  0  0  0  0
   -1.4154    2.1294   -1.1496 O   0  0  0  0  0  0  0  0  0  0  0  0
   -2.4193    1.3593   -0.6863 C   0  0  0  0  0  0  0  0  0  0  0  0
   -3.7265    1.5929   -1.0888 C   0  0  0  0  0  0  0  0  0  0  0  0
   -4.7596    0.8067   -0.6025 C   0  0  0  0  0  0  0  0  0  0  0  0
   -4.4996   -0.2272    0.2978 C   0  0  0  0  0  0  0  0  0  0  0  0
   -3.2008   -0.4786    0.7093 C   0  0  0  0  0  0  0  0  0  0  0  0
   -2.1565    0.3084    0.2117 C   0  0  0  0  0  0  0  0  0  0  0  0
   -0.7578    0.0588    0.5962 C   0  0  0  0  0  0  0  0  0  0  0  0
   -0.4620   -0.6765    1.5228 O   0  0  0  0  0  0  0  0  0  0  0  0
   -2.9434   -1.4807    1.5891 O   0  0  0  0  0  0  0  0  0  0  0  0
   -2.6706   -2.7717    1.0403 C   0  0  0  0  0  0  0  0  0  0  0  0
   -5.6810   -0.8355    0.6175 O   0  0  0  0  0  0  0  0  0  0  0  0
   -6.6079   -0.4331   -0.4082 C   0  0  0  0  0  0  0  0  0  0  0  0
   -6.1021    0.8413   -0.8463 O   0  0  0  0  0  0  0  0  0  0  0  0
    5.1889    3.7237    1.7448 H   0  0  0  0  0  0  0  0  0  0  0  0
    3.9018    3.6059    0.5209 H   0  0  0  0  0  0  0  0  0  0  0  0
    3.6265    2.9815    2.1649 H   0  0  0  0  0  0  0  0  0  0  0  0
    2.2996    2.2751    0.7115 H   0  0  0  0  0  0  0  0  0  0  0  0
    1.4015   -1.5885   -0.9080 H   0  0  0  0  0  0  0  0  0  0  0  0
    6.5050    0.6924   -1.1783 H   0  0  0  0  0  0  0  0  0  0  0  0
    7.5365   -0.7007   -0.7736 H   0  0  0  0  0  0  0  0  0  0  0  0
    6.1308   -0.9154   -1.8441 H   0  0  0  0  0  0  0  0  0  0  0  0
    3.3251   -4.2930   -1.6144 H   0  0  0  0  0  0  0  0  0  0  0  0
    2.1142   -3.5234   -0.5610 H   0  0  0  0  0  0  0  0  0  0  0  0
    2.3897   -2.8984   -2.2047 H   0  0  0  0  0  0  0  0  0  0  0  0
    0.5985    2.2504   -1.6443 H   0  0  0  0  0  0  0  0  0  0  0  0
   -3.9402    2.3913   -1.7840 H   0  0  0  0  0  0  0  0  0  0  0  0
   -3.5281   -3.1071    0.4570 H   0  0  0  0  0  0  0  0  0  0  0  0
   -1.7930   -2.7147    0.3963 H   0  0  0  0  0  0  0  0  0  0  0  0
   -2.4826   -3.4779    1.8490 H   0  0  0  0  0  0  0  0  0  0  0  0
   -6.6045   -1.1495   -1.2298 H   0  0  0  0  0  0  0  0  0  0  0  0
   -7.6115   -0.3258    0.0034 H   0  0  0  0  0  0  0  0  0  0  0  0
  1  2  1  0  0  0  0
  2  3  1  0  0  0  0
  3  4  2  0  0  0  0
  4  5  1  0  0  0  0
  5  6  2  0  0  0  0
  6  7  1  0  0  0  0
  7  8  2  0  0  0  0
  3  8  1  0  0  0  0
  8  9  1  0  0  0  0
  9 10  1  0  0  0  0
  7 11  1  0  0  0  0
 11 12  1  0  0  0  0
  5 13  1  0  0  0  0
 13 14  2  0  0  0  0
 14 15  1  0  0  0  0
 15 16  1  0  0  0  0
 16 17  2  0  0  0  0
 17 18  1  0  0  0  0
 18 19  2  0  0  0  0
 19 20  1  0  0  0  0
 20 21  2  0  0  0  0
 16 21  1  0  0  0  0
 21 22  1  0  0  0  0
 13 22  1  0  0  0  0
 22 23  2  0  0  0  0
 20 24  1  0  0  0  0
 24 25  1  0  0  0  0
 19 26  1  0  0  0  0
 26 27  1  0  0  0  0
 27 28  1  0  0  0  0
 18 28  1  0  0  0  0
  1 29  1  0  0  0  0
  1 30  1  0  0  0  0
  1 31  1  0  0  0  0
  4 32  1  0  0  0  0
  6 33  1  0  0  0  0
 10 34  1  0  0  0  0
 10 35  1  0  0  0  0
 10 36  1  0  0  0  0
 12 37  1  0  0  0  0
 12 38  1  0  0  0  0
 12 39  1  0  0  0  0
 14 40  1  0  0  0  0
 17 41  1  0  0  0  0
 25 42  1  0  0  0  0
 25 43  1  0  0  0  0
 25 44  1  0  0  0  0
 27 45  1  0  0  0  0
 27 46  1  0  0  0  0
M  END
$$$$
