C10H18O
APtclcactv06211806093D 0   0.00000     0.00000
 
 29 29  0  0  0  0  0  0  0  0999 V2000
    3.8766    0.0754   -0.0936 C   0  0  0  0  0  0  0  0  0  0  0  0
    2.3706    0.0363   -0.0524 C   0  0  0  0  0  0  0  0  0  0  0  0
    1.7375    1.1583    0.0730 C   0  0  0  0  0  0  0  0  0  0  0  0
    0.2430    1.2777    0.1386 C   0  0  0  0  0  0  0  0  0  0  0  0
   -0.4114   -0.0049   -0.3794 C   0  0  0  0  0  0  0  0  0  0  0  0
    0.2479   -1.2017    0.3177 C   0  0  0  0  0  0  0  0  0  0  0  0
    1.6982   -1.3006   -0.1654 C   0  0  0  0  0  0  0  0  0  0  0  0
   -1.9076    0.0160   -0.0601 C   0  0  0  0  0  0  0  0  0  0  0  0
   -2.5564    1.2258   -0.7357 C   0  0  0  0  0  0  0  0  0  0  0  0
   -2.5579   -1.2678   -0.5796 C   0  0  0  0  0  0  0  0  0  0  0  0
   -2.0917    0.1046    1.3542 O   0  0  0  0  0  0  0  0  0  0  0  0
    4.2157    1.1076   -0.0058 H   0  0  0  0  0  0  0  0  0  0  0  0
    4.2780   -0.5105    0.7331 H   0  0  0  0  0  0  0  0  0  0  0  0
    4.2252   -0.3424   -1.0381 H   0  0  0  0  0  0  0  0  0  0  0  0
    2.3211    2.0649    0.1345 H   0  0  0  0  0  0  0  0  0  0  0  0
   -0.0609    1.4466    1.1717 H   0  0  0  0  0  0  0  0  0  0  0  0
   -0.0794    2.1203   -0.4731 H   0  0  0  0  0  0  0  0  0  0  0  0
   -0.2646   -0.0819   -1.4567 H   0  0  0  0  0  0  0  0  0  0  0  0
    0.2269   -1.0540    1.3974 H   0  0  0  0  0  0  0  0  0  0  0  0
   -0.2863   -2.1161    0.0595 H   0  0  0  0  0  0  0  0  0  0  0  0
    1.7113   -1.6314   -1.2039 H   0  0  0  0  0  0  0  0  0  0  0  0
    2.2351   -2.0234    0.4488 H   0  0  0  0  0  0  0  0  0  0  0  0
   -2.4160    1.1582   -1.8145 H   0  0  0  0  0  0  0  0  0  0  0  0
   -3.6223    1.2406   -0.5082 H   0  0  0  0  0  0  0  0  0  0  0  0
   -2.0931    2.1404   -0.3656 H   0  0  0  0  0  0  0  0  0  0  0  0
   -2.0957   -2.1297   -0.0983 H   0  0  0  0  0  0  0  0  0  0  0  0
   -3.6238   -1.2530   -0.3522 H   0  0  0  0  0  0  0  0  0  0  0  0
   -2.4175   -1.3354   -1.6584 H   0  0  0  0  0  0  0  0  0  0  0  0
   -1.7048   -0.6313    1.8480 H   0  0  0  0  0  0  0  0  0  0  0  0
  1  2  1  0  0  0  0
  2  3  2  0  0  0  0
  3  4  1  0  0  0  0
  4  5  1  0  0  0  0
  5  6  1  0  0  0  0
  6  7  1  0  0  0  0
  2  7  1  0  0  0  0
  5  8  1  0  0  0  0
  8  9  1  0  0  0  0
  8 10  1  0  0  0  0
  8 11  1  0  0  0  0
  1 12  1  0  0  0  0
  1 13  1  0  0  0  0
  1 14  1  0  0  0  0
  3 15  1  0  0  0  0
  4 16  1  0  0  0  0
  4 17  1  0  0  0  0
  5 18  1  0  0  0  0
  6 19  1  0  0  0  0
  6 20  1  0  0  0  0
  7 21  1  0  0  0  0
  7 22  1  0  0  0  0
  9 23  1  0  0  0  0
  9 24  1  0  0  0  0
  9 25  1  0  0  0  0
 10 26  1  0  0  0  0
 10 27  1  0  0  0  0
 10 28  1  0  0  0  0
 11 29  1  0  0  0  0
M  END
$$$$
