C18H30O
APtclcactv06281816283D 0   0.00000     0.00000
 
 49 48  0  0  0  0  0  0  0  0999 V2000
   -5.7339    1.2283   -1.5053 C   0  0  0  0  0  0  0  0  0  0  0  0
   -6.3819    0.1081   -0.7331 C   0  0  0  0  0  0  0  0  0  0  0  0
   -5.6459   -0.8508   -0.2281 C   0  0  0  0  0  0  0  0  0  0  0  0
   -4.1436   -0.7743   -0.3179 C   0  0  0  0  0  0  0  0  0  0  0  0
   -3.5412   -0.9157    1.0815 C   0  0  0  0  0  0  0  0  0  0  0  0
   -2.0389   -0.8393    0.9918 C   0  0  0  0  0  0  0  0  0  0  0  0
   -1.4285    0.3036    1.1852 C   0  0  0  0  0  0  0  0  0  0  0  0
    0.0774    0.3625    1.1884 C   0  0  0  0  0  0  0  0  0  0  0  0
    0.5488    1.4141    0.1821 C   0  0  0  0  0  0  0  0  0  0  0  0
    2.0547    1.4730    0.1854 C   0  0  0  0  0  0  0  0  0  0  0  0
    2.7391    0.7807   -0.6912 C   0  0  0  0  0  0  0  0  0  0  0  0
    4.2433    0.7388   -0.6096 C   0  0  0  0  0  0  0  0  0  0  0  0
    4.7114   -0.7172   -0.5656 C   0  0  0  0  0  0  0  0  0  0  0  0
    6.2156   -0.7591   -0.4840 C   0  0  0  0  0  0  0  0  0  0  0  0
    6.8480    0.2695   -0.4632 O   0  0  0  0  0  0  0  0  0  0  0  0
    6.9305   -2.0845   -0.4283 C   0  0  0  0  0  0  0  0  0  0  0  0
    2.7731    2.3283    1.1970 C   0  0  0  0  0  0  0  0  0  0  0  0
   -1.2387   -2.0775    0.6795 C   0  0  0  0  0  0  0  0  0  0  0  0
   -7.8766    0.0911   -0.5417 C   0  0  0  0  0  0  0  0  0  0  0  0
   -5.1345    0.8121   -2.3150 H   0  0  0  0  0  0  0  0  0  0  0  0
   -6.5051    1.8770   -1.9206 H   0  0  0  0  0  0  0  0  0  0  0  0
   -5.0933    1.8059   -0.8389 H   0  0  0  0  0  0  0  0  0  0  0  0
   -6.1159   -1.6961    0.2524 H   0  0  0  0  0  0  0  0  0  0  0  0
   -3.7762   -1.5791   -0.9546 H   0  0  0  0  0  0  0  0  0  0  0  0
   -3.8534    0.1866   -0.7429 H   0  0  0  0  0  0  0  0  0  0  0  0
   -3.9086   -0.1109    1.7182 H   0  0  0  0  0  0  0  0  0  0  0  0
   -3.8314   -1.8766    1.5065 H   0  0  0  0  0  0  0  0  0  0  0  0
   -2.0044    1.2036    1.3423 H   0  0  0  0  0  0  0  0  0  0  0  0
    0.4284    0.6302    2.1850 H   0  0  0  0  0  0  0  0  0  0  0  0
    0.4797   -0.6119    0.9111 H   0  0  0  0  0  0  0  0  0  0  0  0
    0.1978    1.1464   -0.8145 H   0  0  0  0  0  0  0  0  0  0  0  0
    0.1465    2.3885    0.4595 H   0  0  0  0  0  0  0  0  0  0  0  0
    2.2254    0.2400   -1.4723 H   0  0  0  0  0  0  0  0  0  0  0  0
    4.6685    1.2308   -1.4844 H   0  0  0  0  0  0  0  0  0  0  0  0
    4.5728    1.2538    0.2928 H   0  0  0  0  0  0  0  0  0  0  0  0
    4.2862   -1.2092    0.3092 H   0  0  0  0  0  0  0  0  0  0  0  0
    4.3819   -1.2322   -1.4680 H   0  0  0  0  0  0  0  0  0  0  0  0
    6.6993   -2.6600   -1.3247 H   0  0  0  0  0  0  0  0  0  0  0  0
    8.0059   -1.9152   -0.3726 H   0  0  0  0  0  0  0  0  0  0  0  0
    6.6036   -2.6370    0.4525 H   0  0  0  0  0  0  0  0  0  0  0  0
    3.0594    1.7164    2.0523 H   0  0  0  0  0  0  0  0  0  0  0  0
    3.6660    2.7569    0.7418 H   0  0  0  0  0  0  0  0  0  0  0  0
    2.1136    3.1303    1.5285 H   0  0  0  0  0  0  0  0  0  0  0  0
   -1.0353   -2.1185   -0.3906 H   0  0  0  0  0  0  0  0  0  0  0  0
   -0.2968   -2.0492    1.2275 H   0  0  0  0  0  0  0  0  0  0  0  0
   -1.8050   -2.9604    0.9758 H   0  0  0  0  0  0  0  0  0  0  0  0
   -8.3421   -0.4513   -1.3646 H   0  0  0  0  0  0  0  0  0  0  0  0
   -8.1167   -0.4019    0.4004 H   0  0  0  0  0  0  0  0  0  0  0  0
   -8.2521    1.1142   -0.5224 H   0  0  0  0  0  0  0  0  0  0  0  0
  1  2  1  0  0  0  0
  2  3  2  0  0  0  0
  3  4  1  0  0  0  0
  4  5  1  0  0  0  0
  5  6  1  0  0  0  0
  6  7  2  0  0  0  0
  7  8  1  0  0  0  0
  8  9  1  0  0  0  0
  9 10  1  0  0  0  0
 10 11  2  0  0  0  0
 11 12  1  0  0  0  0
 12 13  1  0  0  0  0
 13 14  1  0  0  0  0
 14 15  2  0  0  0  0
 14 16  1  0  0  0  0
 10 17  1  0  0  0  0
  6 18  1  0  0  0  0
  2 19  1  0  0  0  0
  1 20  1  0  0  0  0
  1 21  1  0  0  0  0
  1 22  1  0  0  0  0
  3 23  1  0  0  0  0
  4 24  1  0  0  0  0
  4 25  1  0  0  0  0
  5 26  1  0  0  0  0
  5 27  1  0  0  0  0
  7 28  1  0  0  0  0
  8 29  1  0  0  0  0
  8 30  1  0  0  0  0
  9 31  1  0  0  0  0
  9 32  1  0  0  0  0
 11 33  1  0  0  0  0
 12 34  1  0  0  0  0
 12 35  1  0  0  0  0
 13 36  1  0  0  0  0
 13 37  1  0  0  0  0
 16 38  1  0  0  0  0
 16 39  1  0  0  0  0
 16 40  1  0  0  0  0
 17 41  1  0  0  0  0
 17 42  1  0  0  0  0
 17 43  1  0  0  0  0
 18 44  1  0  0  0  0
 18 45  1  0  0  0  0
 18 46  1  0  0  0  0
 19 47  1  0  0  0  0
 19 48  1  0  0  0  0
 19 49  1  0  0  0  0
M  END
$$$$
