C18H28O4
APtclcactv06211806433D 0   0.00000     0.00000
 
 50 50  0  0  0  0  0  0  0  0999 V2000
   10.6918   -0.2769    0.2580 C   0  0  0  0  0  0  0  0  0  0  0  0
    9.3344   -0.4197    0.9493 C   0  0  0  0  0  0  0  0  0  0  0  0
    8.2178   -0.1153   -0.0514 C   0  0  0  0  0  0  0  0  0  0  0  0
    6.8604   -0.2581    0.6399 C   0  0  0  0  0  0  0  0  0  0  0  0
    5.7439    0.0464   -0.3609 C   0  0  0  0  0  0  0  0  0  0  0  0
    4.3865   -0.0964    0.3305 C   0  0  0  0  0  0  0  0  0  0  0  0
    3.2699    0.2080   -0.6703 C   0  0  0  0  0  0  0  0  0  0  0  0
    1.9125    0.0652    0.0211 C   0  0  0  0  0  0  0  0  0  0  0  0
    0.7959    0.3697   -0.9797 C   0  0  0  0  0  0  0  0  0  0  0  0
   -0.5615    0.2269   -0.2884 C   0  0  0  0  0  0  0  0  0  0  0  0
   -1.6780    0.5313   -1.2891 C   0  0  0  0  0  0  0  0  0  0  0  0
   -3.0151    0.3907   -0.6082 C   0  0  0  0  0  0  0  0  0  0  0  0
   -3.6251    1.4766   -0.0880 C   0  0  0  0  0  0  0  0  0  0  0  0
   -4.9435    1.3380    0.5835 C   0  0  0  0  0  0  0  0  0  0  0  0
   -5.4928    2.3155    1.0514 O   0  0  0  0  0  0  0  0  0  0  0  0
   -5.5815    0.0218    0.6811 C   0  0  0  0  0  0  0  0  0  0  0  0
   -4.9713   -1.0642    0.1613 C   0  0  0  0  0  0  0  0  0  0  0  0
   -3.6559   -0.9245   -0.5160 C   0  0  0  0  0  0  0  0  0  0  0  0
   -3.1066   -1.9020   -0.9838 O   0  0  0  0  0  0  0  0  0  0  0  0
   -5.5596   -2.2789    0.2521 O   0  0  0  0  0  0  0  0  0  0  0  0
   -6.8262   -2.3386    0.9111 C   0  0  0  0  0  0  0  0  0  0  0  0
   -3.0361    2.6911   -0.1776 O   0  0  0  0  0  0  0  0  0  0  0  0
   10.8048    0.7414   -0.1138 H   0  0  0  0  0  0  0  0  0  0  0  0
   11.4873   -0.4938    0.9709 H   0  0  0  0  0  0  0  0  0  0  0  0
   10.7503   -0.9767   -0.5757 H   0  0  0  0  0  0  0  0  0  0  0  0
    9.2214   -1.4381    1.3211 H   0  0  0  0  0  0  0  0  0  0  0  0
    9.2759    0.2801    1.7830 H   0  0  0  0  0  0  0  0  0  0  0  0
    8.3309    0.9031   -0.4233 H   0  0  0  0  0  0  0  0  0  0  0  0
    8.2764   -0.8151   -0.8851 H   0  0  0  0  0  0  0  0  0  0  0  0
    6.7474   -1.2764    1.0117 H   0  0  0  0  0  0  0  0  0  0  0  0
    6.8019    0.4417    1.4736 H   0  0  0  0  0  0  0  0  0  0  0  0
    5.8569    1.0647   -0.7327 H   0  0  0  0  0  0  0  0  0  0  0  0
    5.8024   -0.6534   -1.1945 H   0  0  0  0  0  0  0  0  0  0  0  0
    4.2734   -1.1148    0.7023 H   0  0  0  0  0  0  0  0  0  0  0  0
    4.3279    0.6034    1.1641 H   0  0  0  0  0  0  0  0  0  0  0  0
    3.3829    1.2264   -1.0421 H   0  0  0  0  0  0  0  0  0  0  0  0
    3.3284   -0.4918   -1.5039 H   0  0  0  0  0  0  0  0  0  0  0  0
    1.7994   -0.9531    0.3929 H   0  0  0  0  0  0  0  0  0  0  0  0
    1.8539    0.7650    0.8547 H   0  0  0  0  0  0  0  0  0  0  0  0
    0.9090    1.3880   -1.3515 H   0  0  0  0  0  0  0  0  0  0  0  0
    0.8545   -0.3301   -1.8134 H   0  0  0  0  0  0  0  0  0  0  0  0
   -0.6745   -0.7915    0.0835 H   0  0  0  0  0  0  0  0  0  0  0  0
   -0.6200    0.9267    0.5453 H   0  0  0  0  0  0  0  0  0  0  0  0
   -1.5650    1.5497   -1.6609 H   0  0  0  0  0  0  0  0  0  0  0  0
   -1.6195   -0.1685   -2.1228 H   0  0  0  0  0  0  0  0  0  0  0  0
   -6.5397   -0.0790    1.1691 H   0  0  0  0  0  0  0  0  0  0  0  0
   -6.7186   -1.9878    1.9375 H   0  0  0  0  0  0  0  0  0  0  0  0
   -7.5403   -1.7060    0.3839 H   0  0  0  0  0  0  0  0  0  0  0  0
   -7.1858   -3.3676    0.9146 H   0  0  0  0  0  0  0  0  0  0  0  0
   -3.5479    3.4070    0.2232 H   0  0  0  0  0  0  0  0  0  0  0  0
  1  2  1  0  0  0  0
  2  3  1  0  0  0  0
  3  4  1  0  0  0  0
  4  5  1  0  0  0  0
  5  6  1  0  0  0  0
  6  7  1  0  0  0  0
  7  8  1  0  0  0  0
  8  9  1  0  0  0  0
  9 10  1  0  0  0  0
 10 11  1  0  0  0  0
 11 12  1  0  0  0  0
 12 13  2  0  0  0  0
 13 14  1  0  0  0  0
 14 15  2  0  0  0  0
 14 16  1  0  0  0  0
 16 17  2  0  0  0  0
 17 18  1  0  0  0  0
 12 18  1  0  0  0  0
 18 19  2  0  0  0  0
 17 20  1  0  0  0  0
 20 21  1  0  0  0  0
 13 22  1  0  0  0  0
  1 23  1  0  0  0  0
  1 24  1  0  0  0  0
  1 25  1  0  0  0  0
  2 26  1  0  0  0  0
  2 27  1  0  0  0  0
  3 28  1  0  0  0  0
  3 29  1  0  0  0  0
  4 30  1  0  0  0  0
  4 31  1  0  0  0  0
  5 32  1  0  0  0  0
  5 33  1  0  0  0  0
  6 34  1  0  0  0  0
  6 35  1  0  0  0  0
  7 36  1  0  0  0  0
  7 37  1  0  0  0  0
  8 38  1  0  0  0  0
  8 39  1  0  0  0  0
  9 40  1  0  0  0  0
  9 41  1  0  0  0  0
 10 42  1  0  0  0  0
 10 43  1  0  0  0  0
 11 44  1  0  0  0  0
 11 45  1  0  0  0  0
 16 46  1  0  0  0  0
 21 47  1  0  0  0  0
 21 48  1  0  0  0  0
 21 49  1  0  0  0  0
 22 50  1  0  0  0  0
M  END
$$$$
