C10H12O4
APtclcactv06211806093D 0   0.00000     0.00000
 
 26 26  0  0  0  0  0  0  0  0999 V2000
    3.6343   -0.3081   -0.0083 C   0  0  0  0  0  0  0  0  0  0  0  0
    2.5539    0.7426   -0.0056 C   0  0  0  0  0  0  0  0  0  0  0  0
    2.8515    1.9185   -0.0083 O   0  0  0  0  0  0  0  0  0  0  0  0
    1.1408    0.3427    0.0003 C   0  0  0  0  0  0  0  0  0  0  0  0
    0.1357    1.3174    0.0028 C   0  0  0  0  0  0  0  0  0  0  0  0
   -1.1923    0.9375    0.0079 C   0  0  0  0  0  0  0  0  0  0  0  0
   -1.5321   -0.4136    0.0105 C   0  0  0  0  0  0  0  0  0  0  0  0
   -0.5348   -1.3863    0.0084 C   0  0  0  0  0  0  0  0  0  0  0  0
    0.7953   -1.0141   -0.0024 C   0  0  0  0  0  0  0  0  0  0  0  0
   -0.8713   -2.7040    0.0119 O   0  0  0  0  0  0  0  0  0  0  0  0
    0.2019   -3.6476    0.0096 C   0  0  0  0  0  0  0  0  0  0  0  0
   -2.8392   -0.7834    0.0154 O   0  0  0  0  0  0  0  0  0  0  0  0
   -2.1693    1.8836    0.0108 O   0  0  0  0  0  0  0  0  0  0  0  0
   -1.7496    3.2496    0.0083 C   0  0  0  0  0  0  0  0  0  0  0  0
    3.8986   -0.5600    1.0187 H   0  0  0  0  0  0  0  0  0  0  0  0
    3.2723   -1.2001   -0.5196 H   0  0  0  0  0  0  0  0  0  0  0  0
    4.5133    0.0759   -0.5260 H   0  0  0  0  0  0  0  0  0  0  0  0
    0.3984    2.3650    0.0011 H   0  0  0  0  0  0  0  0  0  0  0  0
    1.5679   -1.7687   -0.0043 H   0  0  0  0  0  0  0  0  0  0  0  0
   -0.2039   -4.6593    0.0128 H   0  0  0  0  0  0  0  0  0  0  0  0
    0.8108   -3.5032   -0.8829 H   0  0  0  0  0  0  0  0  0  0  0  0
    0.8173   -3.5002    0.8970 H   0  0  0  0  0  0  0  0  0  0  0  0
   -3.2207   -0.8914   -0.8665 H   0  0  0  0  0  0  0  0  0  0  0  0
   -1.1485    3.4466    0.8960 H   0  0  0  0  0  0  0  0  0  0  0  0
   -1.1550    3.4454   -0.8840 H   0  0  0  0  0  0  0  0  0  0  0  0
   -2.6253    3.8987    0.0110 H   0  0  0  0  0  0  0  0  0  0  0  0
  1  2  1  0  0  0  0
  2  3  2  0  0  0  0
  2  4  1  0  0  0  0
  4  5  2  0  0  0  0
  5  6  1  0  0  0  0
  6  7  2  0  0  0  0
  7  8  1  0  0  0  0
  8  9  2  0  0  0  0
  4  9  1  0  0  0  0
  8 10  1  0  0  0  0
 10 11  1  0  0  0  0
  7 12  1  0  0  0  0
  6 13  1  0  0  0  0
 13 14  1  0  0  0  0
  1 15  1  0  0  0  0
  1 16  1  0  0  0  0
  1 17  1  0  0  0  0
  5 18  1  0  0  0  0
  9 19  1  0  0  0  0
 11 20  1  0  0  0  0
 11 21  1  0  0  0  0
 11 22  1  0  0  0  0
 12 23  1  0  0  0  0
 14 24  1  0  0  0  0
 14 25  1  0  0  0  0
 14 26  1  0  0  0  0
M  END
$$$$
