C12H16O2
APtclcactv06211806433D 0   0.00000     0.00000
 
 30 31  0  0  0  0  0  0  0  0999 V2000
    5.3099   -0.2232    0.2507 C   0  0  0  0  0  0  0  0  0  0  0  0
    3.9208   -0.7456    0.6227 C   0  0  0  0  0  0  0  0  0  0  0  0
    2.8682   -0.0657   -0.2553 C   0  0  0  0  0  0  0  0  0  0  0  0
    1.4791   -0.5881    0.1168 C   0  0  0  0  0  0  0  0  0  0  0  0
    0.4266    0.0918   -0.7612 C   0  0  0  0  0  0  0  0  0  0  0  0
   -0.9245   -0.4956   -0.4947 C   0  0  0  0  0  0  0  0  0  0  0  0
   -1.7135    0.5101   -0.0431 C   0  0  0  0  0  0  0  0  0  0  0  0
   -3.1280    0.2546    0.3127 C   0  0  0  0  0  0  0  0  0  0  0  0
   -3.4876   -1.0132    0.4972 C   0  0  0  0  0  0  0  0  0  0  0  0
   -2.5191   -2.1535    0.3936 C   0  0  0  0  0  0  0  0  0  0  0  0
   -1.4312   -1.9019   -0.6528 C   0  0  0  0  0  0  0  0  0  0  0  0
   -0.9345    1.7457    0.0017 C   0  0  0  0  0  0  0  0  0  0  0  0
   -1.3570    2.8254    0.3645 O   0  0  0  0  0  0  0  0  0  0  0  0
    0.3253    1.5066   -0.4197 O   0  0  0  0  0  0  0  0  0  0  0  0
    5.3468    0.8547    0.4080 H   0  0  0  0  0  0  0  0  0  0  0  0
    6.0597   -0.7076    0.8762 H   0  0  0  0  0  0  0  0  0  0  0  0
    5.5127   -0.4447   -0.7971 H   0  0  0  0  0  0  0  0  0  0  0  0
    3.8838   -1.8235    0.4654 H   0  0  0  0  0  0  0  0  0  0  0  0
    3.7179   -0.5241    1.6705 H   0  0  0  0  0  0  0  0  0  0  0  0
    2.9052    1.0123   -0.0980 H   0  0  0  0  0  0  0  0  0  0  0  0
    3.0711   -0.2872   -1.3031 H   0  0  0  0  0  0  0  0  0  0  0  0
    1.4422   -1.6660   -0.0405 H   0  0  0  0  0  0  0  0  0  0  0  0
    1.2763   -0.3666    1.1646 H   0  0  0  0  0  0  0  0  0  0  0  0
    0.6851   -0.0236   -1.8138 H   0  0  0  0  0  0  0  0  0  0  0  0
   -3.8370    1.0624    0.4183 H   0  0  0  0  0  0  0  0  0  0  0  0
   -4.5194   -1.2298    0.7315 H   0  0  0  0  0  0  0  0  0  0  0  0
   -2.0471   -2.3049    1.3644 H   0  0  0  0  0  0  0  0  0  0  0  0
   -3.0656   -3.0573    0.1241 H   0  0  0  0  0  0  0  0  0  0  0  0
   -1.8482   -2.0304   -1.6516 H   0  0  0  0  0  0  0  0  0  0  0  0
   -0.6112   -2.6043   -0.5036 H   0  0  0  0  0  0  0  0  0  0  0  0
  1  2  1  0  0  0  0
  2  3  1  0  0  0  0
  3  4  1  0  0  0  0
  4  5  1  0  0  0  0
  5  6  1  0  0  0  0
  6  7  2  0  0  0  0
  7  8  1  0  0  0  0
  8  9  2  0  0  0  0
  9 10  1  0  0  0  0
 10 11  1  0  0  0  0
  6 11  1  0  0  0  0
  7 12  1  0  0  0  0
 12 13  2  0  0  0  0
 12 14  1  0  0  0  0
  5 14  1  0  0  0  0
  1 15  1  0  0  0  0
  1 16  1  0  0  0  0
  1 17  1  0  0  0  0
  2 18  1  0  0  0  0
  2 19  1  0  0  0  0
  3 20  1  0  0  0  0
  3 21  1  0  0  0  0
  4 22  1  0  0  0  0
  4 23  1  0  0  0  0
  5 24  1  0  0  0  0
  8 25  1  0  0  0  0
  9 26  1  0  0  0  0
 10 27  1  0  0  0  0
 10 28  1  0  0  0  0
 11 29  1  0  0  0  0
 11 30  1  0  0  0  0
M  END
$$$$
