C9H10O4
APtclcactv06211804343D 0   0.00000     0.00000
 
 23 23  0  0  0  0  0  0  0  0999 V2000
    2.0124    2.7066   -0.0765 C   0  0  0  0  0  0  0  0  0  0  0  0
    2.4827    1.3714    0.1187 O   0  0  0  0  0  0  0  0  0  0  0  0
    1.5854    0.3670   -0.0698 C   0  0  0  0  0  0  0  0  0  0  0  0
    1.9750   -0.9576    0.1033 C   0  0  0  0  0  0  0  0  0  0  0  0
    1.0570   -1.9774   -0.0899 C   0  0  0  0  0  0  0  0  0  0  0  0
   -0.2426   -1.6778   -0.4539 C   0  0  0  0  0  0  0  0  0  0  0  0
   -0.6295   -0.3618   -0.6262 C   0  0  0  0  0  0  0  0  0  0  0  0
    0.2798    0.6607   -0.4290 C   0  0  0  0  0  0  0  0  0  0  0  0
   -2.0473   -0.0409   -1.0235 C   0  0  0  0  0  0  0  0  0  0  0  0
   -2.8878    0.1375    0.2146 C   0  0  0  0  0  0  0  0  0  0  0  0
   -2.3868    0.0164    1.3074 O   0  0  0  0  0  0  0  0  0  0  0  0
   -4.1929    0.4308    0.1033 O   0  0  0  0  0  0  0  0  0  0  0  0
    3.2539   -1.2507    0.4609 O   0  0  0  0  0  0  0  0  0  0  0  0
    2.8261    3.4087    0.1052 H   0  0  0  0  0  0  0  0  0  0  0  0
    1.6563    2.8203   -1.1004 H   0  0  0  0  0  0  0  0  0  0  0  0
    1.1960    2.9093    0.6167 H   0  0  0  0  0  0  0  0  0  0  0  0
    1.3569   -3.0064    0.0434 H   0  0  0  0  0  0  0  0  0  0  0  0
   -0.9571   -2.4736   -0.6042 H   0  0  0  0  0  0  0  0  0  0  0  0
   -0.0250    1.6879   -0.5643 H   0  0  0  0  0  0  0  0  0  0  0  0
   -2.0615    0.8791   -1.6079 H   0  0  0  0  0  0  0  0  0  0  0  0
   -2.4507   -0.8577   -1.6219 H   0  0  0  0  0  0  0  0  0  0  0  0
   -4.6909    0.5358    0.9256 H   0  0  0  0  0  0  0  0  0  0  0  0
    3.3957   -1.2912    1.4166 H   0  0  0  0  0  0  0  0  0  0  0  0
  1  2  1  0  0  0  0
  2  3  1  0  0  0  0
  3  4  2  0  0  0  0
  4  5  1  0  0  0  0
  5  6  2  0  0  0  0
  6  7  1  0  0  0  0
  7  8  2  0  0  0  0
  3  8  1  0  0  0  0
  7  9  1  0  0  0  0
  9 10  1  0  0  0  0
 10 11  2  0  0  0  0
 10 12  1  0  0  0  0
  4 13  1  0  0  0  0
  1 14  1  0  0  0  0
  1 15  1  0  0  0  0
  1 16  1  0  0  0  0
  5 17  1  0  0  0  0
  6 18  1  0  0  0  0
  8 19  1  0  0  0  0
  9 20  1  0  0  0  0
  9 21  1  0  0  0  0
 12 22  1  0  0  0  0
 13 23  1  0  0  0  0
M  END
$$$$
