C15H30O
APtclcactv06211806093D 0   0.00000     0.00000
 
 46 45  0  0  0  0  0  0  0  0999 V2000
    9.3365   -0.4353    0.0655 C   0  0  0  0  0  0  0  0  0  0  0  0
    8.0909    0.4528    0.0924 C   0  0  0  0  0  0  0  0  0  0  0  0
    6.8383   -0.4234    0.0273 C   0  0  0  0  0  0  0  0  0  0  0  0
    5.5928    0.4647    0.0541 C   0  0  0  0  0  0  0  0  0  0  0  0
    4.3402   -0.4114   -0.0110 C   0  0  0  0  0  0  0  0  0  0  0  0
    3.0946    0.4767    0.0158 C   0  0  0  0  0  0  0  0  0  0  0  0
    1.8420   -0.3995   -0.0493 C   0  0  0  0  0  0  0  0  0  0  0  0
    0.5964    0.4886   -0.0225 C   0  0  0  0  0  0  0  0  0  0  0  0
   -0.6561   -0.3876   -0.0876 C   0  0  0  0  0  0  0  0  0  0  0  0
   -1.9017    0.5005   -0.0608 C   0  0  0  0  0  0  0  0  0  0  0  0
   -3.1543   -0.3757   -0.1259 C   0  0  0  0  0  0  0  0  0  0  0  0
   -4.3999    0.5124   -0.0991 C   0  0  0  0  0  0  0  0  0  0  0  0
   -5.6525   -0.3638   -0.1642 C   0  0  0  0  0  0  0  0  0  0  0  0
   -6.8980    0.5243   -0.1374 C   0  0  0  0  0  0  0  0  0  0  0  0
   -8.1318   -0.3387   -0.2015 C   0  0  0  0  0  0  0  0  0  0  0  0
   -8.9838   -0.2382    0.6484 O   0  0  0  0  0  0  0  0  0  0  0  0
    9.3201   -1.1100    0.9215 H   0  0  0  0  0  0  0  0  0  0  0  0
    9.3478   -1.0174   -0.8559 H   0  0  0  0  0  0  0  0  0  0  0  0
   10.2289    0.1889    0.1120 H   0  0  0  0  0  0  0  0  0  0  0  0
    8.0796    1.0350    1.0138 H   0  0  0  0  0  0  0  0  0  0  0  0
    8.1073    1.1276   -0.7635 H   0  0  0  0  0  0  0  0  0  0  0  0
    6.8497   -1.0055   -0.8942 H   0  0  0  0  0  0  0  0  0  0  0  0
    6.8220   -1.0981    0.8832 H   0  0  0  0  0  0  0  0  0  0  0  0
    5.5814    1.0469    0.9755 H   0  0  0  0  0  0  0  0  0  0  0  0
    5.6091    1.1395   -0.8018 H   0  0  0  0  0  0  0  0  0  0  0  0
    4.3515   -0.9936   -0.9325 H   0  0  0  0  0  0  0  0  0  0  0  0
    4.3238   -1.0862    0.8449 H   0  0  0  0  0  0  0  0  0  0  0  0
    3.0833    1.0588    0.9372 H   0  0  0  0  0  0  0  0  0  0  0  0
    3.1109    1.1514   -0.8401 H   0  0  0  0  0  0  0  0  0  0  0  0
    1.8534   -0.9817   -0.9708 H   0  0  0  0  0  0  0  0  0  0  0  0
    1.8257   -1.0742    0.8066 H   0  0  0  0  0  0  0  0  0  0  0  0
    0.5851    1.0708    0.8989 H   0  0  0  0  0  0  0  0  0  0  0  0
    0.6128    1.1633   -0.8784 H   0  0  0  0  0  0  0  0  0  0  0  0
   -0.6448   -0.9698   -1.0091 H   0  0  0  0  0  0  0  0  0  0  0  0
   -0.6725   -1.0623    0.7683 H   0  0  0  0  0  0  0  0  0  0  0  0
   -1.9131    1.0827    0.8607 H   0  0  0  0  0  0  0  0  0  0  0  0
   -1.8854    1.1752   -0.9167 H   0  0  0  0  0  0  0  0  0  0  0  0
   -3.1430   -0.9579   -1.0473 H   0  0  0  0  0  0  0  0  0  0  0  0
   -3.1706   -1.0504    0.7300 H   0  0  0  0  0  0  0  0  0  0  0  0
   -4.4112    1.0946    0.8224 H   0  0  0  0  0  0  0  0  0  0  0  0
   -4.3835    1.1871   -0.9550 H   0  0  0  0  0  0  0  0  0  0  0  0
   -5.6411   -0.9459   -1.0856 H   0  0  0  0  0  0  0  0  0  0  0  0
   -5.6688   -1.0385    0.6917 H   0  0  0  0  0  0  0  0  0  0  0  0
   -6.9094    1.1065    0.7841 H   0  0  0  0  0  0  0  0  0  0  0  0
   -6.8817    1.1991   -0.9933 H   0  0  0  0  0  0  0  0  0  0  0  0
   -8.2540   -1.0470   -1.0076 H   0  0  0  0  0  0  0  0  0  0  0  0
  1  2  1  0  0  0  0
  2  3  1  0  0  0  0
  3  4  1  0  0  0  0
  4  5  1  0  0  0  0
  5  6  1  0  0  0  0
  6  7  1  0  0  0  0
  7  8  1  0  0  0  0
  8  9  1  0  0  0  0
  9 10  1  0  0  0  0
 10 11  1  0  0  0  0
 11 12  1  0  0  0  0
 12 13  1  0  0  0  0
 13 14  1  0  0  0  0
 14 15  1  0  0  0  0
 15 16  2  0  0  0  0
  1 17  1  0  0  0  0
  1 18  1  0  0  0  0
  1 19  1  0  0  0  0
  2 20  1  0  0  0  0
  2 21  1  0  0  0  0
  3 22  1  0  0  0  0
  3 23  1  0  0  0  0
  4 24  1  0  0  0  0
  4 25  1  0  0  0  0
  5 26  1  0  0  0  0
  5 27  1  0  0  0  0
  6 28  1  0  0  0  0
  6 29  1  0  0  0  0
  7 30  1  0  0  0  0
  7 31  1  0  0  0  0
  8 32  1  0  0  0  0
  8 33  1  0  0  0  0
  9 34  1  0  0  0  0
  9 35  1  0  0  0  0
 10 36  1  0  0  0  0
 10 37  1  0  0  0  0
 11 38  1  0  0  0  0
 11 39  1  0  0  0  0
 12 40  1  0  0  0  0
 12 41  1  0  0  0  0
 13 42  1  0  0  0  0
 13 43  1  0  0  0  0
 14 44  1  0  0  0  0
 14 45  1  0  0  0  0
 15 46  1  0  0  0  0
M  END
$$$$
