C20H12O6
APtclcactv06211806433D 0   0.00000     0.00000
 
 38 43  0  0  0  0  0  0  0  0999 V2000
    0.8964    2.9755   -0.2297 C   0  0  0  0  0  0  0  0  0  0  0  0
    1.3098    1.5282   -0.1212 C   0  0  0  0  0  0  0  0  0  0  0  0
    2.7107    1.5285    0.0088 C   0  0  0  0  0  0  0  0  0  0  0  0
    3.4011    0.3308    0.1312 C   0  0  0  0  0  0  0  0  0  0  0  0
    2.7015   -0.8844    0.1263 C   0  0  0  0  0  0  0  0  0  0  0  0
    3.3824   -2.1098    0.2499 C   0  0  0  0  0  0  0  0  0  0  0  0
    2.6868   -3.2783    0.2441 C   0  0  0  0  0  0  0  0  0  0  0  0
    1.2951   -3.2890    0.1162 C   0  0  0  0  0  0  0  0  0  0  0  0
    0.5944   -2.1022   -0.0076 C   0  0  0  0  0  0  0  0  0  0  0  0
    1.2899   -0.8828   -0.0041 C   0  0  0  0  0  0  0  0  0  0  0  0
    0.6005    0.3492   -0.1302 C   0  0  0  0  0  0  0  0  0  0  0  0
   -0.8742    0.3673   -0.2709 C   0  0  0  0  0  0  0  0  0  0  0  0
   -1.6642    0.9389    0.7261 C   0  0  0  0  0  0  0  0  0  0  0  0
   -3.0405    0.9546    0.5915 C   0  0  0  0  0  0  0  0  0  0  0  0
   -3.6357    0.3992   -0.5403 C   0  0  0  0  0  0  0  0  0  0  0  0
   -2.8484   -0.1694   -1.5307 C   0  0  0  0  0  0  0  0  0  0  0  0
   -1.4749   -0.1820   -1.4034 C   0  0  0  0  0  0  0  0  0  0  0  0
   -4.9894    0.5401   -0.4337 O   0  0  0  0  0  0  0  0  0  0  0  0
   -5.1932    1.5479    0.5741 C   0  0  0  0  0  0  0  0  0  0  0  0
   -4.0221    1.4428    1.4051 O   0  0  0  0  0  0  0  0  0  0  0  0
   -0.7363   -2.3841   -0.1164 O   0  0  0  0  0  0  0  0  0  0  0  0
   -0.8805   -3.7378    0.3525 C   0  0  0  0  0  0  0  0  0  0  0  0
    0.4063   -4.3260    0.0858 O   0  0  0  0  0  0  0  0  0  0  0  0
    3.1664    2.9307   -0.0163 C   0  0  0  0  0  0  0  0  0  0  0  0
    4.3247    3.2859    0.0741 O   0  0  0  0  0  0  0  0  0  0  0  0
    2.1183    3.7589   -0.1538 O   0  0  0  0  0  0  0  0  0  0  0  0
    0.3980    3.1516   -1.1830 H   0  0  0  0  0  0  0  0  0  0  0  0
    0.2325    3.2376    0.5940 H   0  0  0  0  0  0  0  0  0  0  0  0
    4.4766    0.3347    0.2298 H   0  0  0  0  0  0  0  0  0  0  0  0
    4.4578   -2.1222    0.3491 H   0  0  0  0  0  0  0  0  0  0  0  0
    3.2186   -4.2134    0.3396 H   0  0  0  0  0  0  0  0  0  0  0  0
   -1.2018    1.3684    1.6025 H   0  0  0  0  0  0  0  0  0  0  0  0
   -3.3119   -0.5993   -2.4063 H   0  0  0  0  0  0  0  0  0  0  0  0
   -0.8651   -0.6256   -2.1765 H   0  0  0  0  0  0  0  0  0  0  0  0
   -5.2529    2.5370    0.1200 H   0  0  0  0  0  0  0  0  0  0  0  0
   -6.0929    1.3356    1.1516 H   0  0  0  0  0  0  0  0  0  0  0  0
   -1.0951   -3.7529    1.4210 H   0  0  0  0  0  0  0  0  0  0  0  0
   -1.6617   -4.2555   -0.2042 H   0  0  0  0  0  0  0  0  0  0  0  0
  1  2  1  0  0  0  0
  2  3  2  0  0  0  0
  3  4  1  0  0  0  0
  4  5  2  0  0  0  0
  5  6  1  0  0  0  0
  6  7  2  0  0  0  0
  7  8  1  0  0  0  0
  8  9  2  0  0  0  0
  9 10  1  0  0  0  0
  5 10  1  0  0  0  0
 10 11  2  0  0  0  0
  2 11  1  0  0  0  0
 11 12  1  0  0  0  0
 12 13  2  0  0  0  0
 13 14  1  0  0  0  0
 14 15  2  0  0  0  0
 15 16  1  0  0  0  0
 16 17  2  0  0  0  0
 12 17  1  0  0  0  0
 15 18  1  0  0  0  0
 18 19  1  0  0  0  0
 19 20  1  0  0  0  0
 14 20  1  0  0  0  0
  9 21  1  0  0  0  0
 21 22  1  0  0  0  0
 22 23  1  0  0  0  0
  8 23  1  0  0  0  0
  3 24  1  0  0  0  0
 24 25  2  0  0  0  0
 24 26  1  0  0  0  0
  1 26  1  0  0  0  0
  1 27  1  0  0  0  0
  1 28  1  0  0  0  0
  4 29  1  0  0  0  0
  6 30  1  0  0  0  0
  7 31  1  0  0  0  0
 13 32  1  0  0  0  0
 16 33  1  0  0  0  0
 17 34  1  0  0  0  0
 19 35  1  0  0  0  0
 19 36  1  0  0  0  0
 22 37  1  0  0  0  0
 22 38  1  0  0  0  0
M  END
$$$$
