C13H14O2
APtclcactv06211806433D 0   0.00000     0.00000
 
 29 30  0  0  0  0  0  0  0  0999 V2000
    4.4776    0.8730   -0.1946 C   0  0  0  0  0  0  0  0  0  0  0  0
    3.4700   -0.2449   -0.1165 C   0  0  0  0  0  0  0  0  0  0  0  0
    3.8377   -1.3986   -0.1854 O   0  0  0  0  0  0  0  0  0  0  0  0
    2.0425    0.0628    0.0431 C   0  0  0  0  0  0  0  0  0  0  0  0
    1.1062   -0.9749    0.1157 C   0  0  0  0  0  0  0  0  0  0  0  0
   -0.2367   -0.6702    0.2662 C   0  0  0  0  0  0  0  0  0  0  0  0
   -0.6537    0.6697    0.3450 C   0  0  0  0  0  0  0  0  0  0  0  0
    0.2799    1.6918    0.2718 C   0  0  0  0  0  0  0  0  0  0  0  0
    1.6176    1.3954    0.1285 C   0  0  0  0  0  0  0  0  0  0  0  0
   -1.9754    0.9339    0.4921 O   0  0  0  0  0  0  0  0  0  0  0  0
   -2.8920    0.0427   -0.1441 C   0  0  0  0  0  0  0  0  0  0  0  0
   -2.5354   -1.3888    0.1582 C   0  0  0  0  0  0  0  0  0  0  0  0
   -1.2636   -1.7323    0.3485 C   0  0  0  0  0  0  0  0  0  0  0  0
   -4.3071    0.3279    0.3628 C   0  0  0  0  0  0  0  0  0  0  0  0
   -2.8446    0.2657   -1.6570 C   0  0  0  0  0  0  0  0  0  0  0  0
    5.4769    0.4539   -0.3117 H   0  0  0  0  0  0  0  0  0  0  0  0
    4.2483    1.5098   -1.0491 H   0  0  0  0  0  0  0  0  0  0  0  0
    4.4363    1.4640    0.7203 H   0  0  0  0  0  0  0  0  0  0  0  0
    1.4278   -2.0041    0.0546 H   0  0  0  0  0  0  0  0  0  0  0  0
   -0.0412    2.7212    0.3321 H   0  0  0  0  0  0  0  0  0  0  0  0
    2.3418    2.1946    0.0722 H   0  0  0  0  0  0  0  0  0  0  0  0
   -3.3118   -2.1369    0.2205 H   0  0  0  0  0  0  0  0  0  0  0  0
   -0.9893   -2.7559    0.5568 H   0  0  0  0  0  0  0  0  0  0  0  0
   -4.5764    1.3577    0.1282 H   0  0  0  0  0  0  0  0  0  0  0  0
   -5.0099   -0.3507   -0.1206 H   0  0  0  0  0  0  0  0  0  0  0  0
   -4.3431    0.1798    1.4421 H   0  0  0  0  0  0  0  0  0  0  0  0
   -1.8354    0.0731   -2.0212 H   0  0  0  0  0  0  0  0  0  0  0  0
   -3.5431   -0.4131   -2.1464 H   0  0  0  0  0  0  0  0  0  0  0  0
   -3.1214    1.2958   -1.8813 H   0  0  0  0  0  0  0  0  0  0  0  0
  1  2  1  0  0  0  0
  2  3  2  0  0  0  0
  2  4  1  0  0  0  0
  4  5  2  0  0  0  0
  5  6  1  0  0  0  0
  6  7  2  0  0  0  0
  7  8  1  0  0  0  0
  8  9  2  0  0  0  0
  4  9  1  0  0  0  0
  7 10  1  0  0  0  0
 10 11  1  0  0  0  0
 11 12  1  0  0  0  0
 12 13  2  0  0  0  0
  6 13  1  0  0  0  0
 11 14  1  0  0  0  0
 11 15  1  0  0  0  0
  1 16  1  0  0  0  0
  1 17  1  0  0  0  0
  1 18  1  0  0  0  0
  5 19  1  0  0  0  0
  8 20  1  0  0  0  0
  9 21  1  0  0  0  0
 12 22  1  0  0  0  0
 13 23  1  0  0  0  0
 14 24  1  0  0  0  0
 14 25  1  0  0  0  0
 14 26  1  0  0  0  0
 15 27  1  0  0  0  0
 15 28  1  0  0  0  0
 15 29  1  0  0  0  0
M  END
$$$$
