C24H30O3
APtclcactv06281816283D 0   0.00000     0.00000
 
 57 58  0  0  0  0  0  0  0  0999 V2000
   -8.5028   -0.4185    1.7950 C   0  0  0  0  0  0  0  0  0  0  0  0
   -9.0443    0.6601    0.8925 C   0  0  0  0  0  0  0  0  0  0  0  0
   -8.2213    1.4233    0.2170 C   0  0  0  0  0  0  0  0  0  0  0  0
   -6.7399    1.1490    0.2507 C   0  0  0  0  0  0  0  0  0  0  0  0
   -6.2156    1.0028   -1.1792 C   0  0  0  0  0  0  0  0  0  0  0  0
   -4.7342    0.7284   -1.1456 C   0  0  0  0  0  0  0  0  0  0  0  0
   -4.2953   -0.5050   -1.1919 C   0  0  0  0  0  0  0  0  0  0  0  0
   -2.8141   -0.7758   -1.2530 C   0  0  0  0  0  0  0  0  0  0  0  0
   -2.4228   -1.7292   -0.1221 C   0  0  0  0  0  0  0  0  0  0  0  0
   -0.9417   -2.0000   -0.1832 C   0  0  0  0  0  0  0  0  0  0  0  0
   -0.1158   -1.2935    0.5482 C   0  0  0  0  0  0  0  0  0  0  0  0
    1.3653   -1.5644    0.4871 C   0  0  0  0  0  0  0  0  0  0  0  0
    2.0727   -0.3260    0.3964 O   0  0  0  0  0  0  0  0  0  0  0  0
    3.4270   -0.3931    0.3324 C   0  0  0  0  0  0  0  0  0  0  0  0
    4.1690    0.7731    0.2433 C   0  0  0  0  0  0  0  0  0  0  0  0
    5.5527    0.7060    0.1779 C   0  0  0  0  0  0  0  0  0  0  0  0
    6.1854   -0.5507    0.2030 C   0  0  0  0  0  0  0  0  0  0  0  0
    5.4198   -1.7190    0.2929 C   0  0  0  0  0  0  0  0  0  0  0  0
    4.0596   -1.6346    0.3626 C   0  0  0  0  0  0  0  0  0  0  0  0
    7.6469   -0.6107    0.1333 C   0  0  0  0  0  0  0  0  0  0  0  0
    8.3338    0.5581    0.0467 C   0  0  0  0  0  0  0  0  0  0  0  0
    7.6348    1.7825    0.0264 C   0  0  0  0  0  0  0  0  0  0  0  0
    8.2628    2.8231   -0.0514 O   0  0  0  0  0  0  0  0  0  0  0  0
    6.2949    1.8305    0.0902 O   0  0  0  0  0  0  0  0  0  0  0  0
   -0.4104   -3.0837   -1.0857 C   0  0  0  0  0  0  0  0  0  0  0  0
   -3.7577    1.8730   -1.0586 C   0  0  0  0  0  0  0  0  0  0  0  0
  -10.5326    0.8606    0.7670 C   0  0  0  0  0  0  0  0  0  0  0  0
   -7.8022    0.0202    2.5056 H   0  0  0  0  0  0  0  0  0  0  0  0
   -9.3251   -0.8857    2.3368 H   0  0  0  0  0  0  0  0  0  0  0  0
   -7.9892   -1.1700    1.1954 H   0  0  0  0  0  0  0  0  0  0  0  0
   -8.6045    2.2492   -0.3640 H   0  0  0  0  0  0  0  0  0  0  0  0
   -6.2282    1.9763    0.7425 H   0  0  0  0  0  0  0  0  0  0  0  0
   -6.5535    0.2274    0.8020 H   0  0  0  0  0  0  0  0  0  0  0  0
   -6.7273    0.1754   -1.6710 H   0  0  0  0  0  0  0  0  0  0  0  0
   -6.4020    1.9244   -1.7305 H   0  0  0  0  0  0  0  0  0  0  0  0
   -4.9949   -1.3277   -1.1863 H   0  0  0  0  0  0  0  0  0  0  0  0
   -2.5670   -1.2298   -2.2127 H   0  0  0  0  0  0  0  0  0  0  0  0
   -2.2685    0.1614   -1.1433 H   0  0  0  0  0  0  0  0  0  0  0  0
   -2.6699   -1.2752    0.8376 H   0  0  0  0  0  0  0  0  0  0  0  0
   -2.9684   -2.6664   -0.2318 H   0  0  0  0  0  0  0  0  0  0  0  0
   -0.4965   -0.5169    1.1950 H   0  0  0  0  0  0  0  0  0  0  0  0
    1.6752   -2.0947    1.3875 H   0  0  0  0  0  0  0  0  0  0  0  0
    1.5873   -2.1745   -0.3885 H   0  0  0  0  0  0  0  0  0  0  0  0
    3.6717    1.7316    0.2246 H   0  0  0  0  0  0  0  0  0  0  0  0
    5.9044   -2.6840    0.3120 H   0  0  0  0  0  0  0  0  0  0  0  0
    3.4690   -2.5361    0.4320 H   0  0  0  0  0  0  0  0  0  0  0  0
    8.1646   -1.5584    0.1505 H   0  0  0  0  0  0  0  0  0  0  0  0
    9.4125    0.5495   -0.0060 H   0  0  0  0  0  0  0  0  0  0  0  0
   -0.1893   -2.6634   -2.0668 H   0  0  0  0  0  0  0  0  0  0  0  0
    0.5000   -3.5009   -0.6555 H   0  0  0  0  0  0  0  0  0  0  0  0
   -1.1579   -3.8705   -1.1876 H   0  0  0  0  0  0  0  0  0  0  0  0
   -3.4818    2.0368   -0.0169 H   0  0  0  0  0  0  0  0  0  0  0  0
   -2.8656    1.6342   -1.6375 H   0  0  0  0  0  0  0  0  0  0  0  0
   -4.2195    2.7757   -1.4584 H   0  0  0  0  0  0  0  0  0  0  0  0
  -10.8676    1.5753    1.5188 H   0  0  0  0  0  0  0  0  0  0  0  0
  -10.7652    1.2429   -0.2269 H   0  0  0  0  0  0  0  0  0  0  0  0
  -11.0416   -0.0913    0.9184 H   0  0  0  0  0  0  0  0  0  0  0  0
  1  2  1  0  0  0  0
  2  3  2  0  0  0  0
  3  4  1  0  0  0  0
  4  5  1  0  0  0  0
  5  6  1  0  0  0  0
  6  7  2  0  0  0  0
  7  8  1  0  0  0  0
  8  9  1  0  0  0  0
  9 10  1  0  0  0  0
 10 11  2  0  0  0  0
 11 12  1  0  0  0  0
 12 13  1  0  0  0  0
 13 14  1  0  0  0  0
 14 15  2  0  0  0  0
 15 16  1  0  0  0  0
 16 17  2  0  0  0  0
 17 18  1  0  0  0  0
 18 19  2  0  0  0  0
 14 19  1  0  0  0  0
 17 20  1  0  0  0  0
 20 21  2  0  0  0  0
 21 22  1  0  0  0  0
 22 23  2  0  0  0  0
 22 24  1  0  0  0  0
 16 24  1  0  0  0  0
 10 25  1  0  0  0  0
  6 26  1  0  0  0  0
  2 27  1  0  0  0  0
  1 28  1  0  0  0  0
  1 29  1  0  0  0  0
  1 30  1  0  0  0  0
  3 31  1  0  0  0  0
  4 32  1  0  0  0  0
  4 33  1  0  0  0  0
  5 34  1  0  0  0  0
  5 35  1  0  0  0  0
  7 36  1  0  0  0  0
  8 37  1  0  0  0  0
  8 38  1  0  0  0  0
  9 39  1  0  0  0  0
  9 40  1  0  0  0  0
 11 41  1  0  0  0  0
 12 42  1  0  0  0  0
 12 43  1  0  0  0  0
 15 44  1  0  0  0  0
 18 45  1  0  0  0  0
 19 46  1  0  0  0  0
 20 47  1  0  0  0  0
 21 48  1  0  0  0  0
 25 49  1  0  0  0  0
 25 50  1  0  0  0  0
 25 51  1  0  0  0  0
 26 52  1  0  0  0  0
 26 53  1  0  0  0  0
 26 54  1  0  0  0  0
 27 55  1  0  0  0  0
 27 56  1  0  0  0  0
 27 57  1  0  0  0  0
M  END
$$$$
