C14H12O4
APtclcactv06211806433D 0   0.00000     0.00000
 
 30 32  0  0  0  0  0  0  0  0999 V2000
    2.5145    3.4264    0.1625 C   0  0  0  0  0  0  0  0  0  0  0  0
    2.9275    2.0650    0.0279 O   0  0  0  0  0  0  0  0  0  0  0  0
    1.9459    1.1249   -0.0331 C   0  0  0  0  0  0  0  0  0  0  0  0
    2.2783   -0.2216   -0.1643 C   0  0  0  0  0  0  0  0  0  0  0  0
    1.2852   -1.1871   -0.2274 C   0  0  0  0  0  0  0  0  0  0  0  0
   -0.0551   -0.8144   -0.1597 C   0  0  0  0  0  0  0  0  0  0  0  0
   -0.3831    0.5410   -0.0278 C   0  0  0  0  0  0  0  0  0  0  0  0
    0.6187    1.5055    0.0407 C   0  0  0  0  0  0  0  0  0  0  0  0
   -1.8571    0.5935    0.0141 C   0  0  0  0  0  0  0  0  0  0  0  0
   -2.7834    1.6238    0.1318 C   0  0  0  0  0  0  0  0  0  0  0  0
   -4.1320    1.3334    0.1396 C   0  0  0  0  0  0  0  0  0  0  0  0
   -4.5613    0.0206    0.0311 C   0  0  0  0  0  0  0  0  0  0  0  0
   -3.6506   -1.0089   -0.0861 C   0  0  0  0  0  0  0  0  0  0  0  0
   -2.2883   -0.7360   -0.0964 C   0  0  0  0  0  0  0  0  0  0  0  0
   -1.2013   -1.5324   -0.1964 O   0  0  0  0  0  0  0  0  0  0  0  0
    1.6203   -2.4996   -0.3560 O   0  0  0  0  0  0  0  0  0  0  0  0
    1.8123   -3.2414    0.8502 C   0  0  0  0  0  0  0  0  0  0  0  0
    3.5862   -0.5916   -0.2314 O   0  0  0  0  0  0  0  0  0  0  0  0
    3.3929    4.0707    0.1992 H   0  0  0  0  0  0  0  0  0  0  0  0
    1.8954    3.7043   -0.6906 H   0  0  0  0  0  0  0  0  0  0  0  0
    1.9400    3.5426    1.0815 H   0  0  0  0  0  0  0  0  0  0  0  0
    0.3596    2.5490    0.1424 H   0  0  0  0  0  0  0  0  0  0  0  0
   -2.4486    2.6470    0.2170 H   0  0  0  0  0  0  0  0  0  0  0  0
   -4.8546    2.1309    0.2308 H   0  0  0  0  0  0  0  0  0  0  0  0
   -5.6187   -0.1989    0.0387 H   0  0  0  0  0  0  0  0  0  0  0  0
   -3.9970   -2.0284   -0.1701 H   0  0  0  0  0  0  0  0  0  0  0  0
    2.6165   -2.7893    1.4306 H   0  0  0  0  0  0  0  0  0  0  0  0
    0.8920   -3.2299    1.4342 H   0  0  0  0  0  0  0  0  0  0  0  0
    2.0747   -4.2707    0.6059 H   0  0  0  0  0  0  0  0  0  0  0  0
    3.9866   -0.7787    0.6286 H   0  0  0  0  0  0  0  0  0  0  0  0
  1  2  1  0  0  0  0
  2  3  1  0  0  0  0
  3  4  2  0  0  0  0
  4  5  1  0  0  0  0
  5  6  2  0  0  0  0
  6  7  1  0  0  0  0
  7  8  2  0  0  0  0
  3  8  1  0  0  0  0
  7  9  1  0  0  0  0
  9 10  2  0  0  0  0
 10 11  1  0  0  0  0
 11 12  2  0  0  0  0
 12 13  1  0  0  0  0
 13 14  2  0  0  0  0
  9 14  1  0  0  0  0
 14 15  1  0  0  0  0
  6 15  1  0  0  0  0
  5 16  1  0  0  0  0
 16 17  1  0  0  0  0
  4 18  1  0  0  0  0
  1 19  1  0  0  0  0
  1 20  1  0  0  0  0
  1 21  1  0  0  0  0
  8 22  1  0  0  0  0
 10 23  1  0  0  0  0
 11 24  1  0  0  0  0
 12 25  1  0  0  0  0
 13 26  1  0  0  0  0
 17 27  1  0  0  0  0
 17 28  1  0  0  0  0
 17 29  1  0  0  0  0
 18 30  1  0  0  0  0
M  END
$$$$
