C6H8N2O
APtclcactv06211806103D 0   0.00000     0.00000
 
 17 17  0  0  0  0  0  0  0  0999 V2000
    0.2322    2.3999   -0.0016 C   0  0  0  0  0  0  0  0  0  0  0  0
    0.5598    0.9290   -0.0010 C   0  0  0  0  0  0  0  0  0  0  0  0
    1.8186    0.5324   -0.0005 N   0  0  0  0  0  0  0  0  0  0  0  0
    2.1066   -0.7582   -0.0000 C   0  0  0  0  0  0  0  0  0  0  0  0
    1.0914   -1.6958   -0.0001 C   0  0  0  0  0  0  0  0  0  0  0  0
   -0.1719   -1.3050   -0.0010 N   0  0  0  0  0  0  0  0  0  0  0  0
   -0.4642   -0.0126    0.0047 C   0  0  0  0  0  0  0  0  0  0  0  0
   -1.7594    0.3915    0.0038 O   0  0  0  0  0  0  0  0  0  0  0  0
   -2.7580   -0.6306   -0.0035 C   0  0  0  0  0  0  0  0  0  0  0  0
    0.1535    2.7542   -1.0294 H   0  0  0  0  0  0  0  0  0  0  0  0
   -0.7156    2.5613    0.5119 H   0  0  0  0  0  0  0  0  0  0  0  0
    1.0218    2.9482    0.5122 H   0  0  0  0  0  0  0  0  0  0  0  0
    3.1374   -1.0802   -0.0000 H   0  0  0  0  0  0  0  0  0  0  0  0
    1.3301   -2.7491    0.0003 H   0  0  0  0  0  0  0  0  0  0  0  0
   -2.6423   -1.2452   -0.8963 H   0  0  0  0  0  0  0  0  0  0  0  0
   -2.6463   -1.2540    0.8837 H   0  0  0  0  0  0  0  0  0  0  0  0
   -3.7470   -0.1724   -0.0035 H   0  0  0  0  0  0  0  0  0  0  0  0
  1  2  1  0  0  0  0
  2  3  2  0  0  0  0
  3  4  1  0  0  0  0
  4  5  2  0  0  0  0
  5  6  1  0  0  0  0
  6  7  2  0  0  0  0
  2  7  1  0  0  0  0
  7  8  1  0  0  0  0
  8  9  1  0  0  0  0
  1 10  1  0  0  0  0
  1 11  1  0  0  0  0
  1 12  1  0  0  0  0
  4 13  1  0  0  0  0
  5 14  1  0  0  0  0
  9 15  1  0  0  0  0
  9 16  1  0  0  0  0
  9 17  1  0  0  0  0
M  END
$$$$
