C15H12O3
APtclcactv06211806433D 0   0.00000     0.00000
 
 30 32  0  0  0  0  0  0  0  0999 V2000
    3.3447   -2.5233    0.0008 C   0  0  0  0  0  0  0  0  0  0  0  0
    2.0538   -1.7457    0.0013 C   0  0  0  0  0  0  0  0  0  0  0  0
    2.1978   -0.3720    0.0006 C   0  0  0  0  0  0  0  0  0  0  0  0
    3.5559    0.2890   -0.0001 C   0  0  0  0  0  0  0  0  0  0  0  0
    3.3029    1.8023   -0.0008 C   0  0  0  0  0  0  0  0  0  0  0  0
    1.8018    1.9584   -0.0004 C   0  0  0  0  0  0  0  0  0  0  0  0
    1.1374    3.1088   -0.0008 C   0  0  0  0  0  0  0  0  0  0  0  0
    1.2010    0.6121    0.0004 C   0  0  0  0  0  0  0  0  0  0  0  0
   -0.1936    0.4230    0.0008 C   0  0  0  0  0  0  0  0  0  0  0  0
   -0.9040   -0.7925    0.0008 C   0  0  0  0  0  0  0  0  0  0  0  0
   -2.3282   -0.4263    0.0005 C   0  0  0  0  0  0  0  0  0  0  0  0
   -2.3461    0.9882    0.0003 C   0  0  0  0  0  0  0  0  0  0  0  0
   -3.3460    1.6845    0.0001 O   0  0  0  0  0  0  0  0  0  0  0  0
   -1.0797    1.4385    0.0006 O   0  0  0  0  0  0  0  0  0  0  0  0
   -3.4311   -1.2928   -0.0004 C   0  0  0  0  0  0  0  0  0  0  0  0
   -4.5596   -0.8403   -0.0006 O   0  0  0  0  0  0  0  0  0  0  0  0
   -0.4183   -2.1051    0.0004 C   0  0  0  0  0  0  0  0  0  0  0  0
    0.8986   -2.5206   -0.0030 C   0  0  0  0  0  0  0  0  0  0  0  0
    3.6566   -2.7103    1.0283 H   0  0  0  0  0  0  0  0  0  0  0  0
    3.1964   -3.4734   -0.5125 H   0  0  0  0  0  0  0  0  0  0  0  0
    4.1148   -1.9487   -0.5139 H   0  0  0  0  0  0  0  0  0  0  0  0
    4.1112    0.0032    0.8932 H   0  0  0  0  0  0  0  0  0  0  0  0
    4.1107    0.0024   -0.8935 H   0  0  0  0  0  0  0  0  0  0  0  0
    3.7298    2.2567    0.8934 H   0  0  0  0  0  0  0  0  0  0  0  0
    3.7293    2.2558   -0.8956 H   0  0  0  0  0  0  0  0  0  0  0  0
    1.6773    4.0442   -0.0009 H   0  0  0  0  0  0  0  0  0  0  0  0
    0.0574    3.1087   -0.0009 H   0  0  0  0  0  0  0  0  0  0  0  0
   -3.2779   -2.3618   -0.0008 H   0  0  0  0  0  0  0  0  0  0  0  0
   -1.1631   -2.8872    0.0002 H   0  0  0  0  0  0  0  0  0  0  0  0
    1.0521   -3.5896   -0.0031 H   0  0  0  0  0  0  0  0  0  0  0  0
  1  2  1  0  0  0  0
  2  3  2  0  0  0  0
  3  4  1  0  0  0  0
  4  5  1  0  0  0  0
  5  6  1  0  0  0  0
  6  7  2  0  0  0  0
  6  8  1  0  0  0  0
  3  8  1  0  0  0  0
  8  9  2  0  0  0  0
  9 10  1  0  0  0  0
 10 11  2  0  0  0  0
 11 12  1  0  0  0  0
 12 13  2  0  0  0  0
 12 14  1  0  0  0  0
  9 14  1  0  0  0  0
 11 15  1  0  0  0  0
 15 16  2  0  0  0  0
 10 17  1  0  0  0  0
 17 18  2  0  0  0  0
  2 18  1  0  0  0  0
  1 19  1  0  0  0  0
  1 20  1  0  0  0  0
  1 21  1  0  0  0  0
  4 22  1  0  0  0  0
  4 23  1  0  0  0  0
  5 24  1  0  0  0  0
  5 25  1  0  0  0  0
  7 26  1  0  0  0  0
  7 27  1  0  0  0  0
 15 28  1  0  0  0  0
 17 29  1  0  0  0  0
 18 30  1  0  0  0  0
M  END
$$$$
