C4H8O2
APtclcactv06211802133D 0   0.00000     0.00000
 
 14 13  0  0  0  0  0  0  0  0999 V2000
    1.1535    1.3342   -0.5523 C   0  0  0  0  0  0  0  0  0  0  0  0
    0.6627    0.2435    0.4019 C   0  0  0  0  0  0  0  0  0  0  0  0
   -0.7393   -0.1603    0.0246 C   0  0  0  0  0  0  0  0  0  0  0  0
   -0.9338   -1.2089   -0.5421 O   0  0  0  0  0  0  0  0  0  0  0  0
   -1.8986    0.7443    0.3543 C   0  0  0  0  0  0  0  0  0  0  0  0
    1.5259   -0.8917    0.3120 O   0  0  0  0  0  0  0  0  0  0  0  0
    2.1675    1.6264   -0.2794 H   0  0  0  0  0  0  0  0  0  0  0  0
    1.1475    0.9532   -1.5735 H   0  0  0  0  0  0  0  0  0  0  0  0
    0.4950    2.2002   -0.4838 H   0  0  0  0  0  0  0  0  0  0  0  0
    0.6686    0.6246    1.4231 H   0  0  0  0  0  0  0  0  0  0  0  0
   -1.5306    1.6365    0.8608 H   0  0  0  0  0  0  0  0  0  0  0  0
   -2.4077    1.0324   -0.5654 H   0  0  0  0  0  0  0  0  0  0  0  0
   -2.5960    0.2181    1.0061 H   0  0  0  0  0  0  0  0  0  0  0  0
    2.4465   -0.7049    0.5415 H   0  0  0  0  0  0  0  0  0  0  0  0
  1  2  1  0  0  0  0
  2  3  1  0  0  0  0
  3  4  2  0  0  0  0
  3  5  1  0  0  0  0
  2  6  1  0  0  0  0
  1  7  1  0  0  0  0
  1  8  1  0  0  0  0
  1  9  1  0  0  0  0
  2 10  1  0  0  0  0
  5 11  1  0  0  0  0
  5 12  1  0  0  0  0
  5 13  1  0  0  0  0
  6 14  1  0  0  0  0
M  END
$$$$
