C14H14O5
APtclcactv06211806433D 0   0.00000     0.00000
 
 33 35  0  0  0  0  0  0  0  0999 V2000
    4.3336   -1.3943   -0.0139 C   0  0  0  0  0  0  0  0  0  0  0  0
    3.0368   -0.6281   -0.0630 C   0  0  0  0  0  0  0  0  0  0  0  0
    3.0835    0.7153   -0.0590 C   0  0  0  0  0  0  0  0  0  0  0  0
    1.8732    1.4598   -0.1039 C   0  0  0  0  0  0  0  0  0  0  0  0
    1.8772    2.6795   -0.1030 O   0  0  0  0  0  0  0  0  0  0  0  0
    0.6159    0.6976   -0.1518 C   0  0  0  0  0  0  0  0  0  0  0  0
    0.6845   -0.7068   -0.1541 C   0  0  0  0  0  0  0  0  0  0  0  0
    1.8900   -1.3145   -0.1141 O   0  0  0  0  0  0  0  0  0  0  0  0
   -0.4866   -1.4496   -0.2035 C   0  0  0  0  0  0  0  0  0  0  0  0
   -1.7253   -0.8100   -0.2493 C   0  0  0  0  0  0  0  0  0  0  0  0
   -1.7800    0.5817   -0.2370 C   0  0  0  0  0  0  0  0  0  0  0  0
   -0.6290    1.3384   -0.1928 C   0  0  0  0  0  0  0  0  0  0  0  0
   -0.7011    2.6943   -0.1890 O   0  0  0  0  0  0  0  0  0  0  0  0
   -0.7806    3.3363    1.0852 C   0  0  0  0  0  0  0  0  0  0  0  0
   -3.2460    0.9693   -0.2691 C   0  0  0  0  0  0  0  0  0  0  0  0
   -3.9378   -0.3651    0.0968 C   0  0  0  0  0  0  0  0  0  0  0  0
   -2.9748   -1.3481   -0.3186 O   0  0  0  0  0  0  0  0  0  0  0  0
   -0.4262   -2.8099   -0.2077 O   0  0  0  0  0  0  0  0  0  0  0  0
   -0.4471   -3.4641    1.0626 C   0  0  0  0  0  0  0  0  0  0  0  0
    4.6064   -1.5807    1.0248 H   0  0  0  0  0  0  0  0  0  0  0  0
    4.2141   -2.3445   -0.5344 H   0  0  0  0  0  0  0  0  0  0  0  0
    5.1183   -0.8118   -0.4967 H   0  0  0  0  0  0  0  0  0  0  0  0
    4.0345    1.2259   -0.0216 H   0  0  0  0  0  0  0  0  0  0  0  0
   -0.8329    4.4160    0.9454 H   0  0  0  0  0  0  0  0  0  0  0  0
   -1.6728    2.9940    1.6095 H   0  0  0  0  0  0  0  0  0  0  0  0
    0.1035    3.0884    1.6726 H   0  0  0  0  0  0  0  0  0  0  0  0
   -3.4624    1.7367    0.4741 H   0  0  0  0  0  0  0  0  0  0  0  0
   -3.5398    1.2999   -1.2653 H   0  0  0  0  0  0  0  0  0  0  0  0
   -4.1139   -0.4268    1.1707 H   0  0  0  0  0  0  0  0  0  0  0  0
   -4.8703   -0.4806   -0.4556 H   0  0  0  0  0  0  0  0  0  0  0  0
    0.4065   -3.1348    1.6550 H   0  0  0  0  0  0  0  0  0  0  0  0
   -1.3703   -3.2135    1.5852 H   0  0  0  0  0  0  0  0  0  0  0  0
   -0.3936   -4.5429    0.9166 H   0  0  0  0  0  0  0  0  0  0  0  0
  1  2  1  0  0  0  0
  2  3  2  0  0  0  0
  3  4  1  0  0  0  0
  4  5  2  0  0  0  0
  4  6  1  0  0  0  0
  6  7  2  0  0  0  0
  7  8  1  0  0  0  0
  2  8  1  0  0  0  0
  7  9  1  0  0  0  0
  9 10  2  0  0  0  0
 10 11  1  0  0  0  0
 11 12  2  0  0  0  0
  6 12  1  0  0  0  0
 12 13  1  0  0  0  0
 13 14  1  0  0  0  0
 11 15  1  0  0  0  0
 15 16  1  0  0  0  0
 16 17  1  0  0  0  0
 10 17  1  0  0  0  0
  9 18  1  0  0  0  0
 18 19  1  0  0  0  0
  1 20  1  0  0  0  0
  1 21  1  0  0  0  0
  1 22  1  0  0  0  0
  3 23  1  0  0  0  0
 14 24  1  0  0  0  0
 14 25  1  0  0  0  0
 14 26  1  0  0  0  0
 15 27  1  0  0  0  0
 15 28  1  0  0  0  0
 16 29  1  0  0  0  0
 16 30  1  0  0  0  0
 19 31  1  0  0  0  0
 19 32  1  0  0  0  0
 19 33  1  0  0  0  0
M  END
$$$$
