C19H13NO4
APtclcactv06211806433D 0   0.00000     0.00000
 
 37 41  0  0  0  0  0  0  0  0999 V2000
   -4.6552    2.5376    0.9372 C   0  0  0  0  0  0  0  0  0  0  0  0
   -4.3691    1.8573   -0.2865 O   0  0  0  0  0  0  0  0  0  0  0  0
   -3.8463    0.6070   -0.1895 C   0  0  0  0  0  0  0  0  0  0  0  0
   -4.6795   -0.4973   -0.1412 C   0  0  0  0  0  0  0  0  0  0  0  0
   -4.1518   -1.7826   -0.0415 C   0  0  0  0  0  0  0  0  0  0  0  0
   -2.8013   -1.9843    0.0113 C   0  0  0  0  0  0  0  0  0  0  0  0
   -1.9350   -0.8935   -0.0353 C   0  0  0  0  0  0  0  0  0  0  0  0
   -0.4794   -1.0442    0.0173 C   0  0  0  0  0  0  0  0  0  0  0  0
    0.1270   -2.3064    0.1209 C   0  0  0  0  0  0  0  0  0  0  0  0
    1.4728   -2.4410    0.1692 C   0  0  0  0  0  0  0  0  0  0  0  0
    2.3210   -1.3140    0.1166 C   0  0  0  0  0  0  0  0  0  0  0  0
    3.7156   -1.4606    0.1670 C   0  0  0  0  0  0  0  0  0  0  0  0
    4.5254   -0.3490    0.1127 C   0  0  0  0  0  0  0  0  0  0  0  0
    3.9683    0.9340    0.0074 C   0  0  0  0  0  0  0  0  0  0  0  0
    2.6015    1.0991   -0.0424 C   0  0  0  0  0  0  0  0  0  0  0  0
    1.7635   -0.0183    0.0114 C   0  0  0  0  0  0  0  0  0  0  0  0
    0.3063    0.1235   -0.0390 C   0  0  0  0  0  0  0  0  0  0  0  0
   -0.2657    1.3278   -0.1355 N   0  0  0  0  0  0  0  0  0  0  0  0
   -1.5587    1.5070   -0.1851 C   0  0  0  0  0  0  0  0  0  0  0  0
   -2.4544    0.4215   -0.1431 C   0  0  0  0  0  0  0  0  0  0  0  0
    4.9846    1.8453   -0.0278 O   0  0  0  0  0  0  0  0  0  0  0  0
    6.1660    1.0920   -0.3579 C   0  0  0  0  0  0  0  0  0  0  0  0
    5.8856   -0.2279    0.1432 O   0  0  0  0  0  0  0  0  0  0  0  0
   -6.0278   -0.3256   -0.1910 O   0  0  0  0  0  0  0  0  0  0  0  0
   -5.0669    3.5227    0.7176 H   0  0  0  0  0  0  0  0  0  0  0  0
   -5.3796    1.9611    1.5126 H   0  0  0  0  0  0  0  0  0  0  0  0
   -3.7375    2.6478    1.5148 H   0  0  0  0  0  0  0  0  0  0  0  0
   -4.8190   -2.6310   -0.0053 H   0  0  0  0  0  0  0  0  0  0  0  0
   -2.4063   -2.9864    0.0894 H   0  0  0  0  0  0  0  0  0  0  0  0
   -0.4940   -3.1890    0.1633 H   0  0  0  0  0  0  0  0  0  0  0  0
    1.9051   -3.4274    0.2497 H   0  0  0  0  0  0  0  0  0  0  0  0
    4.1530   -2.4446    0.2487 H   0  0  0  0  0  0  0  0  0  0  0  0
    2.1785    2.0895   -0.1229 H   0  0  0  0  0  0  0  0  0  0  0  0
   -1.9496    2.5108   -0.2627 H   0  0  0  0  0  0  0  0  0  0  0  0
    6.3149    1.0677   -1.4374 H   0  0  0  0  0  0  0  0  0  0  0  0
    7.0394    1.5127    0.1404 H   0  0  0  0  0  0  0  0  0  0  0  0
   -6.3925   -0.3335   -1.0865 H   0  0  0  0  0  0  0  0  0  0  0  0
  1  2  1  0  0  0  0
  2  3  1  0  0  0  0
  3  4  2  0  0  0  0
  4  5  1  0  0  0  0
  5  6  2  0  0  0  0
  6  7  1  0  0  0  0
  7  8  2  0  0  0  0
  8  9  1  0  0  0  0
  9 10  2  0  0  0  0
 10 11  1  0  0  0  0
 11 12  2  0  0  0  0
 12 13  1  0  0  0  0
 13 14  2  0  0  0  0
 14 15  1  0  0  0  0
 15 16  2  0  0  0  0
 11 16  1  0  0  0  0
 16 17  1  0  0  0  0
  8 17  1  0  0  0  0
 17 18  2  0  0  0  0
 18 19  1  0  0  0  0
 19 20  2  0  0  0  0
  7 20  1  0  0  0  0
  3 20  1  0  0  0  0
 14 21  1  0  0  0  0
 21 22  1  0  0  0  0
 22 23  1  0  0  0  0
 13 23  1  0  0  0  0
  4 24  1  0  0  0  0
  1 25  1  0  0  0  0
  1 26  1  0  0  0  0
  1 27  1  0  0  0  0
  5 28  1  0  0  0  0
  6 29  1  0  0  0  0
  9 30  1  0  0  0  0
 10 31  1  0  0  0  0
 12 32  1  0  0  0  0
 15 33  1  0  0  0  0
 19 34  1  0  0  0  0
 22 35  1  0  0  0  0
 22 36  1  0  0  0  0
 24 37  1  0  0  0  0
M  END
$$$$
