C15H16O3
APtclcactv06211806433D 0   0.00000     0.00000
 
 34 35  0  0  0  0  0  0  0  0999 V2000
    5.1981   -1.8685    0.3092 C   0  0  0  0  0  0  0  0  0  0  0  0
    3.7976   -1.9800    0.0482 O   0  0  0  0  0  0  0  0  0  0  0  0
    3.0970   -0.8211   -0.0660 C   0  0  0  0  0  0  0  0  0  0  0  0
    1.7333   -0.8563   -0.3192 C   0  0  0  0  0  0  0  0  0  0  0  0
    1.0202    0.3219   -0.4348 C   0  0  0  0  0  0  0  0  0  0  0  0
    1.6630    1.5372   -0.2988 C   0  0  0  0  0  0  0  0  0  0  0  0
    3.0270    1.5776   -0.0455 C   0  0  0  0  0  0  0  0  0  0  0  0
    3.7434    0.3973    0.0762 C   0  0  0  0  0  0  0  0  0  0  0  0
    3.6588    2.7734    0.0877 O   0  0  0  0  0  0  0  0  0  0  0  0
   -0.4608    0.2809   -0.7103 C   0  0  0  0  0  0  0  0  0  0  0  0
   -1.2253    0.2469    0.6146 C   0  0  0  0  0  0  0  0  0  0  0  0
   -2.7063    0.2059    0.3391 C   0  0  0  0  0  0  0  0  0  0  0  0
   -3.4395    1.3764    0.3255 C   0  0  0  0  0  0  0  0  0  0  0  0
   -4.7986    1.3394    0.0728 C   0  0  0  0  0  0  0  0  0  0  0  0
   -5.4269    0.1315   -0.1668 C   0  0  0  0  0  0  0  0  0  0  0  0
   -4.6980   -1.0421   -0.1539 C   0  0  0  0  0  0  0  0  0  0  0  0
   -3.3335   -1.0071    0.0932 C   0  0  0  0  0  0  0  0  0  0  0  0
   -2.6143   -2.1602    0.1064 O   0  0  0  0  0  0  0  0  0  0  0  0
    5.3514   -1.3397    1.2499 H   0  0  0  0  0  0  0  0  0  0  0  0
    5.6356   -2.8645    0.3768 H   0  0  0  0  0  0  0  0  0  0  0  0
    5.6757   -1.3160   -0.5001 H   0  0  0  0  0  0  0  0  0  0  0  0
    1.2286   -1.8051   -0.4262 H   0  0  0  0  0  0  0  0  0  0  0  0
    1.1037    2.4566   -0.3900 H   0  0  0  0  0  0  0  0  0  0  0  0
    4.8049    0.4266    0.2733 H   0  0  0  0  0  0  0  0  0  0  0  0
    3.6807    3.1078    0.9948 H   0  0  0  0  0  0  0  0  0  0  0  0
   -0.7502    1.1677   -1.2742 H   0  0  0  0  0  0  0  0  0  0  0  0
   -0.6980   -0.6114   -1.2897 H   0  0  0  0  0  0  0  0  0  0  0  0
   -0.9359   -0.6399    1.1784 H   0  0  0  0  0  0  0  0  0  0  0  0
   -0.9880    1.1392    1.1939 H   0  0  0  0  0  0  0  0  0  0  0  0
   -2.9510    2.3212    0.5128 H   0  0  0  0  0  0  0  0  0  0  0  0
   -5.3702    2.2557    0.0630 H   0  0  0  0  0  0  0  0  0  0  0  0
   -6.4884    0.1053   -0.3639 H   0  0  0  0  0  0  0  0  0  0  0  0
   -5.1893   -1.9856   -0.3408 H   0  0  0  0  0  0  0  0  0  0  0  0
   -2.2517   -2.4074   -0.7553 H   0  0  0  0  0  0  0  0  0  0  0  0
  1  2  1  0  0  0  0
  2  3  1  0  0  0  0
  3  4  2  0  0  0  0
  4  5  1  0  0  0  0
  5  6  2  0  0  0  0
  6  7  1  0  0  0  0
  7  8  2  0  0  0  0
  3  8  1  0  0  0  0
  7  9  1  0  0  0  0
  5 10  1  0  0  0  0
 10 11  1  0  0  0  0
 11 12  1  0  0  0  0
 12 13  2  0  0  0  0
 13 14  1  0  0  0  0
 14 15  2  0  0  0  0
 15 16  1  0  0  0  0
 16 17  2  0  0  0  0
 12 17  1  0  0  0  0
 17 18  1  0  0  0  0
  1 19  1  0  0  0  0
  1 20  1  0  0  0  0
  1 21  1  0  0  0  0
  4 22  1  0  0  0  0
  6 23  1  0  0  0  0
  8 24  1  0  0  0  0
  9 25  1  0  0  0  0
 10 26  1  0  0  0  0
 10 27  1  0  0  0  0
 11 28  1  0  0  0  0
 11 29  1  0  0  0  0
 13 30  1  0  0  0  0
 14 31  1  0  0  0  0
 15 32  1  0  0  0  0
 16 33  1  0  0  0  0
 18 34  1  0  0  0  0
M  END
$$$$
