C21H21NO2
APtclcactv06211806433D 0   0.00000     0.00000
 
 45 47  0  0  0  0  0  0  0  0999 V2000
    7.9325   -1.2394   -1.1699 C   0  0  0  0  0  0  0  0  0  0  0  0
    6.5539   -0.7544   -1.6227 C   0  0  0  0  0  0  0  0  0  0  0  0
    5.6163   -0.6839   -0.4158 C   0  0  0  0  0  0  0  0  0  0  0  0
    4.3286   -0.2310   -0.8387 O   0  0  0  0  0  0  0  0  0  0  0  0
    3.3713   -0.1120    0.1186 C   0  0  0  0  0  0  0  0  0  0  0  0
    3.6668   -0.4252    1.4381 C   0  0  0  0  0  0  0  0  0  0  0  0
    2.6963   -0.3052    2.4154 C   0  0  0  0  0  0  0  0  0  0  0  0
    1.4279    0.1267    2.0845 C   0  0  0  0  0  0  0  0  0  0  0  0
    1.1228    0.4434    0.7614 C   0  0  0  0  0  0  0  0  0  0  0  0
    2.1024    0.3274   -0.2218 C   0  0  0  0  0  0  0  0  0  0  0  0
   -0.2394    0.9074    0.4029 C   0  0  0  0  0  0  0  0  0  0  0  0
   -0.4506    2.1714   -0.0685 C   0  0  0  0  0  0  0  0  0  0  0  0
   -1.6971    2.5927   -0.3853 N   0  0  0  0  0  0  0  0  0  0  0  0
   -2.7332    1.7371   -0.5476 C   0  0  0  0  0  0  0  0  0  0  0  0
   -2.6508    0.4485   -0.1032 C   0  0  0  0  0  0  0  0  0  0  0  0
   -1.4020    0.0185    0.5385 C   0  0  0  0  0  0  0  0  0  0  0  0
   -1.3340   -1.0273    1.1657 O   0  0  0  0  0  0  0  0  0  0  0  0
   -3.7867   -0.4905   -0.2685 C   0  0  0  0  0  0  0  0  0  0  0  0
   -4.1961   -0.8756   -1.5440 C   0  0  0  0  0  0  0  0  0  0  0  0
   -5.2537   -1.7497   -1.6917 C   0  0  0  0  0  0  0  0  0  0  0  0
   -5.9072   -2.2436   -0.5770 C   0  0  0  0  0  0  0  0  0  0  0  0
   -5.5056   -1.8645    0.6912 C   0  0  0  0  0  0  0  0  0  0  0  0
   -4.4452   -0.9958    0.8512 C   0  0  0  0  0  0  0  0  0  0  0  0
   -1.9339    4.0280   -0.5585 C   0  0  0  0  0  0  0  0  0  0  0  0
    8.3385   -0.5448   -0.4345 H   0  0  0  0  0  0  0  0  0  0  0  0
    7.8407   -2.2292   -0.7228 H   0  0  0  0  0  0  0  0  0  0  0  0
    8.6005   -1.2896   -2.0298 H   0  0  0  0  0  0  0  0  0  0  0  0
    6.6457    0.2354   -2.0698 H   0  0  0  0  0  0  0  0  0  0  0  0
    6.1479   -1.4490   -2.3582 H   0  0  0  0  0  0  0  0  0  0  0  0
    5.5245   -1.6738    0.0313 H   0  0  0  0  0  0  0  0  0  0  0  0
    6.0222    0.0106    0.3196 H   0  0  0  0  0  0  0  0  0  0  0  0
    4.6578   -0.7640    1.7021 H   0  0  0  0  0  0  0  0  0  0  0  0
    2.9312   -0.5505    3.4406 H   0  0  0  0  0  0  0  0  0  0  0  0
    0.6719    0.2191    2.8501 H   0  0  0  0  0  0  0  0  0  0  0  0
    1.8712    0.5718   -1.2481 H   0  0  0  0  0  0  0  0  0  0  0  0
    0.3867    2.8427   -0.1896 H   0  0  0  0  0  0  0  0  0  0  0  0
   -3.6355    2.0774   -1.0338 H   0  0  0  0  0  0  0  0  0  0  0  0
   -3.6868   -0.4904   -2.4150 H   0  0  0  0  0  0  0  0  0  0  0  0
   -5.5720   -2.0485   -2.6796 H   0  0  0  0  0  0  0  0  0  0  0  0
   -6.7344   -2.9274   -0.6974 H   0  0  0  0  0  0  0  0  0  0  0  0
   -6.0196   -2.2529    1.5580 H   0  0  0  0  0  0  0  0  0  0  0  0
   -4.1322   -0.7008    1.8419 H   0  0  0  0  0  0  0  0  0  0  0  0
   -1.7669    4.3006   -1.6006 H   0  0  0  0  0  0  0  0  0  0  0  0
   -2.9617    4.2627   -0.2818 H   0  0  0  0  0  0  0  0  0  0  0  0
   -1.2492    4.5886    0.0780 H   0  0  0  0  0  0  0  0  0  0  0  0
  1  2  1  0  0  0  0
  2  3  1  0  0  0  0
  3  4  1  0  0  0  0
  4  5  1  0  0  0  0
  5  6  2  0  0  0  0
  6  7  1  0  0  0  0
  7  8  2  0  0  0  0
  8  9  1  0  0  0  0
  9 10  2  0  0  0  0
  5 10  1  0  0  0  0
  9 11  1  0  0  0  0
 11 12  2  0  0  0  0
 12 13  1  0  0  0  0
 13 14  1  0  0  0  0
 14 15  2  0  0  0  0
 15 16  1  0  0  0  0
 11 16  1  0  0  0  0
 16 17  2  0  0  0  0
 15 18  1  0  0  0  0
 18 19  2  0  0  0  0
 19 20  1  0  0  0  0
 20 21  2  0  0  0  0
 21 22  1  0  0  0  0
 22 23  2  0  0  0  0
 18 23  1  0  0  0  0
 13 24  1  0  0  0  0
  1 25  1  0  0  0  0
  1 26  1  0  0  0  0
  1 27  1  0  0  0  0
  2 28  1  0  0  0  0
  2 29  1  0  0  0  0
  3 30  1  0  0  0  0
  3 31  1  0  0  0  0
  6 32  1  0  0  0  0
  7 33  1  0  0  0  0
  8 34  1  0  0  0  0
 10 35  1  0  0  0  0
 12 36  1  0  0  0  0
 14 37  1  0  0  0  0
 19 38  1  0  0  0  0
 20 39  1  0  0  0  0
 21 40  1  0  0  0  0
 22 41  1  0  0  0  0
 23 42  1  0  0  0  0
 24 43  1  0  0  0  0
 24 44  1  0  0  0  0
 24 45  1  0  0  0  0
M  END
$$$$
