C16H16O3
APtclcactv06211806443D 0   0.00000     0.00000
 
 35 37  0  0  0  0  0  0  0  0999 V2000
    5.1875    0.3298    0.0295 C   0  0  0  0  0  0  0  0  0  0  0  0
    4.3467   -0.8217   -0.0673 O   0  0  0  0  0  0  0  0  0  0  0  0
    3.0049   -0.6078   -0.0643 C   0  0  0  0  0  0  0  0  0  0  0  0
    2.5121    0.6853    0.0299 C   0  0  0  0  0  0  0  0  0  0  0  0
    1.1442    0.9044    0.0430 C   0  0  0  0  0  0  0  0  0  0  0  0
    0.2688   -0.1786   -0.0389 C   0  0  0  0  0  0  0  0  0  0  0  0
    0.7697   -1.4753   -0.1538 C   0  0  0  0  0  0  0  0  0  0  0  0
    2.1329   -1.6846   -0.1614 C   0  0  0  0  0  0  0  0  0  0  0  0
   -0.1763   -2.6364   -0.3050 C   0  0  0  0  0  0  0  0  0  0  0  0
   -1.4390   -2.4154    0.5220 C   0  0  0  0  0  0  0  0  0  0  0  0
   -2.0333   -1.0627    0.2332 C   0  0  0  0  0  0  0  0  0  0  0  0
   -1.1989    0.0244   -0.0221 C   0  0  0  0  0  0  0  0  0  0  0  0
   -1.7444    1.2815   -0.2684 C   0  0  0  0  0  0  0  0  0  0  0  0
   -3.1144    1.4453   -0.2727 C   0  0  0  0  0  0  0  0  0  0  0  0
   -3.9448    0.3592   -0.0312 C   0  0  0  0  0  0  0  0  0  0  0  0
   -3.4023   -0.8931    0.2223 C   0  0  0  0  0  0  0  0  0  0  0  0
   -5.2939    0.5227   -0.0429 O   0  0  0  0  0  0  0  0  0  0  0  0
    0.6571    2.1693    0.1358 O   0  0  0  0  0  0  0  0  0  0  0  0
    1.6132    3.2283    0.2165 C   0  0  0  0  0  0  0  0  0  0  0  0
    4.9947    0.9924   -0.8142 H   0  0  0  0  0  0  0  0  0  0  0  0
    4.9769    0.8562    0.9604 H   0  0  0  0  0  0  0  0  0  0  0  0
    6.2321    0.0190    0.0162 H   0  0  0  0  0  0  0  0  0  0  0  0
    3.1940    1.5204    0.0934 H   0  0  0  0  0  0  0  0  0  0  0  0
    2.5232   -2.6889   -0.2342 H   0  0  0  0  0  0  0  0  0  0  0  0
   -0.4489   -2.7428   -1.3550 H   0  0  0  0  0  0  0  0  0  0  0  0
    0.3178   -3.5480    0.0310 H   0  0  0  0  0  0  0  0  0  0  0  0
   -2.1683   -3.1877    0.2774 H   0  0  0  0  0  0  0  0  0  0  0  0
   -1.1904   -2.4797    1.5813 H   0  0  0  0  0  0  0  0  0  0  0  0
   -1.0972    2.1258   -0.4550 H   0  0  0  0  0  0  0  0  0  0  0  0
   -3.5410    2.4189   -0.4638 H   0  0  0  0  0  0  0  0  0  0  0  0
   -4.0520   -1.7348    0.4111 H   0  0  0  0  0  0  0  0  0  0  0  0
   -5.6988    0.3888   -0.9108 H   0  0  0  0  0  0  0  0  0  0  0  0
    2.2361    3.0888    1.1000 H   0  0  0  0  0  0  0  0  0  0  0  0
    2.2402    3.2205   -0.6750 H   0  0  0  0  0  0  0  0  0  0  0  0
    1.0924    4.1833    0.2862 H   0  0  0  0  0  0  0  0  0  0  0  0
  1  2  1  0  0  0  0
  2  3  1  0  0  0  0
  3  4  2  0  0  0  0
  4  5  1  0  0  0  0
  5  6  2  0  0  0  0
  6  7  1  0  0  0  0
  7  8  2  0  0  0  0
  3  8  1  0  0  0  0
  7  9  1  0  0  0  0
  9 10  1  0  0  0  0
 10 11  1  0  0  0  0
 11 12  2  0  0  0  0
  6 12  1  0  0  0  0
 12 13  1  0  0  0  0
 13 14  2  0  0  0  0
 14 15  1  0  0  0  0
 15 16  2  0  0  0  0
 11 16  1  0  0  0  0
 15 17  1  0  0  0  0
  5 18  1  0  0  0  0
 18 19  1  0  0  0  0
  1 20  1  0  0  0  0
  1 21  1  0  0  0  0
  1 22  1  0  0  0  0
  4 23  1  0  0  0  0
  8 24  1  0  0  0  0
  9 25  1  0  0  0  0
  9 26  1  0  0  0  0
 10 27  1  0  0  0  0
 10 28  1  0  0  0  0
 13 29  1  0  0  0  0
 14 30  1  0  0  0  0
 16 31  1  0  0  0  0
 17 32  1  0  0  0  0
 19 33  1  0  0  0  0
 19 34  1  0  0  0  0
 19 35  1  0  0  0  0
M  END
$$$$
