C16H11NO3
APtclcactv06211806443D 0   0.00000     0.00000
 
 31 34  0  0  0  0  0  0  0  0999 V2000
   -3.8829    2.5094    0.0046 C   0  0  0  0  0  0  0  0  0  0  0  0
   -3.9892    1.0843    0.0075 O   0  0  0  0  0  0  0  0  0  0  0  0
   -2.8283    0.3795    0.0083 C   0  0  0  0  0  0  0  0  0  0  0  0
   -2.8619   -1.0169    0.0112 C   0  0  0  0  0  0  0  0  0  0  0  0
   -1.6915   -1.7479    0.0113 C   0  0  0  0  0  0  0  0  0  0  0  0
   -0.4587   -1.0901    0.0083 C   0  0  0  0  0  0  0  0  0  0  0  0
   -0.4323    0.3257    0.0059 C   0  0  0  0  0  0  0  0  0  0  0  0
   -1.6148    1.0480    0.0006 C   0  0  0  0  0  0  0  0  0  0  0  0
    0.8902    0.9768    0.0016 C   0  0  0  0  0  0  0  0  0  0  0  0
    1.0952    2.3511   -0.0007 C   0  0  0  0  0  0  0  0  0  0  0  0
    2.3944    2.8414   -0.0047 C   0  0  0  0  0  0  0  0  0  0  0  0
    3.4955    2.0038   -0.0080 C   0  0  0  0  0  0  0  0  0  0  0  0
    3.3091    0.6220   -0.0060 C   0  0  0  0  0  0  0  0  0  0  0  0
    2.0010    0.1451   -0.0007 C   0  0  0  0  0  0  0  0  0  0  0  0
    1.9889   -1.2156    0.0016 N   0  0  0  0  0  0  0  0  0  0  0  0
    0.7978   -1.8552    0.0072 C   0  0  0  0  0  0  0  0  0  0  0  0
    0.7650   -3.0713    0.0123 O   0  0  0  0  0  0  0  0  0  0  0  0
    3.2997   -1.6442   -0.0039 C   0  0  0  0  0  0  0  0  0  0  0  0
    4.1362   -0.5867   -0.0084 C   0  0  0  0  0  0  0  0  0  0  0  0
   -4.0590   -1.6620    0.0143 O   0  0  0  0  0  0  0  0  0  0  0  0
   -3.3440    2.8317   -0.8864 H   0  0  0  0  0  0  0  0  0  0  0  0
   -4.8807    2.9481    0.0043 H   0  0  0  0  0  0  0  0  0  0  0  0
   -3.3430    2.8353    0.8936 H   0  0  0  0  0  0  0  0  0  0  0  0
   -1.7282   -2.8273    0.0141 H   0  0  0  0  0  0  0  0  0  0  0  0
   -1.5906    2.1278   -0.0010 H   0  0  0  0  0  0  0  0  0  0  0  0
    0.2547    3.0294    0.0002 H   0  0  0  0  0  0  0  0  0  0  0  0
    2.5501    3.9102   -0.0057 H   0  0  0  0  0  0  0  0  0  0  0  0
    4.4931    2.4176   -0.0123 H   0  0  0  0  0  0  0  0  0  0  0  0
    3.6114   -2.6782   -0.0041 H   0  0  0  0  0  0  0  0  0  0  0  0
    5.2155   -0.6240   -0.0134 H   0  0  0  0  0  0  0  0  0  0  0  0
   -4.4066   -1.8503   -0.8682 H   0  0  0  0  0  0  0  0  0  0  0  0
  1  2  1  0  0  0  0
  2  3  1  0  0  0  0
  3  4  2  0  0  0  0
  4  5  1  0  0  0  0
  5  6  2  0  0  0  0
  6  7  1  0  0  0  0
  7  8  2  0  0  0  0
  3  8  1  0  0  0  0
  7  9  1  0  0  0  0
  9 10  2  0  0  0  0
 10 11  1  0  0  0  0
 11 12  2  0  0  0  0
 12 13  1  0  0  0  0
 13 14  2  0  0  0  0
  9 14  1  0  0  0  0
 14 15  1  0  0  0  0
 15 16  1  0  0  0  0
  6 16  1  0  0  0  0
 16 17  2  0  0  0  0
 15 18  1  0  0  0  0
 18 19  2  0  0  0  0
 13 19  1  0  0  0  0
  4 20  1  0  0  0  0
  1 21  1  0  0  0  0
  1 22  1  0  0  0  0
  1 23  1  0  0  0  0
  5 24  1  0  0  0  0
  8 25  1  0  0  0  0
 10 26  1  0  0  0  0
 11 27  1  0  0  0  0
 12 28  1  0  0  0  0
 18 29  1  0  0  0  0
 19 30  1  0  0  0  0
 20 31  1  0  0  0  0
M  END
$$$$
