C4H9NO3S
APtclcactv06211806293D 0   0.00000     0.00000
 
 18 17  0  0  0  0  0  0  0  0999 V2000
    2.9653    0.7487   -1.0836 C   0  0  0  0  0  0  0  0  0  0  0  0
    1.8592   -0.2170   -0.0185 S   0  0  0  0  0  0  0  0  0  0  0  0
    2.1335    0.0813    1.3435 O   0  0  0  0  0  0  0  0  0  0  0  0
    0.2162    0.4147   -0.4568 C   0  0  0  0  0  0  0  0  0  0  0  0
   -0.8467   -0.3118    0.3698 C   0  0  0  0  0  0  0  0  0  0  0  0
   -2.2116    0.2131    0.0056 C   0  0  0  0  0  0  0  0  0  0  0  0
   -2.9148   -0.4087   -0.7552 O   0  0  0  0  0  0  0  0  0  0  0  0
   -2.6462    1.3713    0.5266 O   0  0  0  0  0  0  0  0  0  0  0  0
   -0.7852   -1.7524    0.0891 N   0  0  0  0  0  0  0  0  0  0  0  0
    3.9974    0.4485   -0.9028 H   0  0  0  0  0  0  0  0  0  0  0  0
    2.7122    0.5686   -2.1284 H   0  0  0  0  0  0  0  0  0  0  0  0
    2.8508    1.8093   -0.8597 H   0  0  0  0  0  0  0  0  0  0  0  0
    0.1706    1.4837   -0.2485 H   0  0  0  0  0  0  0  0  0  0  0  0
    0.0320    0.2430   -1.5173 H   0  0  0  0  0  0  0  0  0  0  0  0
   -0.6625   -0.1400    1.4303 H   0  0  0  0  0  0  0  0  0  0  0  0
   -3.5284    1.6674    0.2635 H   0  0  0  0  0  0  0  0  0  0  0  0
   -0.9529   -1.9378   -0.8885 H   0  0  0  0  0  0  0  0  0  0  0  0
    0.0979   -2.1409    0.3845 H   0  0  0  0  0  0  0  0  0  0  0  0
  1  2  1  0  0  0  0
  2  3  2  0  0  0  0
  2  4  1  0  0  0  0
  4  5  1  0  0  0  0
  5  6  1  0  0  0  0
  6  7  2  0  0  0  0
  6  8  1  0  0  0  0
  5  9  1  0  0  0  0
  1 10  1  0  0  0  0
  1 11  1  0  0  0  0
  1 12  1  0  0  0  0
  4 13  1  0  0  0  0
  4 14  1  0  0  0  0
  5 15  1  0  0  0  0
  8 16  1  0  0  0  0
  9 17  1  0  0  0  0
  9 18  1  0  0  0  0
M  END
$$$$
