C15H16O4
APtclcactv06211806443D 0   0.00000     0.00000
 
 35 36  0  0  0  0  0  0  0  0999 V2000
    5.3300   -0.7378   -0.4314 C   0  0  0  0  0  0  0  0  0  0  0  0
    3.9310   -0.2285   -0.1985 C   0  0  0  0  0  0  0  0  0  0  0  0
    3.7308    1.0774    0.2059 C   0  0  0  0  0  0  0  0  0  0  0  0
    2.4433    1.5490    0.4212 C   0  0  0  0  0  0  0  0  0  0  0  0
    1.3576    0.7088    0.2298 C   0  0  0  0  0  0  0  0  0  0  0  0
    1.5610   -0.6015   -0.1766 C   0  0  0  0  0  0  0  0  0  0  0  0
    2.8501   -1.0668   -0.3951 C   0  0  0  0  0  0  0  0  0  0  0  0
    0.4989   -1.4276   -0.3650 O   0  0  0  0  0  0  0  0  0  0  0  0
   -0.7467   -0.9272   -0.1435 C   0  0  0  0  0  0  0  0  0  0  0  0
   -1.4496   -0.3241   -1.1821 C   0  0  0  0  0  0  0  0  0  0  0  0
   -2.7178    0.1847   -0.9538 C   0  0  0  0  0  0  0  0  0  0  0  0
   -3.2840    0.0920    0.3086 C   0  0  0  0  0  0  0  0  0  0  0  0
   -2.5815   -0.5096    1.3423 C   0  0  0  0  0  0  0  0  0  0  0  0
   -1.3185   -1.0229    1.1151 C   0  0  0  0  0  0  0  0  0  0  0  0
   -0.5578   -1.6764    2.2399 C   0  0  0  0  0  0  0  0  0  0  0  0
   -4.5285    0.5916    0.5334 O   0  0  0  0  0  0  0  0  0  0  0  0
   -5.1943    1.1980   -0.5761 C   0  0  0  0  0  0  0  0  0  0  0  0
   -0.8923   -0.2339   -2.4192 O   0  0  0  0  0  0  0  0  0  0  0  0
    2.2473    2.8333    0.8197 O   0  0  0  0  0  0  0  0  0  0  0  0
    5.7234   -1.1562    0.4950 H   0  0  0  0  0  0  0  0  0  0  0  0
    5.3122   -1.5102   -1.2002 H   0  0  0  0  0  0  0  0  0  0  0  0
    5.9665    0.0848   -0.7576 H   0  0  0  0  0  0  0  0  0  0  0  0
    4.5770    1.7317    0.3549 H   0  0  0  0  0  0  0  0  0  0  0  0
    0.3550    1.0738    0.3971 H   0  0  0  0  0  0  0  0  0  0  0  0
    3.0092   -2.0870   -0.7119 H   0  0  0  0  0  0  0  0  0  0  0  0
   -3.2649    0.6535   -1.7584 H   0  0  0  0  0  0  0  0  0  0  0  0
   -3.0237   -0.5807    2.3250 H   0  0  0  0  0  0  0  0  0  0  0  0
   -0.7878   -2.7416    2.2634 H   0  0  0  0  0  0  0  0  0  0  0  0
    0.5121   -1.5391    2.0830 H   0  0  0  0  0  0  0  0  0  0  0  0
   -0.8474   -1.2213    3.1871 H   0  0  0  0  0  0  0  0  0  0  0  0
   -4.6028    2.0382   -0.9398 H   0  0  0  0  0  0  0  0  0  0  0  0
   -5.3128    0.4647   -1.3738 H   0  0  0  0  0  0  0  0  0  0  0  0
   -6.1753    1.5538   -0.2609 H   0  0  0  0  0  0  0  0  0  0  0  0
   -1.0830   -0.9889   -2.9925 H   0  0  0  0  0  0  0  0  0  0  0  0
    2.1426    3.4598    0.0906 H   0  0  0  0  0  0  0  0  0  0  0  0
  1  2  1  0  0  0  0
  2  3  2  0  0  0  0
  3  4  1  0  0  0  0
  4  5  2  0  0  0  0
  5  6  1  0  0  0  0
  6  7  2  0  0  0  0
  2  7  1  0  0  0  0
  6  8  1  0  0  0  0
  8  9  1  0  0  0  0
  9 10  2  0  0  0  0
 10 11  1  0  0  0  0
 11 12  2  0  0  0  0
 12 13  1  0  0  0  0
 13 14  2  0  0  0  0
  9 14  1  0  0  0  0
 14 15  1  0  0  0  0
 12 16  1  0  0  0  0
 16 17  1  0  0  0  0
 10 18  1  0  0  0  0
  4 19  1  0  0  0  0
  1 20  1  0  0  0  0
  1 21  1  0  0  0  0
  1 22  1  0  0  0  0
  3 23  1  0  0  0  0
  5 24  1  0  0  0  0
  7 25  1  0  0  0  0
 11 26  1  0  0  0  0
 13 27  1  0  0  0  0
 15 28  1  0  0  0  0
 15 29  1  0  0  0  0
 15 30  1  0  0  0  0
 17 31  1  0  0  0  0
 17 32  1  0  0  0  0
 17 33  1  0  0  0  0
 18 34  1  0  0  0  0
 19 35  1  0  0  0  0
M  END
$$$$
