C9H20
APtclcactv06211806103D 0   0.00000     0.00000
 
 29 28  0  0  0  0  0  0  0  0999 V2000
    2.9658    0.0453    0.7504 C   0  0  0  0  0  0  0  0  0  0  0  0
    1.4480   -0.1105    0.8638 C   0  0  0  0  0  0  0  0  0  0  0  0
    0.8150    0.0401   -0.5209 C   0  0  0  0  0  0  0  0  0  0  0  0
    1.2740   -1.1102   -1.4193 C   0  0  0  0  0  0  0  0  0  0  0  0
   -0.7092    0.0088   -0.3911 C   0  0  0  0  0  0  0  0  0  0  0  0
   -1.1319   -1.2606    0.3510 C   0  0  0  0  0  0  0  0  0  0  0  0
   -2.6589   -1.3546    0.3719 C   0  0  0  0  0  0  0  0  0  0  0  0
   -1.1797    1.2371    0.3905 C   0  0  0  0  0  0  0  0  0  0  0  0
   -0.8669    2.5023   -0.4110 C   0  0  0  0  0  0  0  0  0  0  0  0
    3.2009    1.0309    0.3487 H   0  0  0  0  0  0  0  0  0  0  0  0
    3.4168   -0.0620    1.7369 H   0  0  0  0  0  0  0  0  0  0  0  0
    3.3611   -0.7221    0.0848 H   0  0  0  0  0  0  0  0  0  0  0  0
    1.2130   -1.0961    1.2655 H   0  0  0  0  0  0  0  0  0  0  0  0
    1.0527    0.6569    1.5294 H   0  0  0  0  0  0  0  0  0  0  0  0
    1.1229    0.9890   -0.9599 H   0  0  0  0  0  0  0  0  0  0  0  0
    1.0525   -2.0608   -0.9341 H   0  0  0  0  0  0  0  0  0  0  0  0
    0.7489   -1.0581   -2.3731 H   0  0  0  0  0  0  0  0  0  0  0  0
    2.3475   -1.0312   -1.5908 H   0  0  0  0  0  0  0  0  0  0  0  0
   -1.1586    0.0159   -1.3840 H   0  0  0  0  0  0  0  0  0  0  0  0
   -0.7211   -2.1327   -0.1577 H   0  0  0  0  0  0  0  0  0  0  0  0
   -0.7560   -1.2259    1.3736 H   0  0  0  0  0  0  0  0  0  0  0  0
   -3.0347   -1.3893   -0.6507 H   0  0  0  0  0  0  0  0  0  0  0  0
   -2.9600   -2.2590    0.9006 H   0  0  0  0  0  0  0  0  0  0  0  0
   -3.0697   -0.4825    0.8806 H   0  0  0  0  0  0  0  0  0  0  0  0
   -2.2544    1.1704    0.5595 H   0  0  0  0  0  0  0  0  0  0  0  0
   -0.6629    1.2775    1.3494 H   0  0  0  0  0  0  0  0  0  0  0  0
   -1.2842    3.3693    0.1012 H   0  0  0  0  0  0  0  0  0  0  0  0
    0.2132    2.6180   -0.5003 H   0  0  0  0  0  0  0  0  0  0  0  0
   -1.3071    2.4208   -1.4049 H   0  0  0  0  0  0  0  0  0  0  0  0
  1  2  1  0  0  0  0
  2  3  1  0  0  0  0
  3  4  1  0  0  0  0
  3  5  1  0  0  0  0
  5  6  1  0  0  0  0
  6  7  1  0  0  0  0
  5  8  1  0  0  0  0
  8  9  1  0  0  0  0
  1 10  1  0  0  0  0
  1 11  1  0  0  0  0
  1 12  1  0  0  0  0
  2 13  1  0  0  0  0
  2 14  1  0  0  0  0
  3 15  1  0  0  0  0
  4 16  1  0  0  0  0
  4 17  1  0  0  0  0
  4 18  1  0  0  0  0
  5 19  1  0  0  0  0
  6 20  1  0  0  0  0
  6 21  1  0  0  0  0
  7 22  1  0  0  0  0
  7 23  1  0  0  0  0
  7 24  1  0  0  0  0
  8 25  1  0  0  0  0
  8 26  1  0  0  0  0
  9 27  1  0  0  0  0
  9 28  1  0  0  0  0
  9 29  1  0  0  0  0
M  END
$$$$
