C21H38O
APtclcactv06211806443D 0   0.00000     0.00000
 
 60 60  0  0  0  0  0  0  0  0999 V2000
   12.6412   -0.0964    0.0164 C   0  0  0  0  0  0  0  0  0  0  0  0
   11.3538    0.7299   -0.0135 C   0  0  0  0  0  0  0  0  0  0  0  0
   10.1452   -0.2078    0.0154 C   0  0  0  0  0  0  0  0  0  0  0  0
    8.8578    0.6185   -0.0145 C   0  0  0  0  0  0  0  0  0  0  0  0
    7.6492   -0.3192    0.0144 C   0  0  0  0  0  0  0  0  0  0  0  0
    6.3618    0.5071   -0.0155 C   0  0  0  0  0  0  0  0  0  0  0  0
    5.1532   -0.4306    0.0133 C   0  0  0  0  0  0  0  0  0  0  0  0
    3.8658    0.3956   -0.0166 C   0  0  0  0  0  0  0  0  0  0  0  0
    2.6572   -0.5420    0.0123 C   0  0  0  0  0  0  0  0  0  0  0  0
    1.3698    0.2842   -0.0176 C   0  0  0  0  0  0  0  0  0  0  0  0
    0.1612   -0.6535    0.0113 C   0  0  0  0  0  0  0  0  0  0  0  0
   -1.1262    0.1728   -0.0186 C   0  0  0  0  0  0  0  0  0  0  0  0
   -2.3348   -0.7649    0.0103 C   0  0  0  0  0  0  0  0  0  0  0  0
   -3.6222    0.0614   -0.0196 C   0  0  0  0  0  0  0  0  0  0  0  0
   -4.8308   -0.8763    0.0093 C   0  0  0  0  0  0  0  0  0  0  0  0
   -6.1182   -0.0500   -0.0206 C   0  0  0  0  0  0  0  0  0  0  0  0
   -7.3268   -0.9877    0.0082 C   0  0  0  0  0  0  0  0  0  0  0  0
   -8.5948   -0.1739   -0.0212 C   0  0  0  0  0  0  0  0  0  0  0  0
   -9.2546    0.2147   -1.1271 C   0  0  0  0  0  0  0  0  0  0  0  0
  -10.3806    0.9521   -0.6944 C   0  0  0  0  0  0  0  0  0  0  0  0
  -10.3415    0.9700    0.6501 C   0  0  0  0  0  0  0  0  0  0  0  0
   -9.2609    0.2815    1.0524 O   0  0  0  0  0  0  0  0  0  0  0  0
   12.6675   -0.6951    0.9268 H   0  0  0  0  0  0  0  0  0  0  0  0
   12.6709   -0.7543   -0.8522 H   0  0  0  0  0  0  0  0  0  0  0  0
   13.5022    0.5717   -0.0042 H   0  0  0  0  0  0  0  0  0  0  0  0
   11.3241    1.3878    0.8551 H   0  0  0  0  0  0  0  0  0  0  0  0
   11.3274    1.3287   -0.9239 H   0  0  0  0  0  0  0  0  0  0  0  0
   10.1749   -0.8657   -0.8532 H   0  0  0  0  0  0  0  0  0  0  0  0
   10.1715   -0.8066    0.9258 H   0  0  0  0  0  0  0  0  0  0  0  0
    8.8281    1.2764    0.8540 H   0  0  0  0  0  0  0  0  0  0  0  0
    8.8314    1.2173   -0.9249 H   0  0  0  0  0  0  0  0  0  0  0  0
    7.6789   -0.9771   -0.8542 H   0  0  0  0  0  0  0  0  0  0  0  0
    7.6755   -0.9180    0.9248 H   0  0  0  0  0  0  0  0  0  0  0  0
    6.3321    1.1650    0.8530 H   0  0  0  0  0  0  0  0  0  0  0  0
    6.3355    1.1058   -0.9260 H   0  0  0  0  0  0  0  0  0  0  0  0
    5.1829   -1.0885   -0.8552 H   0  0  0  0  0  0  0  0  0  0  0  0
    5.1795   -1.0294    0.9238 H   0  0  0  0  0  0  0  0  0  0  0  0
    3.8361    1.0535    0.8520 H   0  0  0  0  0  0  0  0  0  0  0  0
    3.8395    0.9944   -0.9270 H   0  0  0  0  0  0  0  0  0  0  0  0
    2.6869   -1.1999   -0.8562 H   0  0  0  0  0  0  0  0  0  0  0  0
    2.6835   -1.1408    0.9227 H   0  0  0  0  0  0  0  0  0  0  0  0
    1.3401    0.9421    0.8510 H   0  0  0  0  0  0  0  0  0  0  0  0
    1.3435    0.8830   -0.9280 H   0  0  0  0  0  0  0  0  0  0  0  0
    0.1909   -1.3114   -0.8573 H   0  0  0  0  0  0  0  0  0  0  0  0
    0.1875   -1.2522    0.9217 H   0  0  0  0  0  0  0  0  0  0  0  0
   -1.1559    0.8307    0.8500 H   0  0  0  0  0  0  0  0  0  0  0  0
   -1.1525    0.7716   -0.9290 H   0  0  0  0  0  0  0  0  0  0  0  0
   -2.3051   -1.4228   -0.8583 H   0  0  0  0  0  0  0  0  0  0  0  0
   -2.3084   -1.3637    0.9207 H   0  0  0  0  0  0  0  0  0  0  0  0
   -3.6519    0.7193    0.8489 H   0  0  0  0  0  0  0  0  0  0  0  0
   -3.6485    0.6602   -0.9300 H   0  0  0  0  0  0  0  0  0  0  0  0
   -4.8011   -1.5342   -0.8593 H   0  0  0  0  0  0  0  0  0  0  0  0
   -4.8044   -1.4751    0.9197 H   0  0  0  0  0  0  0  0  0  0  0  0
   -6.1479    0.6078    0.8479 H   0  0  0  0  0  0  0  0  0  0  0  0
   -6.1445    0.5487   -0.9311 H   0  0  0  0  0  0  0  0  0  0  0  0
   -7.2971   -1.6456   -0.8603 H   0  0  0  0  0  0  0  0  0  0  0  0
   -7.3004   -1.5865    0.9187 H   0  0  0  0  0  0  0  0  0  0  0  0
   -8.9772    0.0043   -2.1494 H   0  0  0  0  0  0  0  0  0  0  0  0
  -11.1285    1.4129   -1.3227 H   0  0  0  0  0  0  0  0  0  0  0  0
  -11.0596    1.4528    1.2964 H   0  0  0  0  0  0  0  0  0  0  0  0
  1  2  1  0  0  0  0
  2  3  1  0  0  0  0
  3  4  1  0  0  0  0
  4  5  1  0  0  0  0
  5  6  1  0  0  0  0
  6  7  1  0  0  0  0
  7  8  1  0  0  0  0
  8  9  1  0  0  0  0
  9 10  1  0  0  0  0
 10 11  1  0  0  0  0
 11 12  1  0  0  0  0
 12 13  1  0  0  0  0
 13 14  1  0  0  0  0
 14 15  1  0  0  0  0
 15 16  1  0  0  0  0
 16 17  1  0  0  0  0
 17 18  1  0  0  0  0
 18 19  2  0  0  0  0
 19 20  1  0  0  0  0
 20 21  2  0  0  0  0
 21 22  1  0  0  0  0
 18 22  1  0  0  0  0
  1 23  1  0  0  0  0
  1 24  1  0  0  0  0
  1 25  1  0  0  0  0
  2 26  1  0  0  0  0
  2 27  1  0  0  0  0
  3 28  1  0  0  0  0
  3 29  1  0  0  0  0
  4 30  1  0  0  0  0
  4 31  1  0  0  0  0
  5 32  1  0  0  0  0
  5 33  1  0  0  0  0
  6 34  1  0  0  0  0
  6 35  1  0  0  0  0
  7 36  1  0  0  0  0
  7 37  1  0  0  0  0
  8 38  1  0  0  0  0
  8 39  1  0  0  0  0
  9 40  1  0  0  0  0
  9 41  1  0  0  0  0
 10 42  1  0  0  0  0
 10 43  1  0  0  0  0
 11 44  1  0  0  0  0
 11 45  1  0  0  0  0
 12 46  1  0  0  0  0
 12 47  1  0  0  0  0
 13 48  1  0  0  0  0
 13 49  1  0  0  0  0
 14 50  1  0  0  0  0
 14 51  1  0  0  0  0
 15 52  1  0  0  0  0
 15 53  1  0  0  0  0
 16 54  1  0  0  0  0
 16 55  1  0  0  0  0
 17 56  1  0  0  0  0
 17 57  1  0  0  0  0
 19 58  1  0  0  0  0
 20 59  1  0  0  0  0
 21 60  1  0  0  0  0
M  END
$$$$
