C16H14O5
APtclcactv06211806443D 0   0.00000     0.00000
 
 35 37  0  0  0  0  0  0  0  0999 V2000
    6.7318    0.7829   -0.7326 C   0  0  0  0  0  0  0  0  0  0  0  0
    6.0053   -0.2520   -0.0669 O   0  0  0  0  0  0  0  0  0  0  0  0
    4.6518   -0.1366   -0.0405 C   0  0  0  0  0  0  0  0  0  0  0  0
    3.8876   -1.1076    0.5899 C   0  0  0  0  0  0  0  0  0  0  0  0
    2.5086   -0.9933    0.6187 C   0  0  0  0  0  0  0  0  0  0  0  0
    1.8883    0.1055    0.0101 C   0  0  0  0  0  0  0  0  0  0  0  0
    2.6657    1.0779   -0.6215 C   0  0  0  0  0  0  0  0  0  0  0  0
    4.0385    0.9566   -0.6401 C   0  0  0  0  0  0  0  0  0  0  0  0
    0.4173    0.2344    0.0361 C   0  0  0  0  0  0  0  0  0  0  0  0
   -0.2606    1.3451    0.4137 C   0  0  0  0  0  0  0  0  0  0  0  0
   -1.6828    1.0177    0.2817 C   0  0  0  0  0  0  0  0  0  0  0  0
   -2.8667    1.7217    0.5110 C   0  0  0  0  0  0  0  0  0  0  0  0
   -4.0812    1.1073    0.2814 C   0  0  0  0  0  0  0  0  0  0  0  0
   -4.1239   -0.2104   -0.1774 C   0  0  0  0  0  0  0  0  0  0  0  0
   -2.9557   -0.9133   -0.4061 C   0  0  0  0  0  0  0  0  0  0  0  0
   -1.7259   -0.3094   -0.1804 C   0  0  0  0  0  0  0  0  0  0  0  0
   -0.4516   -0.7333   -0.3177 O   0  0  0  0  0  0  0  0  0  0  0  0
   -5.3251   -0.8078   -0.4010 O   0  0  0  0  0  0  0  0  0  0  0  0
   -5.3010   -2.1575   -0.8700 C   0  0  0  0  0  0  0  0  0  0  0  0
   -5.2387    1.7870    0.5030 O   0  0  0  0  0  0  0  0  0  0  0  0
    1.7589   -1.9438    1.2348 O   0  0  0  0  0  0  0  0  0  0  0  0
    7.7993    0.5688   -0.6803 H   0  0  0  0  0  0  0  0  0  0  0  0
    6.4216    0.8309   -1.7764 H   0  0  0  0  0  0  0  0  0  0  0  0
    6.5287    1.7383   -0.2488 H   0  0  0  0  0  0  0  0  0  0  0  0
    4.3689   -1.9535    1.0581 H   0  0  0  0  0  0  0  0  0  0  0  0
    2.1919    1.9267   -1.0921 H   0  0  0  0  0  0  0  0  0  0  0  0
    4.6390    1.7094   -1.1290 H   0  0  0  0  0  0  0  0  0  0  0  0
    0.1618    2.2821    0.7455 H   0  0  0  0  0  0  0  0  0  0  0  0
   -2.8324    2.7410    0.8663 H   0  0  0  0  0  0  0  0  0  0  0  0
   -2.9995   -1.9325   -0.7607 H   0  0  0  0  0  0  0  0  0  0  0  0
   -4.7702   -2.2022   -1.8209 H   0  0  0  0  0  0  0  0  0  0  0  0
   -4.7922   -2.7868   -0.1399 H   0  0  0  0  0  0  0  0  0  0  0  0
   -6.3223   -2.5128   -1.0070 H   0  0  0  0  0  0  0  0  0  0  0  0
   -5.5625    2.2739   -0.2671 H   0  0  0  0  0  0  0  0  0  0  0  0
    1.5950   -1.7692    2.1717 H   0  0  0  0  0  0  0  0  0  0  0  0
  1  2  1  0  0  0  0
  2  3  1  0  0  0  0
  3  4  2  0  0  0  0
  4  5  1  0  0  0  0
  5  6  2  0  0  0  0
  6  7  1  0  0  0  0
  7  8  2  0  0  0  0
  3  8  1  0  0  0  0
  6  9  1  0  0  0  0
  9 10  2  0  0  0  0
 10 11  1  0  0  0  0
 11 12  2  0  0  0  0
 12 13  1  0  0  0  0
 13 14  2  0  0  0  0
 14 15  1  0  0  0  0
 15 16  2  0  0  0  0
 11 16  1  0  0  0  0
 16 17  1  0  0  0  0
  9 17  1  0  0  0  0
 14 18  1  0  0  0  0
 18 19  1  0  0  0  0
 13 20  1  0  0  0  0
  5 21  1  0  0  0  0
  1 22  1  0  0  0  0
  1 23  1  0  0  0  0
  1 24  1  0  0  0  0
  4 25  1  0  0  0  0
  7 26  1  0  0  0  0
  8 27  1  0  0  0  0
 10 28  1  0  0  0  0
 12 29  1  0  0  0  0
 15 30  1  0  0  0  0
 19 31  1  0  0  0  0
 19 32  1  0  0  0  0
 19 33  1  0  0  0  0
 20 34  1  0  0  0  0
 21 35  1  0  0  0  0
M  END
$$$$
