C6H8O
APtclcactv06211806103D 0   0.00000     0.00000
 
 15 15  0  0  0  0  0  0  0  0999 V2000
    2.5084    0.0116   -0.6634 C   0  0  0  0  0  0  0  0  0  0  0  0
    1.6831   -0.0022    0.6249 C   0  0  0  0  0  0  0  0  0  0  0  0
    0.2160   -0.0298    0.2812 C   0  0  0  0  0  0  0  0  0  0  0  0
   -0.5295   -1.1352    0.1031 C   0  0  0  0  0  0  0  0  0  0  0  0
   -1.8398   -0.7007   -0.2023 C   0  0  0  0  0  0  0  0  0  0  0  0
   -1.8165    0.6442   -0.1926 C   0  0  0  0  0  0  0  0  0  0  0  0
   -0.5701    1.0450    0.1066 O   0  0  0  0  0  0  0  0  0  0  0  0
    3.5695    0.0315   -0.4148 H   0  0  0  0  0  0  0  0  0  0  0  0
    2.2884   -0.8833   -1.2455 H   0  0  0  0  0  0  0  0  0  0  0  0
    2.2554    0.8963   -1.2475 H   0  0  0  0  0  0  0  0  0  0  0  0
    1.9361   -0.8870    1.2090 H   0  0  0  0  0  0  0  0  0  0  0  0
    1.9031    0.8927    1.2070 H   0  0  0  0  0  0  0  0  0  0  0  0
   -0.1919   -2.1583    0.1784 H   0  0  0  0  0  0  0  0  0  0  0  0
   -2.6951   -1.3282   -0.4049 H   0  0  0  0  0  0  0  0  0  0  0  0
   -2.6584    1.2919   -0.3882 H   0  0  0  0  0  0  0  0  0  0  0  0
  1  2  1  0  0  0  0
  2  3  1  0  0  0  0
  3  4  2  0  0  0  0
  4  5  1  0  0  0  0
  5  6  2  0  0  0  0
  6  7  1  0  0  0  0
  3  7  1  0  0  0  0
  1  8  1  0  0  0  0
  1  9  1  0  0  0  0
  1 10  1  0  0  0  0
  2 11  1  0  0  0  0
  2 12  1  0  0  0  0
  4 13  1  0  0  0  0
  5 14  1  0  0  0  0
  6 15  1  0  0  0  0
M  END
$$$$
