C15H14O5
APtclcactv06211806443D 0   0.00000     0.00000
 
 34 36  0  0  0  0  0  0  0  0999 V2000
    0.2719    1.4504   -0.6872 C   0  0  0  0  0  0  0  0  0  0  0  0
   -1.1859    1.8260   -0.4101 C   0  0  0  0  0  0  0  0  0  0  0  0
   -1.9998    0.5757   -0.1907 C   0  0  0  0  0  0  0  0  0  0  0  0
   -3.3837    0.6527   -0.2956 C   0  0  0  0  0  0  0  0  0  0  0  0
   -4.1631   -0.4754   -0.0968 C   0  0  0  0  0  0  0  0  0  0  0  0
   -3.5602   -1.6863    0.2082 C   0  0  0  0  0  0  0  0  0  0  0  0
   -2.1809   -1.7642    0.3116 C   0  0  0  0  0  0  0  0  0  0  0  0
   -1.3974   -0.6329    0.1110 C   0  0  0  0  0  0  0  0  0  0  0  0
   -0.0482   -0.7543    0.2133 O   0  0  0  0  0  0  0  0  0  0  0  0
    0.7191    0.4392    0.3763 C   0  0  0  0  0  0  0  0  0  0  0  0
    2.1832    0.1297    0.1984 C   0  0  0  0  0  0  0  0  0  0  0  0
    3.1199    0.7275    1.0213 C   0  0  0  0  0  0  0  0  0  0  0  0
    4.4626    0.4455    0.8603 C   0  0  0  0  0  0  0  0  0  0  0  0
    4.8709   -0.4384   -0.1280 C   0  0  0  0  0  0  0  0  0  0  0  0
    3.9291   -1.0369   -0.9523 C   0  0  0  0  0  0  0  0  0  0  0  0
    2.5871   -0.7559   -0.7836 C   0  0  0  0  0  0  0  0  0  0  0  0
    6.1913   -0.7172   -0.2886 O   0  0  0  0  0  0  0  0  0  0  0  0
   -4.3212   -2.7947    0.4057 O   0  0  0  0  0  0  0  0  0  0  0  0
   -3.9747    1.8394   -0.5939 O   0  0  0  0  0  0  0  0  0  0  0  0
   -1.2517    2.6471    0.7575 O   0  0  0  0  0  0  0  0  0  0  0  0
    0.3541    1.0026   -1.6776 H   0  0  0  0  0  0  0  0  0  0  0  0
    0.8975    2.3413   -0.6332 H   0  0  0  0  0  0  0  0  0  0  0  0
   -1.5872    2.3750   -1.2619 H   0  0  0  0  0  0  0  0  0  0  0  0
   -5.2381   -0.4117   -0.1788 H   0  0  0  0  0  0  0  0  0  0  0  0
   -1.7121   -2.7076    0.5494 H   0  0  0  0  0  0  0  0  0  0  0  0
    0.5487    0.8524    1.3704 H   0  0  0  0  0  0  0  0  0  0  0  0
    2.8015    1.4158    1.7902 H   0  0  0  0  0  0  0  0  0  0  0  0
    5.1939    0.9129    1.5030 H   0  0  0  0  0  0  0  0  0  0  0  0
    4.2445   -1.7254   -1.7223 H   0  0  0  0  0  0  0  0  0  0  0  0
    1.8536   -1.2215   -1.4250 H   0  0  0  0  0  0  0  0  0  0  0  0
    6.5011   -1.4687    0.2351 H   0  0  0  0  0  0  0  0  0  0  0  0
   -4.4879   -3.3057   -0.3981 H   0  0  0  0  0  0  0  0  0  0  0  0
   -4.0910    1.9937   -1.5414 H   0  0  0  0  0  0  0  0  0  0  0  0
   -2.1476    2.9239    0.9938 H   0  0  0  0  0  0  0  0  0  0  0  0
  1  2  1  0  0  0  0
  2  3  1  0  0  0  0
  3  4  2  0  0  0  0
  4  5  1  0  0  0  0
  5  6  2  0  0  0  0
  6  7  1  0  0  0  0
  7  8  2  0  0  0  0
  3  8  1  0  0  0  0
  8  9  1  0  0  0  0
  9 10  1  0  0  0  0
  1 10  1  0  0  0  0
 10 11  1  0  0  0  0
 11 12  2  0  0  0  0
 12 13  1  0  0  0  0
 13 14  2  0  0  0  0
 14 15  1  0  0  0  0
 15 16  2  0  0  0  0
 11 16  1  0  0  0  0
 14 17  1  0  0  0  0
  6 18  1  0  0  0  0
  4 19  1  0  0  0  0
  2 20  1  0  0  0  0
  1 21  1  0  0  0  0
  1 22  1  0  0  0  0
  2 23  1  0  0  0  0
  5 24  1  0  0  0  0
  7 25  1  0  0  0  0
 10 26  1  0  0  0  0
 12 27  1  0  0  0  0
 13 28  1  0  0  0  0
 15 29  1  0  0  0  0
 16 30  1  0  0  0  0
 17 31  1  0  0  0  0
 18 32  1  0  0  0  0
 19 33  1  0  0  0  0
 20 34  1  0  0  0  0
M  END
$$$$
