C9H20
APtclcactv06211806103D 0   0.00000     0.00000
 
 29 28  0  0  0  0  0  0  0  0999 V2000
    4.7168   -0.3625    0.1334 C   0  0  0  0  0  0  0  0  0  0  0  0
    3.4838    0.4374   -0.2915 C   0  0  0  0  0  0  0  0  0  0  0  0
    2.2213   -0.2676    0.2083 C   0  0  0  0  0  0  0  0  0  0  0  0
    0.9882    0.5323   -0.2166 C   0  0  0  0  0  0  0  0  0  0  0  0
   -0.2743   -0.1727    0.2833 C   0  0  0  0  0  0  0  0  0  0  0  0
   -1.5073    0.6272   -0.1417 C   0  0  0  0  0  0  0  0  0  0  0  0
   -2.7698   -0.0778    0.3582 C   0  0  0  0  0  0  0  0  0  0  0  0
   -3.9941    0.7839    0.0425 C   0  0  0  0  0  0  0  0  0  0  0  0
   -2.9068   -1.4331   -0.3384 C   0  0  0  0  0  0  0  0  0  0  0  0
    5.6163    0.1398   -0.2227 H   0  0  0  0  0  0  0  0  0  0  0  0
    4.7468   -0.4337    1.2207 H   0  0  0  0  0  0  0  0  0  0  0  0
    4.6659   -1.3635   -0.2949 H   0  0  0  0  0  0  0  0  0  0  0  0
    3.5347    1.4384    0.1368 H   0  0  0  0  0  0  0  0  0  0  0  0
    3.4539    0.5086   -1.3788 H   0  0  0  0  0  0  0  0  0  0  0  0
    2.1704   -1.2686   -0.2200 H   0  0  0  0  0  0  0  0  0  0  0  0
    2.2512   -0.3388    1.2956 H   0  0  0  0  0  0  0  0  0  0  0  0
    1.0392    1.5333    0.2117 H   0  0  0  0  0  0  0  0  0  0  0  0
    0.9583    0.6035   -1.3039 H   0  0  0  0  0  0  0  0  0  0  0  0
   -0.3252   -1.1737   -0.1451 H   0  0  0  0  0  0  0  0  0  0  0  0
   -0.2443   -0.2439    1.3705 H   0  0  0  0  0  0  0  0  0  0  0  0
   -1.4564    1.6282    0.2866 H   0  0  0  0  0  0  0  0  0  0  0  0
   -1.5372    0.6984   -1.2290 H   0  0  0  0  0  0  0  0  0  0  0  0
   -2.6995   -0.2284    1.4354 H   0  0  0  0  0  0  0  0  0  0  0  0
   -4.0644    0.9345   -1.0348 H   0  0  0  0  0  0  0  0  0  0  0  0
   -4.8935    0.2816    0.3986 H   0  0  0  0  0  0  0  0  0  0  0  0
   -3.8965    1.7494    0.5387 H   0  0  0  0  0  0  0  0  0  0  0  0
   -2.9771   -1.2826   -1.4156 H   0  0  0  0  0  0  0  0  0  0  0  0
   -2.0346   -2.0470   -0.1135 H   0  0  0  0  0  0  0  0  0  0  0  0
   -3.8062   -1.9354    0.0177 H   0  0  0  0  0  0  0  0  0  0  0  0
  1  2  1  0  0  0  0
  2  3  1  0  0  0  0
  3  4  1  0  0  0  0
  4  5  1  0  0  0  0
  5  6  1  0  0  0  0
  6  7  1  0  0  0  0
  7  8  1  0  0  0  0
  7  9  1  0  0  0  0
  1 10  1  0  0  0  0
  1 11  1  0  0  0  0
  1 12  1  0  0  0  0
  2 13  1  0  0  0  0
  2 14  1  0  0  0  0
  3 15  1  0  0  0  0
  3 16  1  0  0  0  0
  4 17  1  0  0  0  0
  4 18  1  0  0  0  0
  5 19  1  0  0  0  0
  5 20  1  0  0  0  0
  6 21  1  0  0  0  0
  6 22  1  0  0  0  0
  7 23  1  0  0  0  0
  8 24  1  0  0  0  0
  8 25  1  0  0  0  0
  8 26  1  0  0  0  0
  9 27  1  0  0  0  0
  9 28  1  0  0  0  0
  9 29  1  0  0  0  0
M  END
$$$$
