C5H10Br2O2
APtclcactv06211806103D 0   0.00000     0.00000
 
 19 18  0  0  0  0  0  0  0  0999 V2000
    0.0000    1.2492    0.7184 C   0  0  0  0  0  0  0  0  0  0  0  0
    0.0000    0.0000   -0.1650 C   0  0  0  0  0  0  0  0  0  0  0  0
   -0.0000   -1.2492    0.7184 C   0  0  0  0  0  0  0  0  0  0  0  0
    0.0000   -2.4160   -0.1066 O   0  0  0  0  0  0  0  0  0  0  0  0
   -1.2492    0.0000   -1.0483 C   0  0  0  0  0  0  0  0  0  0  0  0
   -2.8545   -0.0000    0.0868 Br  0  0  0  0  0  0  0  0  0  0  0  0
    1.2492    0.0000   -1.0483 C   0  0  0  0  0  0  0  0  0  0  0  0
    2.8545   -0.0000    0.0868 Br  0  0  0  0  0  0  0  0  0  0  0  0
   -0.0000    2.4160   -0.1066 O   0  0  0  0  0  0  0  0  0  0  0  0
   -0.8900    1.2492    1.3477 H   0  0  0  0  0  0  0  0  0  0  0  0
    0.8900    1.2492    1.3477 H   0  0  0  0  0  0  0  0  0  0  0  0
    0.8900   -1.2492    1.3477 H   0  0  0  0  0  0  0  0  0  0  0  0
   -0.8900   -1.2492    1.3477 H   0  0  0  0  0  0  0  0  0  0  0  0
   -0.0000   -3.2472    0.3876 H   0  0  0  0  0  0  0  0  0  0  0  0
   -1.2492    0.8900   -1.6776 H   0  0  0  0  0  0  0  0  0  0  0  0
   -1.2492   -0.8900   -1.6776 H   0  0  0  0  0  0  0  0  0  0  0  0
    1.2492   -0.8900   -1.6776 H   0  0  0  0  0  0  0  0  0  0  0  0
    1.2492    0.8900   -1.6776 H   0  0  0  0  0  0  0  0  0  0  0  0
    0.0000    3.2472    0.3876 H   0  0  0  0  0  0  0  0  0  0  0  0
  1  2  1  0  0  0  0
  2  3  1  0  0  0  0
  3  4  1  0  0  0  0
  2  5  1  0  0  0  0
  5  6  1  0  0  0  0
  2  7  1  0  0  0  0
  7  8  1  0  0  0  0
  1  9  1  0  0  0  0
  1 10  1  0  0  0  0
  1 11  1  0  0  0  0
  3 12  1  0  0  0  0
  3 13  1  0  0  0  0
  4 14  1  0  0  0  0
  5 15  1  0  0  0  0
  5 16  1  0  0  0  0
  7 17  1  0  0  0  0
  7 18  1  0  0  0  0
  9 19  1  0  0  0  0
M  END
$$$$
