C7H16NO2
APtclcactv06211802133D 0   0.00000     0.00000
 
 26 25  0  0  0  0  0  0  0  0999 V2000
    3.1725    1.2555   -0.0320 C   0  0  0  0  0  0  0  0  0  0  0  0
    2.2837    0.0388   -0.0077 C   0  0  0  0  0  0  0  0  0  0  0  0
    2.7167   -1.0328   -0.3602 O   0  0  0  0  0  0  0  0  0  0  0  0
    1.0111    0.1454    0.4056 O   0  0  0  0  0  0  0  0  0  0  0  0
    0.2133   -1.0678    0.4028 C   0  0  0  0  0  0  0  0  0  0  0  0
   -1.1980   -0.7512    0.9017 C   0  0  0  0  0  0  0  0  0  0  0  0
   -1.8748    0.1228   -0.0657 N   0  3  0  0  0  0  0  0  0  0  0  0
   -1.8385   -0.4987   -1.3963 C   0  0  0  0  0  0  0  0  0  0  0  0
   -3.2715    0.3191    0.3451 C   0  0  0  0  0  0  0  0  0  0  0  0
   -1.1913    1.4222   -0.1135 C   0  0  0  0  0  0  0  0  0  0  0  0
    4.1619    0.9756   -0.3937 H   0  0  0  0  0  0  0  0  0  0  0  0
    2.7424    2.0064   -0.6948 H   0  0  0  0  0  0  0  0  0  0  0  0
    3.2560    1.6647    0.9748 H   0  0  0  0  0  0  0  0  0  0  0  0
    0.1597   -1.4650   -0.6109 H   0  0  0  0  0  0  0  0  0  0  0  0
    0.6733   -1.8068    1.0588 H   0  0  0  0  0  0  0  0  0  0  0  0
   -1.7614   -1.6780    1.0102 H   0  0  0  0  0  0  0  0  0  0  0  0
   -1.1379   -0.2475    1.8664 H   0  0  0  0  0  0  0  0  0  0  0  0
   -2.3457   -1.4629   -1.3609 H   0  0  0  0  0  0  0  0  0  0  0  0
   -2.3407    0.1499   -2.1141 H   0  0  0  0  0  0  0  0  0  0  0  0
   -0.8022   -0.6443   -1.7011 H   0  0  0  0  0  0  0  0  0  0  0  0
   -3.2984    0.7803    1.3324 H   0  0  0  0  0  0  0  0  0  0  0  0
   -3.7737    0.9676   -0.3727 H   0  0  0  0  0  0  0  0  0  0  0  0
   -3.7787   -0.6451    0.3805 H   0  0  0  0  0  0  0  0  0  0  0  0
   -0.2248    1.3066   -0.6041 H   0  0  0  0  0  0  0  0  0  0  0  0
   -1.8000    2.1327   -0.6728 H   0  0  0  0  0  0  0  0  0  0  0  0
   -1.0418    1.7916    0.9011 H   0  0  0  0  0  0  0  0  0  0  0  0
  1  2  1  0  0  0  0
  2  3  2  0  0  0  0
  2  4  1  0  0  0  0
  4  5  1  0  0  0  0
  5  6  1  0  0  0  0
  6  7  1  0  0  0  0
  7  8  1  0  0  0  0
  7  9  1  0  0  0  0
  7 10  1  0  0  0  0
  1 11  1  0  0  0  0
  1 12  1  0  0  0  0
  1 13  1  0  0  0  0
  5 14  1  0  0  0  0
  5 15  1  0  0  0  0
  6 16  1  0  0  0  0
  6 17  1  0  0  0  0
  8 18  1  0  0  0  0
  8 19  1  0  0  0  0
  8 20  1  0  0  0  0
  9 21  1  0  0  0  0
  9 22  1  0  0  0  0
  9 23  1  0  0  0  0
 10 24  1  0  0  0  0
 10 25  1  0  0  0  0
 10 26  1  0  0  0  0
M  CHG  1   7   1
M  END
$$$$
