C11H14O6
APtclcactv06211806443D 0   0.00000     0.00000
 
 31 31  0  0  0  0  0  0  0  0999 V2000
    1.0000   -2.2833   -1.9971 C   0  0  0  0  0  0  0  0  0  0  0  0
    1.3195   -2.1992   -0.5032 C   0  0  0  0  0  0  0  0  0  0  0  0
    1.4685   -0.7292   -0.0879 C   0  0  0  0  0  0  0  0  0  0  0  0
    0.1745    0.0061   -0.4516 C   0  0  0  0  0  0  0  0  0  0  0  0
   -1.0088   -0.7942    0.0194 C   0  0  0  0  0  0  0  0  0  0  0  0
   -0.9179   -2.0893    0.3340 C   0  0  0  0  0  0  0  0  0  0  0  0
    0.2310   -2.7814    0.2642 O   0  0  0  0  0  0  0  0  0  0  0  0
   -2.2648   -0.1513    0.1339 C   0  0  0  0  0  0  0  0  0  0  0  0
   -3.2077   -0.7415    0.6266 O   0  0  0  0  0  0  0  0  0  0  0  0
   -2.4162    1.1162   -0.3034 O   0  0  0  0  0  0  0  0  0  0  0  0
   -3.6774    1.7412   -0.0569 C   0  0  0  0  0  0  0  0  0  0  0  0
    0.1619    1.3794    0.2227 C   0  0  0  0  0  0  0  0  0  0  0  0
    1.2847    2.2200   -0.3286 C   0  0  0  0  0  0  0  0  0  0  0  0
    2.0605    1.7453   -1.1240 O   0  0  0  0  0  0  0  0  0  0  0  0
    1.4228    3.4962    0.0640 O   0  0  0  0  0  0  0  0  0  0  0  0
    1.7018   -0.6422    1.3984 C   0  0  0  0  0  0  0  0  0  0  0  0
    2.7139   -0.1380    1.8223 O   0  0  0  0  0  0  0  0  0  0  0  0
    1.8088   -1.8268   -2.5678 H   0  0  0  0  0  0  0  0  0  0  0  0
    0.8950   -3.3285   -2.2879 H   0  0  0  0  0  0  0  0  0  0  0  0
    0.0688   -1.7544   -2.1999 H   0  0  0  0  0  0  0  0  0  0  0  0
    2.2451   -2.7356   -0.2946 H   0  0  0  0  0  0  0  0  0  0  0  0
    2.3079   -0.2805   -0.6190 H   0  0  0  0  0  0  0  0  0  0  0  0
    0.1203    0.1323   -1.5329 H   0  0  0  0  0  0  0  0  0  0  0  0
   -1.8099   -2.6038    0.6597 H   0  0  0  0  0  0  0  0  0  0  0  0
   -3.6654    2.7545   -0.4584 H   0  0  0  0  0  0  0  0  0  0  0  0
   -4.4679    1.1678   -0.5412 H   0  0  0  0  0  0  0  0  0  0  0  0
   -3.8610    1.7779    1.0169 H   0  0  0  0  0  0  0  0  0  0  0  0
   -0.7906    1.8717    0.0266 H   0  0  0  0  0  0  0  0  0  0  0  0
    0.2934    1.2576    1.2978 H   0  0  0  0  0  0  0  0  0  0  0  0
    2.1580    3.9955   -0.3171 H   0  0  0  0  0  0  0  0  0  0  0  0
    0.9637   -1.0308    2.0845 H   0  0  0  0  0  0  0  0  0  0  0  0
  1  2  1  0  0  0  0
  2  3  1  0  0  0  0
  3  4  1  0  0  0  0
  4  5  1  0  0  0  0
  5  6  2  0  0  0  0
  6  7  1  0  0  0  0
  2  7  1  0  0  0  0
  5  8  1  0  0  0  0
  8  9  2  0  0  0  0
  8 10  1  0  0  0  0
 10 11  1  0  0  0  0
  4 12  1  0  0  0  0
 12 13  1  0  0  0  0
 13 14  2  0  0  0  0
 13 15  1  0  0  0  0
  3 16  1  0  0  0  0
 16 17  2  0  0  0  0
  1 18  1  0  0  0  0
  1 19  1  0  0  0  0
  1 20  1  0  0  0  0
  2 21  1  0  0  0  0
  3 22  1  0  0  0  0
  4 23  1  0  0  0  0
  6 24  1  0  0  0  0
 11 25  1  0  0  0  0
 11 26  1  0  0  0  0
 11 27  1  0  0  0  0
 12 28  1  0  0  0  0
 12 29  1  0  0  0  0
 15 30  1  0  0  0  0
 16 31  1  0  0  0  0
M  END
$$$$
