C23H22O5
APtclcactv06211806453D 0   0.00000     0.00000
 
 50 53  0  0  0  0  0  0  0  0999 V2000
   -1.3505   -3.9485   -0.5645 C   0  0  0  0  0  0  0  0  0  0  0  0
   -0.5180   -3.6996    0.6668 C   0  0  0  0  0  0  0  0  0  0  0  0
    0.4972   -2.8732    0.6150 C   0  0  0  0  0  0  0  0  0  0  0  0
    0.7521   -2.0702   -0.6344 C   0  0  0  0  0  0  0  0  0  0  0  0
    0.8435   -0.6079   -0.2818 C   0  0  0  0  0  0  0  0  0  0  0  0
    2.0659   -0.0550    0.0466 C   0  0  0  0  0  0  0  0  0  0  0  0
    2.1648    1.3091    0.3745 C   0  0  0  0  0  0  0  0  0  0  0  0
    1.0284    2.1122    0.3764 C   0  0  0  0  0  0  0  0  0  0  0  0
   -0.2084    1.5412    0.0506 C   0  0  0  0  0  0  0  0  0  0  0  0
   -0.3022    0.1799   -0.2941 C   0  0  0  0  0  0  0  0  0  0  0  0
   -1.4863   -0.3700   -0.6318 O   0  0  0  0  0  0  0  0  0  0  0  0
   -2.6593    0.2350   -0.3557 C   0  0  0  0  0  0  0  0  0  0  0  0
   -2.7106    1.5914   -0.0055 C   0  0  0  0  0  0  0  0  0  0  0  0
   -1.4404    2.3501    0.0616 C   0  0  0  0  0  0  0  0  0  0  0  0
   -1.4166    3.5655    0.1314 O   0  0  0  0  0  0  0  0  0  0  0  0
   -3.9313    2.2064    0.2693 C   0  0  0  0  0  0  0  0  0  0  0  0
   -5.0956    1.4726    0.2011 C   0  0  0  0  0  0  0  0  0  0  0  0
   -5.0539    0.1291   -0.1391 C   0  0  0  0  0  0  0  0  0  0  0  0
   -3.8504   -0.4915   -0.4166 C   0  0  0  0  0  0  0  0  0  0  0  0
   -3.8262   -1.8097   -0.7493 O   0  0  0  0  0  0  0  0  0  0  0  0
    1.1170    3.4284    0.6898 O   0  0  0  0  0  0  0  0  0  0  0  0
    3.4947    1.8578    0.7131 C   0  0  0  0  0  0  0  0  0  0  0  0
    4.5697    1.1457    0.3795 C   0  0  0  0  0  0  0  0  0  0  0  0
    4.4089   -0.1709   -0.3335 C   0  0  0  0  0  0  0  0  0  0  0  0
    3.1940   -0.8099    0.0596 O   0  0  0  0  0  0  0  0  0  0  0  0
    4.3849    0.0729   -1.8438 C   0  0  0  0  0  0  0  0  0  0  0  0
    5.5910   -1.0790    0.0113 C   0  0  0  0  0  0  0  0  0  0  0  0
   -0.8534   -4.4012    1.9577 C   0  0  0  0  0  0  0  0  0  0  0  0
   -0.7047   -4.2741   -1.3799 H   0  0  0  0  0  0  0  0  0  0  0  0
   -2.0881   -4.7229   -0.3539 H   0  0  0  0  0  0  0  0  0  0  0  0
   -1.8607   -3.0287   -0.8502 H   0  0  0  0  0  0  0  0  0  0  0  0
    1.1514   -2.7675    1.4678 H   0  0  0  0  0  0  0  0  0  0  0  0
    1.6884   -2.3935   -1.0894 H   0  0  0  0  0  0  0  0  0  0  0  0
   -0.0659   -2.2238   -1.3383 H   0  0  0  0  0  0  0  0  0  0  0  0
   -3.9641    3.2527    0.5348 H   0  0  0  0  0  0  0  0  0  0  0  0
   -6.0432    1.9452    0.4136 H   0  0  0  0  0  0  0  0  0  0  0  0
   -5.9714   -0.4386   -0.1874 H   0  0  0  0  0  0  0  0  0  0  0  0
   -3.9057   -1.9774   -1.6984 H   0  0  0  0  0  0  0  0  0  0  0  0
    1.2780    4.0037   -0.0706 H   0  0  0  0  0  0  0  0  0  0  0  0
    3.5920    2.8085    1.2162 H   0  0  0  0  0  0  0  0  0  0  0  0
    5.5565    1.5126    0.6200 H   0  0  0  0  0  0  0  0  0  0  0  0
    5.3192    0.5429   -2.1509 H   0  0  0  0  0  0  0  0  0  0  0  0
    4.2687   -0.8782   -2.3636 H   0  0  0  0  0  0  0  0  0  0  0  0
    3.5498    0.7275   -2.0929 H   0  0  0  0  0  0  0  0  0  0  0  0
    5.6178   -1.2475    1.0879 H   0  0  0  0  0  0  0  0  0  0  0  0
    5.4782   -2.0334   -0.5031 H   0  0  0  0  0  0  0  0  0  0  0  0
    6.5192   -0.6031   -0.3052 H   0  0  0  0  0  0  0  0  0  0  0  0
   -0.3150   -5.3476    2.0074 H   0  0  0  0  0  0  0  0  0  0  0  0
   -0.5619   -3.7727    2.7992 H   0  0  0  0  0  0  0  0  0  0  0  0
   -1.9260   -4.5907    2.0002 H   0  0  0  0  0  0  0  0  0  0  0  0
  1  2  1  0  0  0  0
  2  3  2  0  0  0  0
  3  4  1  0  0  0  0
  4  5  1  0  0  0  0
  5  6  2  0  0  0  0
  6  7  1  0  0  0  0
  7  8  2  0  0  0  0
  8  9  1  0  0  0  0
  9 10  2  0  0  0  0
  5 10  1  0  0  0  0
 10 11  1  0  0  0  0
 11 12  1  0  0  0  0
 12 13  2  0  0  0  0
 13 14  1  0  0  0  0
  9 14  1  0  0  0  0
 14 15  2  0  0  0  0
 13 16  1  0  0  0  0
 16 17  2  0  0  0  0
 17 18  1  0  0  0  0
 18 19  2  0  0  0  0
 12 19  1  0  0  0  0
 19 20  1  0  0  0  0
  8 21  1  0  0  0  0
  7 22  1  0  0  0  0
 22 23  2  0  0  0  0
 23 24  1  0  0  0  0
 24 25  1  0  0  0  0
  6 25  1  0  0  0  0
 24 26  1  0  0  0  0
 24 27  1  0  0  0  0
  2 28  1  0  0  0  0
  1 29  1  0  0  0  0
  1 30  1  0  0  0  0
  1 31  1  0  0  0  0
  3 32  1  0  0  0  0
  4 33  1  0  0  0  0
  4 34  1  0  0  0  0
 16 35  1  0  0  0  0
 17 36  1  0  0  0  0
 18 37  1  0  0  0  0
 20 38  1  0  0  0  0
 21 39  1  0  0  0  0
 22 40  1  0  0  0  0
 23 41  1  0  0  0  0
 26 42  1  0  0  0  0
 26 43  1  0  0  0  0
 26 44  1  0  0  0  0
 27 45  1  0  0  0  0
 27 46  1  0  0  0  0
 27 47  1  0  0  0  0
 28 48  1  0  0  0  0
 28 49  1  0  0  0  0
 28 50  1  0  0  0  0
M  END
$$$$
