C17H14O6
APtclcactv06211806443D 0   0.00000     0.00000
 
 37 39  0  0  0  0  0  0  0  0999 V2000
    3.2410    3.6422    0.1028 C   0  0  0  0  0  0  0  0  0  0  0  0
    3.8215    2.3408   -0.0038 O   0  0  0  0  0  0  0  0  0  0  0  0
    2.9666    1.2865   -0.0546 C   0  0  0  0  0  0  0  0  0  0  0  0
    3.4720   -0.0079   -0.1587 C   0  0  0  0  0  0  0  0  0  0  0  0
    2.6070   -1.0894   -0.2106 C   0  0  0  0  0  0  0  0  0  0  0  0
    1.2257   -0.8698   -0.1578 C   0  0  0  0  0  0  0  0  0  0  0  0
    0.7199    0.4378   -0.0527 C   0  0  0  0  0  0  0  0  0  0  0  0
    1.5995    1.5074    0.0033 C   0  0  0  0  0  0  0  0  0  0  0  0
   -0.6148    0.6383   -0.0033 O   0  0  0  0  0  0  0  0  0  0  0  0
   -1.4941   -0.3748   -0.0511 C   0  0  0  0  0  0  0  0  0  0  0  0
   -1.1069   -1.6750   -0.1524 C   0  0  0  0  0  0  0  0  0  0  0  0
    0.2711   -1.9901   -0.2105 C   0  0  0  0  0  0  0  0  0  0  0  0
    0.6539   -3.1455   -0.3012 O   0  0  0  0  0  0  0  0  0  0  0  0
   -2.9354   -0.0665    0.0091 C   0  0  0  0  0  0  0  0  0  0  0  0
   -3.4452    1.0380   -0.6791 C   0  0  0  0  0  0  0  0  0  0  0  0
   -4.7916    1.3219   -0.6205 C   0  0  0  0  0  0  0  0  0  0  0  0
   -5.6429    0.5122    0.1219 C   0  0  0  0  0  0  0  0  0  0  0  0
   -5.1402   -0.5870    0.8077 C   0  0  0  0  0  0  0  0  0  0  0  0
   -3.7960   -0.8815    0.7499 C   0  0  0  0  0  0  0  0  0  0  0  0
   -6.9693    0.7962    0.1776 O   0  0  0  0  0  0  0  0  0  0  0  0
    3.0958   -2.3526   -0.3125 O   0  0  0  0  0  0  0  0  0  0  0  0
    4.8174   -0.2103   -0.2099 O   0  0  0  0  0  0  0  0  0  0  0  0
    5.4935   -0.3952    1.0354 C   0  0  0  0  0  0  0  0  0  0  0  0
    4.0320    4.3915    0.1339 H   0  0  0  0  0  0  0  0  0  0  0  0
    2.6002    3.8260   -0.7597 H   0  0  0  0  0  0  0  0  0  0  0  0
    2.6479    3.7019    1.0153 H   0  0  0  0  0  0  0  0  0  0  0  0
    1.2190    2.5150    0.0844 H   0  0  0  0  0  0  0  0  0  0  0  0
   -1.8464   -2.4612   -0.1880 H   0  0  0  0  0  0  0  0  0  0  0  0
   -2.7842    1.6682   -1.2556 H   0  0  0  0  0  0  0  0  0  0  0  0
   -5.1864    2.1752   -1.1519 H   0  0  0  0  0  0  0  0  0  0  0  0
   -5.8053   -1.2136    1.3834 H   0  0  0  0  0  0  0  0  0  0  0  0
   -3.4062   -1.7360    1.2831 H   0  0  0  0  0  0  0  0  0  0  0  0
   -7.4918    0.3722   -0.5169 H   0  0  0  0  0  0  0  0  0  0  0  0
    3.2616   -2.7801    0.5389 H   0  0  0  0  0  0  0  0  0  0  0  0
    5.0851   -1.2683    1.5445 H   0  0  0  0  0  0  0  0  0  0  0  0
    6.5574   -0.5459    0.8524 H   0  0  0  0  0  0  0  0  0  0  0  0
    5.3537    0.4876    1.6593 H   0  0  0  0  0  0  0  0  0  0  0  0
  1  2  1  0  0  0  0
  2  3  1  0  0  0  0
  3  4  2  0  0  0  0
  4  5  1  0  0  0  0
  5  6  2  0  0  0  0
  6  7  1  0  0  0  0
  7  8  2  0  0  0  0
  3  8  1  0  0  0  0
  7  9  1  0  0  0  0
  9 10  1  0  0  0  0
 10 11  2  0  0  0  0
 11 12  1  0  0  0  0
  6 12  1  0  0  0  0
 12 13  2  0  0  0  0
 10 14  1  0  0  0  0
 14 15  2  0  0  0  0
 15 16  1  0  0  0  0
 16 17  2  0  0  0  0
 17 18  1  0  0  0  0
 18 19  2  0  0  0  0
 14 19  1  0  0  0  0
 17 20  1  0  0  0  0
  5 21  1  0  0  0  0
  4 22  1  0  0  0  0
 22 23  1  0  0  0  0
  1 24  1  0  0  0  0
  1 25  1  0  0  0  0
  1 26  1  0  0  0  0
  8 27  1  0  0  0  0
 11 28  1  0  0  0  0
 15 29  1  0  0  0  0
 16 30  1  0  0  0  0
 18 31  1  0  0  0  0
 19 32  1  0  0  0  0
 20 33  1  0  0  0  0
 21 34  1  0  0  0  0
 23 35  1  0  0  0  0
 23 36  1  0  0  0  0
 23 37  1  0  0  0  0
M  END
$$$$
