C17H14O5
APtclcactv06211806443D 0   0.00000     0.00000
 
 36 38  0  0  0  0  0  0  0  0999 V2000
    5.3259    1.2689    0.1214 C   0  0  0  0  0  0  0  0  0  0  0  0
    3.9677    1.7132    0.1249 O   0  0  0  0  0  0  0  0  0  0  0  0
    3.0051    0.7549    0.1001 C   0  0  0  0  0  0  0  0  0  0  0  0
    1.6663    1.1242    0.1022 C   0  0  0  0  0  0  0  0  0  0  0  0
    0.6774    0.1486    0.0769 C   0  0  0  0  0  0  0  0  0  0  0  0
    1.0463   -1.2074    0.0495 C   0  0  0  0  0  0  0  0  0  0  0  0
    2.3987   -1.5706    0.0481 C   0  0  0  0  0  0  0  0  0  0  0  0
    3.3694   -0.5866    0.0673 C   0  0  0  0  0  0  0  0  0  0  0  0
    2.7544   -2.8809    0.0220 O   0  0  0  0  0  0  0  0  0  0  0  0
   -0.0186   -2.2243    0.0230 C   0  0  0  0  0  0  0  0  0  0  0  0
    0.2430   -3.4159   -0.0010 O   0  0  0  0  0  0  0  0  0  0  0  0
   -1.3583   -1.7649    0.0270 C   0  0  0  0  0  0  0  0  0  0  0  0
   -1.6088   -0.4295    0.0545 C   0  0  0  0  0  0  0  0  0  0  0  0
   -0.6297    0.4883    0.0789 O   0  0  0  0  0  0  0  0  0  0  0  0
   -3.0125    0.0296    0.0582 C   0  0  0  0  0  0  0  0  0  0  0  0
   -3.3939    1.1137    0.8516 C   0  0  0  0  0  0  0  0  0  0  0  0
   -4.7065    1.5375    0.8498 C   0  0  0  0  0  0  0  0  0  0  0  0
   -5.6446    0.8909    0.0647 C   0  0  0  0  0  0  0  0  0  0  0  0
   -5.2738   -0.1843   -0.7235 C   0  0  0  0  0  0  0  0  0  0  0  0
   -3.9633   -0.6147   -0.7362 C   0  0  0  0  0  0  0  0  0  0  0  0
    1.3230    2.4416    0.1293 O   0  0  0  0  0  0  0  0  0  0  0  0
    1.1652    3.0971   -1.1307 C   0  0  0  0  0  0  0  0  0  0  0  0
    5.5075    0.6486    0.9991 H   0  0  0  0  0  0  0  0  0  0  0  0
    5.5153    0.6867   -0.7805 H   0  0  0  0  0  0  0  0  0  0  0  0
    5.9907    2.1323    0.1428 H   0  0  0  0  0  0  0  0  0  0  0  0
    4.4140   -0.8608    0.0663 H   0  0  0  0  0  0  0  0  0  0  0  0
    2.8615   -3.2417   -0.8687 H   0  0  0  0  0  0  0  0  0  0  0  0
   -2.1752   -2.4711    0.0080 H   0  0  0  0  0  0  0  0  0  0  0  0
   -2.6628    1.6189    1.4654 H   0  0  0  0  0  0  0  0  0  0  0  0
   -5.0028    2.3758    1.4630 H   0  0  0  0  0  0  0  0  0  0  0  0
   -6.6711    1.2266    0.0674 H   0  0  0  0  0  0  0  0  0  0  0  0
   -6.0111   -0.6847   -1.3337 H   0  0  0  0  0  0  0  0  0  0  0  0
   -3.6752   -1.4540   -1.3518 H   0  0  0  0  0  0  0  0  0  0  0  0
    0.3803    2.6016   -1.7021 H   0  0  0  0  0  0  0  0  0  0  0  0
    0.8922    4.1394   -0.9663 H   0  0  0  0  0  0  0  0  0  0  0  0
    2.1028    3.0500   -1.6846 H   0  0  0  0  0  0  0  0  0  0  0  0
  1  2  1  0  0  0  0
  2  3  1  0  0  0  0
  3  4  2  0  0  0  0
  4  5  1  0  0  0  0
  5  6  2  0  0  0  0
  6  7  1  0  0  0  0
  7  8  2  0  0  0  0
  3  8  1  0  0  0  0
  7  9  1  0  0  0  0
  6 10  1  0  0  0  0
 10 11  2  0  0  0  0
 10 12  1  0  0  0  0
 12 13  2  0  0  0  0
 13 14  1  0  0  0  0
  5 14  1  0  0  0  0
 13 15  1  0  0  0  0
 15 16  2  0  0  0  0
 16 17  1  0  0  0  0
 17 18  2  0  0  0  0
 18 19  1  0  0  0  0
 19 20  2  0  0  0  0
 15 20  1  0  0  0  0
  4 21  1  0  0  0  0
 21 22  1  0  0  0  0
  1 23  1  0  0  0  0
  1 24  1  0  0  0  0
  1 25  1  0  0  0  0
  8 26  1  0  0  0  0
  9 27  1  0  0  0  0
 12 28  1  0  0  0  0
 16 29  1  0  0  0  0
 17 30  1  0  0  0  0
 18 31  1  0  0  0  0
 19 32  1  0  0  0  0
 20 33  1  0  0  0  0
 22 34  1  0  0  0  0
 22 35  1  0  0  0  0
 22 36  1  0  0  0  0
M  END
$$$$
