C10H10O2
APtclcactv06211806453D 0   0.00000     0.00000
 
 22 22  0  0  0  0  0  0  0  0999 V2000
    3.4369    0.3489    1.0090 C   0  0  0  0  0  0  0  0  0  0  0  0
    2.5346   -0.2248   -0.0529 C   0  0  0  0  0  0  0  0  0  0  0  0
    3.0346   -1.0227   -0.9885 C   0  0  0  0  0  0  0  0  0  0  0  0
    1.0949    0.1004   -0.0527 C   0  0  0  0  0  0  0  0  0  0  0  0
    0.2336   -0.9854    0.0684 C   0  0  0  0  0  0  0  0  0  0  0  0
   -1.1691   -0.9787    0.0984 C   0  0  0  0  0  0  0  0  0  0  0  0
   -1.7106   -2.0703    0.2135 O   0  0  0  0  0  0  0  0  0  0  0  0
   -2.0622    0.1768    0.0090 C   0  0  0  0  0  0  0  0  0  0  0  0
   -1.7195    1.5081   -0.1243 C   0  0  0  0  0  0  0  0  0  0  0  0
   -0.4491    2.0758   -0.2060 C   0  0  0  0  0  0  0  0  0  0  0  0
    0.7812    1.4645   -0.1692 C   0  0  0  0  0  0  0  0  0  0  0  0
   -3.3891   -0.0924    0.0634 O   0  0  0  0  0  0  0  0  0  0  0  0
    3.8386    1.3030    0.6678 H   0  0  0  0  0  0  0  0  0  0  0  0
    2.8676    0.5015    1.9259 H   0  0  0  0  0  0  0  0  0  0  0  0
    4.2571   -0.3427    1.2014 H   0  0  0  0  0  0  0  0  0  0  0  0
    4.0880   -1.2606   -0.9886 H   0  0  0  0  0  0  0  0  0  0  0  0
    2.3880   -1.4338   -1.7495 H   0  0  0  0  0  0  0  0  0  0  0  0
    0.7033   -1.9546    0.1490 H   0  0  0  0  0  0  0  0  0  0  0  0
   -2.5460    2.2017   -0.1719 H   0  0  0  0  0  0  0  0  0  0  0  0
   -0.4286    3.1507   -0.3084 H   0  0  0  0  0  0  0  0  0  0  0  0
    1.6293    2.1280   -0.2522 H   0  0  0  0  0  0  0  0  0  0  0  0
   -3.9523    0.6913    0.0018 H   0  0  0  0  0  0  0  0  0  0  0  0
  1  2  1  0  0  0  0
  2  3  2  0  0  0  0
  2  4  1  0  0  0  0
  4  5  2  0  0  0  0
  5  6  1  0  0  0  0
  6  7  2  0  0  0  0
  6  8  1  0  0  0  0
  8  9  2  0  0  0  0
  9 10  1  0  0  0  0
 10 11  2  0  0  0  0
  4 11  1  0  0  0  0
  8 12  1  0  0  0  0
  1 13  1  0  0  0  0
  1 14  1  0  0  0  0
  1 15  1  0  0  0  0
  3 16  1  0  0  0  0
  3 17  1  0  0  0  0
  5 18  1  0  0  0  0
  9 19  1  0  0  0  0
 10 20  1  0  0  0  0
 11 21  1  0  0  0  0
 12 22  1  0  0  0  0
M  END
$$$$
