C6H6O3
APtclcactv06211806103D 0   0.00000     0.00000
 
 15 15  0  0  0  0  0  0  0  0999 V2000
    2.4374    1.1501    0.0104 C   0  0  0  0  0  0  0  0  0  0  0  0
    1.4636    0.0000   -0.0045 C   0  0  0  0  0  0  0  0  0  0  0  0
    1.8743   -1.1439   -0.0161 O   0  0  0  0  0  0  0  0  0  0  0  0
    0.0815    0.2500   -0.0049 C   0  0  0  0  0  0  0  0  0  0  0  0
   -0.9258   -0.7067   -0.0177 C   0  0  0  0  0  0  0  0  0  0  0  0
   -2.1427    0.0006   -0.0123 C   0  0  0  0  0  0  0  0  0  0  0  0
   -1.8414    1.3163    0.0032 C   0  0  0  0  0  0  0  0  0  0  0  0
   -0.5109    1.4662    0.0130 O   0  0  0  0  0  0  0  0  0  0  0  0
   -0.7680   -2.0531   -0.0330 O   0  0  0  0  0  0  0  0  0  0  0  0
    2.6745    1.4386   -1.0136 H   0  0  0  0  0  0  0  0  0  0  0  0
    1.9917    1.9967    0.5325 H   0  0  0  0  0  0  0  0  0  0  0  0
    3.3502    0.8466    0.5231 H   0  0  0  0  0  0  0  0  0  0  0  0
   -3.1334   -0.4295   -0.0194 H   0  0  0  0  0  0  0  0  0  0  0  0
   -2.5608    2.1219    0.0108 H   0  0  0  0  0  0  0  0  0  0  0  0
   -0.7238   -2.4539    0.8459 H   0  0  0  0  0  0  0  0  0  0  0  0
  1  2  1  0  0  0  0
  2  3  2  0  0  0  0
  2  4  1  0  0  0  0
  4  5  2  0  0  0  0
  5  6  1  0  0  0  0
  6  7  2  0  0  0  0
  7  8  1  0  0  0  0
  4  8  1  0  0  0  0
  5  9  1  0  0  0  0
  1 10  1  0  0  0  0
  1 11  1  0  0  0  0
  1 12  1  0  0  0  0
  6 13  1  0  0  0  0
  7 14  1  0  0  0  0
  9 15  1  0  0  0  0
M  END
$$$$
