C9H20O
APtclcactv06211806103D 0   0.00000     0.00000
 
 30 29  0  0  0  0  0  0  0  0999 V2000
   -0.4756    1.7150   -0.1268 C   0  0  0  0  0  0  0  0  0  0  0  0
   -0.4195    0.1942    0.0315 C   0  0  0  0  0  0  0  0  0  0  0  0
   -1.7255   -0.4200   -0.4763 C   0  0  0  0  0  0  0  0  0  0  0  0
   -2.8837    0.0371    0.4129 C   0  0  0  0  0  0  0  0  0  0  0  0
   -4.1035   -0.5366   -0.0615 O   0  0  0  0  0  0  0  0  0  0  0  0
    0.7538   -0.3600   -0.7791 C   0  0  0  0  0  0  0  0  0  0  0  0
    2.0467   -0.2061    0.0244 C   0  0  0  0  0  0  0  0  0  0  0  0
    1.9793   -1.0879    1.2729 C   0  0  0  0  0  0  0  0  0  0  0  0
    3.2367   -0.6326   -0.8376 C   0  0  0  0  0  0  0  0  0  0  0  0
    2.2170    1.2561    0.4413 C   0  0  0  0  0  0  0  0  0  0  0  0
   -0.4669    1.9705   -1.1864 H   0  0  0  0  0  0  0  0  0  0  0  0
   -1.3892    2.0944    0.3310 H   0  0  0  0  0  0  0  0  0  0  0  0
    0.3892    2.1633    0.3622 H   0  0  0  0  0  0  0  0  0  0  0  0
   -0.2849   -0.0568    1.0837 H   0  0  0  0  0  0  0  0  0  0  0  0
   -1.9049   -0.0961   -1.5015 H   0  0  0  0  0  0  0  0  0  0  0  0
   -1.6516   -1.5071   -0.4464 H   0  0  0  0  0  0  0  0  0  0  0  0
   -2.7044   -0.2869    1.4381 H   0  0  0  0  0  0  0  0  0  0  0  0
   -2.9577    1.1241    0.3830 H   0  0  0  0  0  0  0  0  0  0  0  0
   -4.8819   -0.2892    0.4562 H   0  0  0  0  0  0  0  0  0  0  0  0
    0.5819   -1.4150   -0.9924 H   0  0  0  0  0  0  0  0  0  0  0  0
    0.8404    0.1906   -1.7158 H   0  0  0  0  0  0  0  0  0  0  0  0
    1.8579   -2.1296    0.9758 H   0  0  0  0  0  0  0  0  0  0  0  0
    2.9004   -0.9782    1.8453 H   0  0  0  0  0  0  0  0  0  0  0  0
    1.1315   -0.7840    1.8870 H   0  0  0  0  0  0  0  0  0  0  0  0
    3.2847   -0.0044   -1.7270 H   0  0  0  0  0  0  0  0  0  0  0  0
    4.1578   -0.5229   -0.2652 H   0  0  0  0  0  0  0  0  0  0  0  0
    3.1153   -1.6743   -1.1346 H   0  0  0  0  0  0  0  0  0  0  0  0
    1.4912    1.4996    1.2172 H   0  0  0  0  0  0  0  0  0  0  0  0
    3.2253    1.4091    0.8261 H   0  0  0  0  0  0  0  0  0  0  0  0
    2.0560    1.9013   -0.4223 H   0  0  0  0  0  0  0  0  0  0  0  0
  1  2  1  0  0  0  0
  2  3  1  0  0  0  0
  3  4  1  0  0  0  0
  4  5  1  0  0  0  0
  2  6  1  0  0  0  0
  6  7  1  0  0  0  0
  7  8  1  0  0  0  0
  7  9  1  0  0  0  0
  7 10  1  0  0  0  0
  1 11  1  0  0  0  0
  1 12  1  0  0  0  0
  1 13  1  0  0  0  0
  2 14  1  0  0  0  0
  3 15  1  0  0  0  0
  3 16  1  0  0  0  0
  4 17  1  0  0  0  0
  4 18  1  0  0  0  0
  5 19  1  0  0  0  0
  6 20  1  0  0  0  0
  6 21  1  0  0  0  0
  8 22  1  0  0  0  0
  8 23  1  0  0  0  0
  8 24  1  0  0  0  0
  9 25  1  0  0  0  0
  9 26  1  0  0  0  0
  9 27  1  0  0  0  0
 10 28  1  0  0  0  0
 10 29  1  0  0  0  0
 10 30  1  0  0  0  0
M  END
$$$$
