C20H20NO4
APtclcactv06211806453D 0   0.00000     0.00000
 
 45 49  0  0  0  0  0  0  0  0999 V2000
   -6.2491    2.1289    0.5599 C   0  0  0  0  0  0  0  0  0  0  0  0
   -5.5817    0.8654    0.5432 O   0  0  0  0  0  0  0  0  0  0  0  0
   -4.2659    0.8667    0.1996 C   0  0  0  0  0  0  0  0  0  0  0  0
   -3.5538   -0.3272    0.1627 C   0  0  0  0  0  0  0  0  0  0  0  0
   -2.2108   -0.3243   -0.1889 C   0  0  0  0  0  0  0  0  0  0  0  0
   -1.5854    0.8659   -0.5002 C   0  0  0  0  0  0  0  0  0  0  0  0
   -0.1326    0.8748   -0.8791 C   0  0  0  0  0  0  0  0  0  0  0  0
    0.5853   -0.3229   -0.3197 C   0  0  0  0  0  0  0  0  0  0  0  0
   -0.0157   -1.4225   -0.0239 N   0  3  0  0  0  0  0  0  0  0  0  0
   -1.4516   -1.6163   -0.2291 C   0  0  0  0  0  0  0  0  0  0  0  0
    0.7286   -2.5495    0.5599 C   0  0  0  0  0  0  0  0  0  0  0  0
    2.0984   -2.6995   -0.0959 C   0  0  0  0  0  0  0  0  0  0  0  0
    2.8148   -1.3735   -0.0248 C   0  0  0  0  0  0  0  0  0  0  0  0
    4.1867   -1.3310    0.1350 C   0  0  0  0  0  0  0  0  0  0  0  0
    4.7812   -0.0740    0.1995 C   0  0  0  0  0  0  0  0  0  0  0  0
    4.0183    1.1031    0.1071 C   0  0  0  0  0  0  0  0  0  0  0  0
    2.6432    1.0598   -0.0546 C   0  0  0  0  0  0  0  0  0  0  0  0
    2.0513   -0.2091   -0.1234 C   0  0  0  0  0  0  0  0  0  0  0  0
    4.8479    2.1674    0.1999 O   0  0  0  0  0  0  0  0  0  0  0  0
    6.1711    1.6471   -0.0439 C   0  0  0  0  0  0  0  0  0  0  0  0
    6.0816    0.2619    0.3499 O   0  0  0  0  0  0  0  0  0  0  0  0
   -2.2943    2.0544   -0.4639 C   0  0  0  0  0  0  0  0  0  0  0  0
   -3.6326    2.0570   -0.1201 C   0  0  0  0  0  0  0  0  0  0  0  0
   -4.1732   -1.4979    0.4714 O   0  0  0  0  0  0  0  0  0  0  0  0
   -4.7888   -2.2094   -0.6040 C   0  0  0  0  0  0  0  0  0  0  0  0
   -5.7599    2.7888    1.2764 H   0  0  0  0  0  0  0  0  0  0  0  0
   -6.2062    2.5755   -0.4335 H   0  0  0  0  0  0  0  0  0  0  0  0
   -7.2902    1.9861    0.8494 H   0  0  0  0  0  0  0  0  0  0  0  0
   -0.0471    0.8669   -1.9657 H   0  0  0  0  0  0  0  0  0  0  0  0
    0.3315    1.7820   -0.4922 H   0  0  0  0  0  0  0  0  0  0  0  0
   -1.8343   -2.2750    0.5505 H   0  0  0  0  0  0  0  0  0  0  0  0
   -1.6093   -2.0898   -1.1982 H   0  0  0  0  0  0  0  0  0  0  0  0
    0.8602   -2.3765    1.6280 H   0  0  0  0  0  0  0  0  0  0  0  0
    0.1597   -3.4678    0.4144 H   0  0  0  0  0  0  0  0  0  0  0  0
    2.6767   -3.4566    0.4339 H   0  0  0  0  0  0  0  0  0  0  0  0
    1.9748   -2.9931   -1.1383 H   0  0  0  0  0  0  0  0  0  0  0  0
    4.7730   -2.2351    0.2073 H   0  0  0  0  0  0  0  0  0  0  0  0
    2.0540    1.9623   -0.1240 H   0  0  0  0  0  0  0  0  0  0  0  0
    6.4246    1.7280   -1.1009 H   0  0  0  0  0  0  0  0  0  0  0  0
    6.9061    2.1711    0.5672 H   0  0  0  0  0  0  0  0  0  0  0  0
   -1.8004    2.9829   -0.7094 H   0  0  0  0  0  0  0  0  0  0  0  0
   -4.1821    2.9863   -0.0928 H   0  0  0  0  0  0  0  0  0  0  0  0
   -5.5556   -1.5843   -1.0615 H   0  0  0  0  0  0  0  0  0  0  0  0
   -4.0354   -2.4644   -1.3494 H   0  0  0  0  0  0  0  0  0  0  0  0
   -5.2450   -3.1225   -0.2215 H   0  0  0  0  0  0  0  0  0  0  0  0
  1  2  1  0  0  0  0
  2  3  1  0  0  0  0
  3  4  2  0  0  0  0
  4  5  1  0  0  0  0
  5  6  2  0  0  0  0
  6  7  1  0  0  0  0
  7  8  1  0  0  0  0
  8  9  2  0  0  0  0
  9 10  1  0  0  0  0
  5 10  1  0  0  0  0
  9 11  1  0  0  0  0
 11 12  1  0  0  0  0
 12 13  1  0  0  0  0
 13 14  2  0  0  0  0
 14 15  1  0  0  0  0
 15 16  2  0  0  0  0
 16 17  1  0  0  0  0
 17 18  2  0  0  0  0
 13 18  1  0  0  0  0
  8 18  1  0  0  0  0
 16 19  1  0  0  0  0
 19 20  1  0  0  0  0
 20 21  1  0  0  0  0
 15 21  1  0  0  0  0
  6 22  1  0  0  0  0
 22 23  2  0  0  0  0
  3 23  1  0  0  0  0
  4 24  1  0  0  0  0
 24 25  1  0  0  0  0
  1 26  1  0  0  0  0
  1 27  1  0  0  0  0
  1 28  1  0  0  0  0
  7 29  1  0  0  0  0
  7 30  1  0  0  0  0
 10 31  1  0  0  0  0
 10 32  1  0  0  0  0
 11 33  1  0  0  0  0
 11 34  1  0  0  0  0
 12 35  1  0  0  0  0
 12 36  1  0  0  0  0
 14 37  1  0  0  0  0
 17 38  1  0  0  0  0
 20 39  1  0  0  0  0
 20 40  1  0  0  0  0
 22 41  1  0  0  0  0
 23 42  1  0  0  0  0
 25 43  1  0  0  0  0
 25 44  1  0  0  0  0
 25 45  1  0  0  0  0
M  CHG  1   9   1
M  END
$$$$
