C17H12O5
APtclcactv06211806453D 0   0.00000     0.00000
 
 34 37  0  0  0  0  0  0  0  0999 V2000
    3.0506    2.6620    1.1001 C   0  0  0  0  0  0  0  0  0  0  0  0
    2.7879    2.0193   -0.1488 O   0  0  0  0  0  0  0  0  0  0  0  0
    2.2715    0.7640   -0.0997 C   0  0  0  0  0  0  0  0  0  0  0  0
    0.8852    0.5728   -0.0758 C   0  0  0  0  0  0  0  0  0  0  0  0
    0.3508   -0.7269   -0.0237 C   0  0  0  0  0  0  0  0  0  0  0  0
    1.2070   -1.8159    0.0033 C   0  0  0  0  0  0  0  0  0  0  0  0
    2.5804   -1.6245   -0.0208 C   0  0  0  0  0  0  0  0  0  0  0  0
    3.1133   -0.3363   -0.0787 C   0  0  0  0  0  0  0  0  0  0  0  0
    4.4770   -0.4284   -0.0917 O   0  0  0  0  0  0  0  0  0  0  0  0
    4.7652   -1.7917   -0.4542 C   0  0  0  0  0  0  0  0  0  0  0  0
    3.6103   -2.5195   -0.0019 O   0  0  0  0  0  0  0  0  0  0  0  0
   -0.9883   -0.9001   -0.0012 O   0  0  0  0  0  0  0  0  0  0  0  0
   -1.8455    0.1322   -0.0279 C   0  0  0  0  0  0  0  0  0  0  0  0
   -1.4311    1.4255   -0.0785 C   0  0  0  0  0  0  0  0  0  0  0  0
   -0.0449    1.7140   -0.1045 C   0  0  0  0  0  0  0  0  0  0  0  0
    0.3629    2.8634   -0.1486 O   0  0  0  0  0  0  0  0  0  0  0  0
   -3.2953   -0.1481   -0.0019 C   0  0  0  0  0  0  0  0  0  0  0  0
   -3.7991   -1.1616    0.8162 C   0  0  0  0  0  0  0  0  0  0  0  0
   -5.1544   -1.4177    0.8360 C   0  0  0  0  0  0  0  0  0  0  0  0
   -6.0140   -0.6734    0.0474 C   0  0  0  0  0  0  0  0  0  0  0  0
   -5.5216    0.3323   -0.7655 C   0  0  0  0  0  0  0  0  0  0  0  0
   -4.1692    0.6030   -0.7908 C   0  0  0  0  0  0  0  0  0  0  0  0
    3.4597    3.6559    0.9183 H   0  0  0  0  0  0  0  0  0  0  0  0
    2.1232    2.7488    1.6662 H   0  0  0  0  0  0  0  0  0  0  0  0
    3.7693    2.0717    1.6685 H   0  0  0  0  0  0  0  0  0  0  0  0
    0.8036   -2.8170    0.0437 H   0  0  0  0  0  0  0  0  0  0  0  0
    4.8737   -1.8859   -1.5347 H   0  0  0  0  0  0  0  0  0  0  0  0
    5.6640   -2.1411    0.0539 H   0  0  0  0  0  0  0  0  0  0  0  0
   -2.1539    2.2277   -0.0992 H   0  0  0  0  0  0  0  0  0  0  0  0
   -3.1292   -1.7437    1.4316 H   0  0  0  0  0  0  0  0  0  0  0  0
   -5.5454   -2.2012    1.4682 H   0  0  0  0  0  0  0  0  0  0  0  0
   -7.0741   -0.8787    0.0663 H   0  0  0  0  0  0  0  0  0  0  0  0
   -6.1981    0.9093   -1.3784 H   0  0  0  0  0  0  0  0  0  0  0  0
   -3.7862    1.3882   -1.4257 H   0  0  0  0  0  0  0  0  0  0  0  0
  1  2  1  0  0  0  0
  2  3  1  0  0  0  0
  3  4  2  0  0  0  0
  4  5  1  0  0  0  0
  5  6  2  0  0  0  0
  6  7  1  0  0  0  0
  7  8  2  0  0  0  0
  3  8  1  0  0  0  0
  8  9  1  0  0  0  0
  9 10  1  0  0  0  0
 10 11  1  0  0  0  0
  7 11  1  0  0  0  0
  5 12  1  0  0  0  0
 12 13  1  0  0  0  0
 13 14  2  0  0  0  0
 14 15  1  0  0  0  0
  4 15  1  0  0  0  0
 15 16  2  0  0  0  0
 13 17  1  0  0  0  0
 17 18  2  0  0  0  0
 18 19  1  0  0  0  0
 19 20  2  0  0  0  0
 20 21  1  0  0  0  0
 21 22  2  0  0  0  0
 17 22  1  0  0  0  0
  1 23  1  0  0  0  0
  1 24  1  0  0  0  0
  1 25  1  0  0  0  0
  6 26  1  0  0  0  0
 10 27  1  0  0  0  0
 10 28  1  0  0  0  0
 14 29  1  0  0  0  0
 18 30  1  0  0  0  0
 19 31  1  0  0  0  0
 20 32  1  0  0  0  0
 21 33  1  0  0  0  0
 22 34  1  0  0  0  0
M  END
$$$$
