C7H6O4
APtclcactv06211802123D 0   0.00000     0.00000
 
 17 17  0  0  0  0  0  0  0  0999 V2000
    1.0481   -2.1126    0.0100 C   0  0  0  0  0  0  0  0  0  0  0  0
   -0.2633   -1.6918    0.0118 C   0  0  0  0  0  0  0  0  0  0  0  0
   -0.5591   -0.3249   -0.0041 C   0  0  0  0  0  0  0  0  0  0  0  0
    0.4838    0.6095   -0.0217 C   0  0  0  0  0  0  0  0  0  0  0  0
    1.8037    0.1682   -0.0233 C   0  0  0  0  0  0  0  0  0  0  0  0
    2.0800   -1.1881   -0.0074 C   0  0  0  0  0  0  0  0  0  0  0  0
    2.8221    1.0695   -0.0408 O   0  0  0  0  0  0  0  0  0  0  0  0
    0.2087    1.9385   -0.0377 O   0  0  0  0  0  0  0  0  0  0  0  0
   -1.9613    0.1297   -0.0027 C   0  0  0  0  0  0  0  0  0  0  0  0
   -2.2147    1.3180   -0.0166 O   0  0  0  0  0  0  0  0  0  0  0  0
   -2.9621   -0.7725    0.0138 O   0  0  0  0  0  0  0  0  0  0  0  0
    1.2734   -3.1687    0.0269 H   0  0  0  0  0  0  0  0  0  0  0  0
   -1.0632   -2.4173    0.0251 H   0  0  0  0  0  0  0  0  0  0  0  0
    3.1053   -1.5275   -0.0087 H   0  0  0  0  0  0  0  0  0  0  0  0
    3.1215    1.3418    0.8374 H   0  0  0  0  0  0  0  0  0  0  0  0
    0.1336    2.3352    0.8410 H   0  0  0  0  0  0  0  0  0  0  0  0
   -3.8651   -0.4265    0.0140 H   0  0  0  0  0  0  0  0  0  0  0  0
  1  2  2  0  0  0  0
  2  3  1  0  0  0  0
  3  4  2  0  0  0  0
  4  5  1  0  0  0  0
  5  6  2  0  0  0  0
  1  6  1  0  0  0  0
  5  7  1  0  0  0  0
  4  8  1  0  0  0  0
  3  9  1  0  0  0  0
  9 10  2  0  0  0  0
  9 11  1  0  0  0  0
  1 12  1  0  0  0  0
  2 13  1  0  0  0  0
  6 14  1  0  0  0  0
  7 15  1  0  0  0  0
  8 16  1  0  0  0  0
 11 17  1  0  0  0  0
M  END
$$$$
