C21H22NO4
APtclcactv06211806103D 0   0.00000     0.00000
 
 48 51  0  0  0  0  0  0  0  0999 V2000
    6.6381    1.8036    0.1732 C   0  0  0  0  0  0  0  0  0  0  0  0
    5.9048    0.5918   -0.0158 O   0  0  0  0  0  0  0  0  0  0  0  0
    4.5477    0.6835   -0.0073 C   0  0  0  0  0  0  0  0  0  0  0  0
    3.7856   -0.4555   -0.1853 C   0  0  0  0  0  0  0  0  0  0  0  0
    2.3823   -0.3542   -0.1769 C   0  0  0  0  0  0  0  0  0  0  0  0
    1.5573   -1.4702   -0.3682 C   0  0  0  0  0  0  0  0  0  0  0  0
    0.2461   -1.3508   -0.3636 N   0  3  0  0  0  0  0  0  0  0  0  0
   -0.3522   -0.1765   -0.1362 C   0  0  0  0  0  0  0  0  0  0  0  0
    0.3777    0.9854    0.0475 C   0  0  0  0  0  0  0  0  0  0  0  0
    1.7794    0.9164    0.0263 C   0  0  0  0  0  0  0  0  0  0  0  0
    2.5853    2.0507    0.1992 C   0  0  0  0  0  0  0  0  0  0  0  0
    3.9420    1.9257    0.1867 C   0  0  0  0  0  0  0  0  0  0  0  0
   -1.8327   -0.1115   -0.0486 C   0  0  0  0  0  0  0  0  0  0  0  0
   -2.4994    1.1080   -0.0971 C   0  0  0  0  0  0  0  0  0  0  0  0
   -3.8812    1.1372   -0.0196 C   0  0  0  0  0  0  0  0  0  0  0  0
   -4.5966   -0.0502    0.1152 C   0  0  0  0  0  0  0  0  0  0  0  0
   -3.9277   -1.2643    0.1832 C   0  0  0  0  0  0  0  0  0  0  0  0
   -2.5523   -1.2960    0.1114 C   0  0  0  0  0  0  0  0  0  0  0  0
   -1.8023   -2.5978    0.2207 C   0  0  0  0  0  0  0  0  0  0  0  0
   -0.5528   -2.5470   -0.6539 C   0  0  0  0  0  0  0  0  0  0  0  0
   -5.9542   -0.0197    0.1808 O   0  0  0  0  0  0  0  0  0  0  0  0
   -6.6253   -1.2737    0.3190 C   0  0  0  0  0  0  0  0  0  0  0  0
   -4.5403    2.3255   -0.0748 O   0  0  0  0  0  0  0  0  0  0  0  0
   -3.7434    3.5035   -0.2131 C   0  0  0  0  0  0  0  0  0  0  0  0
    4.3856   -1.6612   -0.3670 O   0  0  0  0  0  0  0  0  0  0  0  0
    4.6660   -2.4294    0.8048 C   0  0  0  0  0  0  0  0  0  0  0  0
    7.7066    1.5900    0.1449 H   0  0  0  0  0  0  0  0  0  0  0  0
    6.3872    2.5077   -0.6202 H   0  0  0  0  0  0  0  0  0  0  0  0
    6.3799    2.2377    1.1392 H   0  0  0  0  0  0  0  0  0  0  0  0
    2.0030   -2.4418   -0.5220 H   0  0  0  0  0  0  0  0  0  0  0  0
   -0.1231    1.9293    0.2047 H   0  0  0  0  0  0  0  0  0  0  0  0
    2.1320    3.0200    0.3455 H   0  0  0  0  0  0  0  0  0  0  0  0
    4.5582    2.8025    0.3208 H   0  0  0  0  0  0  0  0  0  0  0  0
   -1.9418    2.0278   -0.1943 H   0  0  0  0  0  0  0  0  0  0  0  0
   -4.4848   -2.1831    0.2922 H   0  0  0  0  0  0  0  0  0  0  0  0
   -1.5120   -2.7630    1.2583 H   0  0  0  0  0  0  0  0  0  0  0  0
   -2.4437   -3.4147   -0.1100 H   0  0  0  0  0  0  0  0  0  0  0  0
   -0.8505   -2.5332   -1.7024 H   0  0  0  0  0  0  0  0  0  0  0  0
    0.0515   -3.4346   -0.4663 H   0  0  0  0  0  0  0  0  0  0  0  0
   -6.3876   -1.9090   -0.5342 H   0  0  0  0  0  0  0  0  0  0  0  0
   -6.2986   -1.7614    1.2374 H   0  0  0  0  0  0  0  0  0  0  0  0
   -7.7018   -1.1072    0.3592 H   0  0  0  0  0  0  0  0  0  0  0  0
   -3.0642    3.5845    0.6355 H   0  0  0  0  0  0  0  0  0  0  0  0
   -3.1664    3.4455   -1.1361 H   0  0  0  0  0  0  0  0  0  0  0  0
   -4.3918    4.3792   -0.2444 H   0  0  0  0  0  0  0  0  0  0  0  0
    3.7356   -2.6417    1.3314 H   0  0  0  0  0  0  0  0  0  0  0  0
    5.1438   -3.3666    0.5192 H   0  0  0  0  0  0  0  0  0  0  0  0
    5.3326   -1.8660    1.4577 H   0  0  0  0  0  0  0  0  0  0  0  0
  1  2  1  0  0  0  0
  2  3  1  0  0  0  0
  3  4  2  0  0  0  0
  4  5  1  0  0  0  0
  5  6  2  0  0  0  0
  6  7  1  0  0  0  0
  7  8  2  0  0  0  0
  8  9  1  0  0  0  0
  9 10  2  0  0  0  0
  5 10  1  0  0  0  0
 10 11  1  0  0  0  0
 11 12  2  0  0  0  0
  3 12  1  0  0  0  0
  8 13  1  0  0  0  0
 13 14  2  0  0  0  0
 14 15  1  0  0  0  0
 15 16  2  0  0  0  0
 16 17  1  0  0  0  0
 17 18  2  0  0  0  0
 13 18  1  0  0  0  0
 18 19  1  0  0  0  0
 19 20  1  0  0  0  0
  7 20  1  0  0  0  0
 16 21  1  0  0  0  0
 21 22  1  0  0  0  0
 15 23  1  0  0  0  0
 23 24  1  0  0  0  0
  4 25  1  0  0  0  0
 25 26  1  0  0  0  0
  1 27  1  0  0  0  0
  1 28  1  0  0  0  0
  1 29  1  0  0  0  0
  6 30  1  0  0  0  0
  9 31  1  0  0  0  0
 11 32  1  0  0  0  0
 12 33  1  0  0  0  0
 14 34  1  0  0  0  0
 17 35  1  0  0  0  0
 19 36  1  0  0  0  0
 19 37  1  0  0  0  0
 20 38  1  0  0  0  0
 20 39  1  0  0  0  0
 22 40  1  0  0  0  0
 22 41  1  0  0  0  0
 22 42  1  0  0  0  0
 24 43  1  0  0  0  0
 24 44  1  0  0  0  0
 24 45  1  0  0  0  0
 26 46  1  0  0  0  0
 26 47  1  0  0  0  0
 26 48  1  0  0  0  0
M  CHG  1   7   1
M  END
$$$$
