C6H8O3
APtclcactv06211806113D 0   0.00000     0.00000
 
 17 17  0  0  0  0  0  0  0  0999 V2000
    2.2116   -1.1019   -0.6697 C   0  0  0  0  0  0  0  0  0  0  0  0
    1.2116   -0.6851    0.4106 C   0  0  0  0  0  0  0  0  0  0  0  0
    0.7517    0.7412    0.1838 C   0  0  0  0  0  0  0  0  0  0  0  0
    1.4327    1.7473    0.1774 O   0  0  0  0  0  0  0  0  0  0  0  0
   -0.6430    0.6432   -0.0189 C   0  0  0  0  0  0  0  0  0  0  0  0
   -1.0177   -0.6451    0.0650 C   0  0  0  0  0  0  0  0  0  0  0  0
    0.0144   -1.4679    0.3131 O   0  0  0  0  0  0  0  0  0  0  0  0
   -2.4401   -1.1146   -0.1003 C   0  0  0  0  0  0  0  0  0  0  0  0
   -1.4787    1.6917   -0.2618 O   0  0  0  0  0  0  0  0  0  0  0  0
    3.0776   -0.4407   -0.6377 H   0  0  0  0  0  0  0  0  0  0  0  0
    2.5317   -2.1286   -0.4919 H   0  0  0  0  0  0  0  0  0  0  0  0
    1.7381   -1.0334   -1.6491 H   0  0  0  0  0  0  0  0  0  0  0  0
    1.6566   -0.7886    1.4002 H   0  0  0  0  0  0  0  0  0  0  0  0
   -2.6293   -1.3383   -1.1502 H   0  0  0  0  0  0  0  0  0  0  0  0
   -2.5980   -2.0128    0.4967 H   0  0  0  0  0  0  0  0  0  0  0  0
   -3.1220   -0.3322    0.2331 H   0  0  0  0  0  0  0  0  0  0  0  0
   -1.0349    2.5504   -0.2884 H   0  0  0  0  0  0  0  0  0  0  0  0
  1  2  1  0  0  0  0
  2  3  1  0  0  0  0
  3  4  2  0  0  0  0
  3  5  1  0  0  0  0
  5  6  2  0  0  0  0
  6  7  1  0  0  0  0
  2  7  1  0  0  0  0
  6  8  1  0  0  0  0
  5  9  1  0  0  0  0
  1 10  1  0  0  0  0
  1 11  1  0  0  0  0
  1 12  1  0  0  0  0
  2 13  1  0  0  0  0
  8 14  1  0  0  0  0
  8 15  1  0  0  0  0
  8 16  1  0  0  0  0
  9 17  1  0  0  0  0
M  END
$$$$
