C5H10O5
APtclcactv06211806453D 0   0.00000     0.00000
 
 20 19  0  0  0  0  0  0  0  0999 V2000
    1.0826   -1.0803   -0.6781 C   0  0  0  0  0  0  0  0  0  0  0  0
    0.3836   -0.0708    0.2347 C   0  0  0  0  0  0  0  0  0  0  0  0
    1.3352    1.0887    0.5360 C   0  0  0  0  0  0  0  0  0  0  0  0
    1.7436    1.7005   -0.6892 O   0  0  0  0  0  0  0  0  0  0  0  0
   -0.8686    0.4651   -0.4622 C   0  0  0  0  0  0  0  0  0  0  0  0
   -1.8367   -0.6660   -0.6953 C   0  0  0  0  0  0  0  0  0  0  0  0
   -2.9403   -0.6268   -0.2065 O   0  0  0  0  0  0  0  0  0  0  0  0
   -1.4846    1.4571    0.3616 O   0  0  0  0  0  0  0  0  0  0  0  0
    0.0114   -0.7114    1.4566 O   0  0  0  0  0  0  0  0  0  0  0  0
    2.2522   -1.5808   -0.0272 O   0  0  0  0  0  0  0  0  0  0  0  0
    0.4047   -1.9063   -0.8927 H   0  0  0  0  0  0  0  0  0  0  0  0
    1.3665   -0.5917   -1.6101 H   0  0  0  0  0  0  0  0  0  0  0  0
    0.8256    1.8250    1.1576 H   0  0  0  0  0  0  0  0  0  0  0  0
    2.2114    0.7119    1.0636 H   0  0  0  0  0  0  0  0  0  0  0  0
    2.3495    2.4453   -0.5741 H   0  0  0  0  0  0  0  0  0  0  0  0
   -0.5907    0.9084   -1.4184 H   0  0  0  0  0  0  0  0  0  0  0  0
   -1.5436   -1.5118   -1.2996 H   0  0  0  0  0  0  0  0  0  0  0  0
   -1.6922    1.1524    1.2556 H   0  0  0  0  0  0  0  0  0  0  0  0
   -0.5925   -1.4578    1.3414 H   0  0  0  0  0  0  0  0  0  0  0  0
    2.7466   -2.2274   -0.5493 H   0  0  0  0  0  0  0  0  0  0  0  0
  1  2  1  0  0  0  0
  2  3  1  0  0  0  0
  3  4  1  0  0  0  0
  2  5  1  0  0  0  0
  5  6  1  0  0  0  0
  6  7  2  0  0  0  0
  5  8  1  0  0  0  0
  2  9  1  0  0  0  0
  1 10  1  0  0  0  0
  1 11  1  0  0  0  0
  1 12  1  0  0  0  0
  3 13  1  0  0  0  0
  3 14  1  0  0  0  0
  4 15  1  0  0  0  0
  5 16  1  0  0  0  0
  6 17  1  0  0  0  0
  8 18  1  0  0  0  0
  9 19  1  0  0  0  0
 10 20  1  0  0  0  0
M  END
$$$$
