C15H10O6
APtclcactv06211806453D 0   0.00000     0.00000
 
 31 33  0  0  0  0  0  0  0  0999 V2000
   -3.4963    1.7320    0.0527 C   0  0  0  0  0  0  0  0  0  0  0  0
   -4.6751    1.0227    0.1176 C   0  0  0  0  0  0  0  0  0  0  0  0
   -4.6572   -0.3656    0.0867 C   0  0  0  0  0  0  0  0  0  0  0  0
   -3.4459   -1.0498   -0.0097 C   0  0  0  0  0  0  0  0  0  0  0  0
   -2.2589   -0.3475   -0.0749 C   0  0  0  0  0  0  0  0  0  0  0  0
   -2.2755    1.0525   -0.0448 C   0  0  0  0  0  0  0  0  0  0  0  0
   -1.0171    1.8056   -0.1142 C   0  0  0  0  0  0  0  0  0  0  0  0
    0.1697    1.1482   -0.0818 C   0  0  0  0  0  0  0  0  0  0  0  0
    1.5039    1.7653   -0.0357 C   0  0  0  0  0  0  0  0  0  0  0  0
    1.7759    2.9536   -0.0182 O   0  0  0  0  0  0  0  0  0  0  0  0
    2.4369    0.6276   -0.0146 C   0  0  0  0  0  0  0  0  0  0  0  0
    3.8340    0.5353    0.0284 C   0  0  0  0  0  0  0  0  0  0  0  0
    4.4371   -0.7098    0.0384 C   0  0  0  0  0  0  0  0  0  0  0  0
    3.6566   -1.8589    0.0058 C   0  0  0  0  0  0  0  0  0  0  0  0
    2.2729   -1.7735   -0.0368 C   0  0  0  0  0  0  0  0  0  0  0  0
    1.6479   -0.5341   -0.0475 C   0  0  0  0  0  0  0  0  0  0  0  0
    0.3404   -0.1949   -0.0801 O   0  0  0  0  0  0  0  0  0  0  0  0
    4.2545   -3.0775    0.0154 O   0  0  0  0  0  0  0  0  0  0  0  0
    4.5914    1.6605    0.0596 O   0  0  0  0  0  0  0  0  0  0  0  0
   -3.4337   -2.4094   -0.0391 O   0  0  0  0  0  0  0  0  0  0  0  0
   -5.8233   -1.0593    0.1512 O   0  0  0  0  0  0  0  0  0  0  0  0
   -3.5136    2.8116    0.0724 H   0  0  0  0  0  0  0  0  0  0  0  0
   -5.6159    1.5476    0.1931 H   0  0  0  0  0  0  0  0  0  0  0  0
   -1.3202   -0.8764   -0.1489 H   0  0  0  0  0  0  0  0  0  0  0  0
   -1.0359    2.8827   -0.1911 H   0  0  0  0  0  0  0  0  0  0  0  0
    5.5137   -0.7885    0.0711 H   0  0  0  0  0  0  0  0  0  0  0  0
    1.6791   -2.6752   -0.0621 H   0  0  0  0  0  0  0  0  0  0  0  0
    4.4004   -3.4370    0.9011 H   0  0  0  0  0  0  0  0  0  0  0  0
    4.7834    1.9808    0.9516 H   0  0  0  0  0  0  0  0  0  0  0  0
   -3.4899   -2.7841   -0.9288 H   0  0  0  0  0  0  0  0  0  0  0  0
   -6.2208   -1.2413   -0.7113 H   0  0  0  0  0  0  0  0  0  0  0  0
  1  2  2  0  0  0  0
  2  3  1  0  0  0  0
  3  4  2  0  0  0  0
  4  5  1  0  0  0  0
  5  6  2  0  0  0  0
  1  6  1  0  0  0  0
  6  7  1  0  0  0  0
  7  8  2  0  0  0  0
  8  9  1  0  0  0  0
  9 10  2  0  0  0  0
  9 11  1  0  0  0  0
 11 12  2  0  0  0  0
 12 13  1  0  0  0  0
 13 14  2  0  0  0  0
 14 15  1  0  0  0  0
 15 16  2  0  0  0  0
 11 16  1  0  0  0  0
 16 17  1  0  0  0  0
  8 17  1  0  0  0  0
 14 18  1  0  0  0  0
 12 19  1  0  0  0  0
  4 20  1  0  0  0  0
  3 21  1  0  0  0  0
  1 22  1  0  0  0  0
  2 23  1  0  0  0  0
  5 24  1  0  0  0  0
  7 25  1  0  0  0  0
 13 26  1  0  0  0  0
 15 27  1  0  0  0  0
 18 28  1  0  0  0  0
 19 29  1  0  0  0  0
 20 30  1  0  0  0  0
 21 31  1  0  0  0  0
M  END
$$$$
