C15H12N12O6
APtclcactv06291802433D 0   0.00000     0.00000
 
 45 48  0  0  0  0  0  0  0  0999 V2000
  -14.4897   -2.3147   -0.3500 C   0  0  0  0  0  0  0  0  0  0  0  0
  -15.7322   -2.3626    0.0581 N   0  0  0  0  0  0  0  0  0  0  0  0
  -16.2431   -1.1294    0.0984 C   0  0  0  0  0  0  0  0  0  0  0  0
  -15.2445   -0.2562   -0.3145 C   0  0  0  0  0  0  0  0  0  0  0  0
  -14.1403   -1.0364   -0.5935 N   0  0  0  0  0  0  0  0  0  0  0  0
  -15.5191    1.1273   -0.3666 C   0  0  0  0  0  0  0  0  0  0  0  0
  -14.6602    1.9128   -0.7256 O   0  0  0  0  0  0  0  0  0  0  0  0
  -16.7442    1.5696   -0.0143 N   0  0  0  0  0  0  0  0  0  0  0  0
  -17.7012    0.7136    0.3833 C   0  0  0  0  0  0  0  0  0  0  0  0
  -18.7937    1.1483    0.6933 O   0  0  0  0  0  0  0  0  0  0  0  0
  -17.4807   -0.6131    0.4468 N   0  0  0  0  0  0  0  0  0  0  0  0
    1.5972   -2.2478   -0.2893 C   0  0  0  0  0  0  0  0  0  0  0  0
    0.3547   -2.2957    0.1189 N   0  0  0  0  0  0  0  0  0  0  0  0
   -0.1562   -1.0625    0.1592 C   0  0  0  0  0  0  0  0  0  0  0  0
    0.8424   -0.1893   -0.2537 C   0  0  0  0  0  0  0  0  0  0  0  0
    1.9466   -0.9695   -0.5327 N   0  0  0  0  0  0  0  0  0  0  0  0
    0.5679    1.1942   -0.3058 C   0  0  0  0  0  0  0  0  0  0  0  0
    1.4267    1.9797   -0.6648 O   0  0  0  0  0  0  0  0  0  0  0  0
   -0.6573    1.6365    0.0465 N   0  0  0  0  0  0  0  0  0  0  0  0
   -1.6143    0.7804    0.4441 C   0  0  0  0  0  0  0  0  0  0  0  0
   -2.7068    1.2152    0.7541 O   0  0  0  0  0  0  0  0  0  0  0  0
   -1.3938   -0.5462    0.5076 N   0  0  0  0  0  0  0  0  0  0  0  0
   17.6841   -2.1809   -0.2285 C   0  0  0  0  0  0  0  0  0  0  0  0
   16.4416   -2.2288    0.1796 N   0  0  0  0  0  0  0  0  0  0  0  0
   15.9307   -0.9956    0.2200 C   0  0  0  0  0  0  0  0  0  0  0  0
   16.9293   -0.1224   -0.1929 C   0  0  0  0  0  0  0  0  0  0  0  0
   18.0335   -0.9026   -0.4719 N   0  0  0  0  0  0  0  0  0  0  0  0
   16.6548    1.2611   -0.2450 C   0  0  0  0  0  0  0  0  0  0  0  0
   17.5136    2.0466   -0.6040 O   0  0  0  0  0  0  0  0  0  0  0  0
   15.4296    1.7034    0.1072 N   0  0  0  0  0  0  0  0  0  0  0  0
   14.4727    0.8473    0.5049 C   0  0  0  0  0  0  0  0  0  0  0  0
   13.3801    1.2821    0.8149 O   0  0  0  0  0  0  0  0  0  0  0  0
   14.6931   -0.4793    0.5684 N   0  0  0  0  0  0  0  0  0  0  0  0
  -13.8411   -3.1700   -0.4692 H   0  0  0  0  0  0  0  0  0  0  0  0
  -13.2766   -0.7237   -0.9051 H   0  0  0  0  0  0  0  0  0  0  0  0
  -16.9372    2.5196   -0.0483 H   0  0  0  0  0  0  0  0  0  0  0  0
  -18.1895   -1.2085    0.7369 H   0  0  0  0  0  0  0  0  0  0  0  0
    2.2458   -3.1031   -0.4084 H   0  0  0  0  0  0  0  0  0  0  0  0
    2.8103   -0.6568   -0.8443 H   0  0  0  0  0  0  0  0  0  0  0  0
   -0.8502    2.5865    0.0125 H   0  0  0  0  0  0  0  0  0  0  0  0
   -2.1026   -1.1416    0.7977 H   0  0  0  0  0  0  0  0  0  0  0  0
   18.3327   -3.0362   -0.3476 H   0  0  0  0  0  0  0  0  0  0  0  0
   18.8972   -0.5899   -0.7835 H   0  0  0  0  0  0  0  0  0  0  0  0
   15.2367    2.6534    0.0733 H   0  0  0  0  0  0  0  0  0  0  0  0
   13.9844   -1.0747    0.8584 H   0  0  0  0  0  0  0  0  0  0  0  0
  1  2  2  0  0  0  0
  2  3  1  0  0  0  0
  3  4  2  0  0  0  0
  4  5  1  0  0  0  0
  1  5  1  0  0  0  0
  4  6  1  0  0  0  0
  6  7  2  0  0  0  0
  6  8  1  0  0  0  0
  8  9  1  0  0  0  0
  9 10  2  0  0  0  0
  9 11  1  0  0  0  0
  3 11  1  0  0  0  0
 12 13  2  0  0  0  0
 13 14  1  0  0  0  0
 14 15  2  0  0  0  0
 15 16  1  0  0  0  0
 12 16  1  0  0  0  0
 15 17  1  0  0  0  0
 17 18  2  0  0  0  0
 17 19  1  0  0  0  0
 19 20  1  0  0  0  0
 20 21  2  0  0  0  0
 20 22  1  0  0  0  0
 14 22  1  0  0  0  0
 23 24  2  0  0  0  0
 24 25  1  0  0  0  0
 25 26  2  0  0  0  0
 26 27  1  0  0  0  0
 23 27  1  0  0  0  0
 26 28  1  0  0  0  0
 28 29  2  0  0  0  0
 28 30  1  0  0  0  0
 30 31  1  0  0  0  0
 31 32  2  0  0  0  0
 31 33  1  0  0  0  0
 25 33  1  0  0  0  0
  1 34  1  0  0  0  0
  5 35  1  0  0  0  0
  8 36  1  0  0  0  0
 11 37  1  0  0  0  0
 12 38  1  0  0  0  0
 16 39  1  0  0  0  0
 19 40  1  0  0  0  0
 22 41  1  0  0  0  0
 23 42  1  0  0  0  0
 27 43  1  0  0  0  0
 30 44  1  0  0  0  0
 33 45  1  0  0  0  0
M  END
$$$$
