C27H28O14
APtclcactv06211806453D 0   0.00000     0.00000
 
 69 73  0  0  0  0  0  0  0  0999 V2000
   -3.6200    2.4326    3.0041 C   0  0  0  0  0  0  0  0  0  0  0  0
   -4.6326    2.3655    1.8590 C   0  0  0  0  0  0  0  0  0  0  0  0
   -4.5645    3.6576    1.0408 C   0  0  0  0  0  0  0  0  0  0  0  0
   -3.1698    3.7874    0.4210 C   0  0  0  0  0  0  0  0  0  0  0  0
   -2.8831    2.5456   -0.4287 C   0  0  0  0  0  0  0  0  0  0  0  0
   -3.0161    1.2964    0.4462 C   0  0  0  0  0  0  0  0  0  0  0  0
   -4.3258    1.2529    1.0163 O   0  0  0  0  0  0  0  0  0  0  0  0
   -2.8052    0.1304   -0.3526 O   0  0  0  0  0  0  0  0  0  0  0  0
   -2.7958   -1.0898    0.3911 C   0  0  0  0  0  0  0  0  0  0  0  0
   -4.2201   -1.6555    0.4672 C   0  0  0  0  0  0  0  0  0  0  0  0
   -4.6237   -2.0937   -0.9257 C   0  0  0  0  0  0  0  0  0  0  0  0
   -5.6872   -1.7706   -1.3977 O   0  0  0  0  0  0  0  0  0  0  0  0
   -3.6492   -2.9497   -1.7062 C   0  0  0  0  0  0  0  0  0  0  0  0
   -2.3565   -2.3381   -1.6377 O   0  0  0  0  0  0  0  0  0  0  0  0
   -1.8909   -2.1081   -0.3070 C   0  0  0  0  0  0  0  0  0  0  0  0
   -0.4817   -1.5762   -0.3544 C   0  0  0  0  0  0  0  0  0  0  0  0
   -0.1485   -0.5747   -1.2593 C   0  0  0  0  0  0  0  0  0  0  0  0
    1.1436   -0.0747   -1.3160 C   0  0  0  0  0  0  0  0  0  0  0  0
    2.1181   -0.5728   -0.4657 C   0  0  0  0  0  0  0  0  0  0  0  0
    1.7837   -1.5852    0.4505 C   0  0  0  0  0  0  0  0  0  0  0  0
    0.4756   -2.0815    0.5063 C   0  0  0  0  0  0  0  0  0  0  0  0
    0.1522   -3.0585    1.3910 O   0  0  0  0  0  0  0  0  0  0  0  0
    2.8354   -2.0994    1.3441 C   0  0  0  0  0  0  0  0  0  0  0  0
    2.6019   -2.9778    2.1585 O   0  0  0  0  0  0  0  0  0  0  0  0
    4.1274   -1.5354    1.2212 C   0  0  0  0  0  0  0  0  0  0  0  0
    4.3479   -0.5583    0.3011 C   0  0  0  0  0  0  0  0  0  0  0  0
    3.3809   -0.0978   -0.5085 O   0  0  0  0  0  0  0  0  0  0  0  0
    5.7013    0.0175    0.1883 C   0  0  0  0  0  0  0  0  0  0  0  0
    5.9590    1.0230   -0.7477 C   0  0  0  0  0  0  0  0  0  0  0  0
    7.2284    1.5588   -0.8492 C   0  0  0  0  0  0  0  0  0  0  0  0
    8.2485    1.0967   -0.0193 C   0  0  0  0  0  0  0  0  0  0  0  0
    7.9926    0.0981    0.9103 C   0  0  0  0  0  0  0  0  0  0  0  0
    6.7274   -0.4370    1.0211 C   0  0  0  0  0  0  0  0  0  0  0  0
    9.4961    1.6244   -0.1209 O   0  0  0  0  0  0  0  0  0  0  0  0
    7.4827    2.5370   -1.7592 O   0  0  0  0  0  0  0  0  0  0  0  0
   -1.0972   -0.0818   -2.0959 O   0  0  0  0  0  0  0  0  0  0  0  0
   -3.5894   -4.3509   -1.0947 C   0  0  0  0  0  0  0  0  0  0  0  0
   -4.2481   -2.7762    1.3534 O   0  0  0  0  0  0  0  0  0  0  0  0
   -3.8205    2.4767   -1.5051 O   0  0  0  0  0  0  0  0  0  0  0  0
   -3.1199    4.9531   -0.4041 O   0  0  0  0  0  0  0  0  0  0  0  0
   -5.5464    3.6182    0.0034 O   0  0  0  0  0  0  0  0  0  0  0  0
   -3.8535    3.2819    3.6462 H   0  0  0  0  0  0  0  0  0  0  0  0
   -3.6686    1.5126    3.5865 H   0  0  0  0  0  0  0  0  0  0  0  0
   -2.6166    2.5513    2.5953 H   0  0  0  0  0  0  0  0  0  0  0  0
   -5.6360    2.2464    2.2676 H   0  0  0  0  0  0  0  0  0  0  0  0
   -4.7548    4.5112    1.6915 H   0  0  0  0  0  0  0  0  0  0  0  0
   -2.4249    3.8674    1.2127 H   0  0  0  0  0  0  0  0  0  0  0  0
   -1.8710    2.6038   -0.8290 H   0  0  0  0  0  0  0  0  0  0  0  0
   -2.2736    1.3302    1.2435 H   0  0  0  0  0  0  0  0  0  0  0  0
   -2.4245   -0.9001    1.3983 H   0  0  0  0  0  0  0  0  0  0  0  0
   -4.9040   -0.8854    0.8240 H   0  0  0  0  0  0  0  0  0  0  0  0
   -3.9695   -3.0157   -2.7460 H   0  0  0  0  0  0  0  0  0  0  0  0
   -1.9046   -3.0457    0.2487 H   0  0  0  0  0  0  0  0  0  0  0  0
    1.3908    0.7031   -2.0233 H   0  0  0  0  0  0  0  0  0  0  0  0
   -0.1486   -2.7285    2.2487 H   0  0  0  0  0  0  0  0  0  0  0  0
    4.9327   -1.8782    1.8539 H   0  0  0  0  0  0  0  0  0  0  0  0
    5.1678    1.3799   -1.3903 H   0  0  0  0  0  0  0  0  0  0  0  0
    8.7858   -0.2572    1.5514 H   0  0  0  0  0  0  0  0  0  0  0  0
    6.5310   -1.2136    1.7455 H   0  0  0  0  0  0  0  0  0  0  0  0
    9.6468    2.3903    0.4499 H   0  0  0  0  0  0  0  0  0  0  0  0
    7.3455    3.4330   -1.4223 H   0  0  0  0  0  0  0  0  0  0  0  0
   -1.5832    0.6737   -1.7379 H   0  0  0  0  0  0  0  0  0  0  0  0
   -4.5794   -4.8057   -1.1310 H   0  0  0  0  0  0  0  0  0  0  0  0
   -2.8870   -4.9641   -1.6592 H   0  0  0  0  0  0  0  0  0  0  0  0
   -3.2594   -4.2812   -0.0582 H   0  0  0  0  0  0  0  0  0  0  0  0
   -5.1210   -3.1818    1.4471 H   0  0  0  0  0  0  0  0  0  0  0  0
   -3.6976    1.7130   -2.0854 H   0  0  0  0  0  0  0  0  0  0  0  0
   -2.2636    5.0976   -0.8295 H   0  0  0  0  0  0  0  0  0  0  0  0
   -6.4545    3.5318    0.3243 H   0  0  0  0  0  0  0  0  0  0  0  0
  1  2  1  0  0  0  0
  2  3  1  0  0  0  0
  3  4  1  0  0  0  0
  4  5  1  0  0  0  0
  5  6  1  0  0  0  0
  6  7  1  0  0  0  0
  2  7  1  0  0  0  0
  6  8  1  0  0  0  0
  8  9  1  0  0  0  0
  9 10  1  0  0  0  0
 10 11  1  0  0  0  0
 11 12  2  0  0  0  0
 11 13  1  0  0  0  0
 13 14  1  0  0  0  0
 14 15  1  0  0  0  0
  9 15  1  0  0  0  0
 15 16  1  0  0  0  0
 16 17  2  0  0  0  0
 17 18  1  0  0  0  0
 18 19  2  0  0  0  0
 19 20  1  0  0  0  0
 20 21  2  0  0  0  0
 16 21  1  0  0  0  0
 21 22  1  0  0  0  0
 20 23  1  0  0  0  0
 23 24  2  0  0  0  0
 23 25  1  0  0  0  0
 25 26  2  0  0  0  0
 26 27  1  0  0  0  0
 19 27  1  0  0  0  0
 26 28  1  0  0  0  0
 28 29  2  0  0  0  0
 29 30  1  0  0  0  0
 30 31  2  0  0  0  0
 31 32  1  0  0  0  0
 32 33  2  0  0  0  0
 28 33  1  0  0  0  0
 31 34  1  0  0  0  0
 30 35  1  0  0  0  0
 17 36  1  0  0  0  0
 13 37  1  0  0  0  0
 10 38  1  0  0  0  0
  5 39  1  0  0  0  0
  4 40  1  0  0  0  0
  3 41  1  0  0  0  0
  1 42  1  0  0  0  0
  1 43  1  0  0  0  0
  1 44  1  0  0  0  0
  2 45  1  0  0  0  0
  3 46  1  0  0  0  0
  4 47  1  0  0  0  0
  5 48  1  0  0  0  0
  6 49  1  0  0  0  0
  9 50  1  0  0  0  0
 10 51  1  0  0  0  0
 13 52  1  0  0  0  0
 15 53  1  0  0  0  0
 18 54  1  0  0  0  0
 22 55  1  0  0  0  0
 25 56  1  0  0  0  0
 29 57  1  0  0  0  0
 32 58  1  0  0  0  0
 33 59  1  0  0  0  0
 34 60  1  0  0  0  0
 35 61  1  0  0  0  0
 36 62  1  0  0  0  0
 37 63  1  0  0  0  0
 37 64  1  0  0  0  0
 37 65  1  0  0  0  0
 38 66  1  0  0  0  0
 39 67  1  0  0  0  0
 40 68  1  0  0  0  0
 41 69  1  0  0  0  0
M  END
$$$$
