C27H28O13
APtclcactv06211806453D 0   0.00000     0.00000
 
 68 72  0  0  0  0  0  0  0  0999 V2000
   -3.4419    2.4857    2.9310 C   0  0  0  0  0  0  0  0  0  0  0  0
   -4.4750    2.3324    1.8129 C   0  0  0  0  0  0  0  0  0  0  0  0
   -4.4770    3.5923    0.9433 C   0  0  0  0  0  0  0  0  0  0  0  0
   -3.1022    3.7526    0.2871 C   0  0  0  0  0  0  0  0  0  0  0  0
   -2.7833    2.4901   -0.5195 C   0  0  0  0  0  0  0  0  0  0  0  0
   -2.8467    1.2727    0.4066 C   0  0  0  0  0  0  0  0  0  0  0  0
   -4.1412    1.2000    1.0076 O   0  0  0  0  0  0  0  0  0  0  0  0
   -2.6055    0.0850   -0.3505 O   0  0  0  0  0  0  0  0  0  0  0  0
   -2.5306   -1.1031    0.4401 C   0  0  0  0  0  0  0  0  0  0  0  0
   -3.9287   -1.7216    0.5708 C   0  0  0  0  0  0  0  0  0  0  0  0
   -4.3437   -2.2310   -0.7942 C   0  0  0  0  0  0  0  0  0  0  0  0
   -5.4293   -1.9697   -1.2542 O   0  0  0  0  0  0  0  0  0  0  0  0
   -3.3519   -3.0782   -1.5627 C   0  0  0  0  0  0  0  0  0  0  0  0
   -2.0841   -2.4133   -1.5477 O   0  0  0  0  0  0  0  0  0  0  0  0
   -1.6001   -2.1117   -0.2380 C   0  0  0  0  0  0  0  0  0  0  0  0
   -0.2150   -1.5264   -0.3384 C   0  0  0  0  0  0  0  0  0  0  0  0
    0.0579   -0.5495   -1.2894 C   0  0  0  0  0  0  0  0  0  0  0  0
    1.3270   -0.0012   -1.3951 C   0  0  0  0  0  0  0  0  0  0  0  0
    2.3388   -0.4255   -0.5485 C   0  0  0  0  0  0  0  0  0  0  0  0
    2.0655   -1.4128    0.4142 C   0  0  0  0  0  0  0  0  0  0  0  0
    0.7802   -1.9583    0.5192 C   0  0  0  0  0  0  0  0  0  0  0  0
    0.5158   -2.9114    1.4484 O   0  0  0  0  0  0  0  0  0  0  0  0
    3.1560   -1.8484    1.3030 C   0  0  0  0  0  0  0  0  0  0  0  0
    2.9758   -2.7021    2.1563 O   0  0  0  0  0  0  0  0  0  0  0  0
    4.4211   -1.2388    1.1286 C   0  0  0  0  0  0  0  0  0  0  0  0
    4.5820   -0.2914    0.1660 C   0  0  0  0  0  0  0  0  0  0  0  0
    3.5801    0.0973   -0.6386 O   0  0  0  0  0  0  0  0  0  0  0  0
    5.9082    0.3325   -0.0005 C   0  0  0  0  0  0  0  0  0  0  0  0
    6.1052    1.3092   -0.9808 C   0  0  0  0  0  0  0  0  0  0  0  0
    7.3450    1.8895   -1.1325 C   0  0  0  0  0  0  0  0  0  0  0  0
    8.3993    1.5053   -0.3126 C   0  0  0  0  0  0  0  0  0  0  0  0
    8.2079    0.5343    0.6631 C   0  0  0  0  0  0  0  0  0  0  0  0
    6.9700   -0.0470    0.8255 C   0  0  0  0  0  0  0  0  0  0  0  0
    9.6197    2.0799   -0.4655 O   0  0  0  0  0  0  0  0  0  0  0  0
   -0.9277   -0.1288   -2.1227 O   0  0  0  0  0  0  0  0  0  0  0  0
   -3.2222   -4.4502   -0.8982 C   0  0  0  0  0  0  0  0  0  0  0  0
   -3.8923   -2.8060    1.5007 O   0  0  0  0  0  0  0  0  0  0  0  0
   -3.7397    2.3408   -1.5707 O   0  0  0  0  0  0  0  0  0  0  0  0
   -3.1174    4.8853   -0.5839 O   0  0  0  0  0  0  0  0  0  0  0  0
   -5.4782    3.4722   -0.0691 O   0  0  0  0  0  0  0  0  0  0  0  0
   -3.6961    3.3500    3.5445 H   0  0  0  0  0  0  0  0  0  0  0  0
   -3.4406    1.5885    3.5500 H   0  0  0  0  0  0  0  0  0  0  0  0
   -2.4530    2.6277    2.4950 H   0  0  0  0  0  0  0  0  0  0  0  0
   -5.4638    2.1899    2.2487 H   0  0  0  0  0  0  0  0  0  0  0  0
   -4.6880    4.4630    1.5642 H   0  0  0  0  0  0  0  0  0  0  0  0
   -2.3445    3.8939    1.0579 H   0  0  0  0  0  0  0  0  0  0  0  0
   -1.7831    2.5725   -0.9448 H   0  0  0  0  0  0  0  0  0  0  0  0
   -2.0894    1.3681    1.1847 H   0  0  0  0  0  0  0  0  0  0  0  0
   -2.1460   -0.8585    1.4302 H   0  0  0  0  0  0  0  0  0  0  0  0
   -4.6357   -0.9657    0.9127 H   0  0  0  0  0  0  0  0  0  0  0  0
   -3.6913   -3.1985   -2.5915 H   0  0  0  0  0  0  0  0  0  0  0  0
   -1.5637   -3.0261    0.3542 H   0  0  0  0  0  0  0  0  0  0  0  0
    1.5272    0.7568   -2.1379 H   0  0  0  0  0  0  0  0  0  0  0  0
    0.2203   -2.5598    2.2994 H   0  0  0  0  0  0  0  0  0  0  0  0
    5.2530   -1.5236    1.7557 H   0  0  0  0  0  0  0  0  0  0  0  0
    5.2865    1.6081   -1.6186 H   0  0  0  0  0  0  0  0  0  0  0  0
    7.4982    2.6439   -1.8899 H   0  0  0  0  0  0  0  0  0  0  0  0
    9.0301    0.2382    1.2977 H   0  0  0  0  0  0  0  0  0  0  0  0
    6.8220   -0.8013    1.5842 H   0  0  0  0  0  0  0  0  0  0  0  0
    9.7506    2.8739    0.0707 H   0  0  0  0  0  0  0  0  0  0  0  0
   -1.4363    0.6205   -1.7836 H   0  0  0  0  0  0  0  0  0  0  0  0
   -4.1934   -4.9452   -0.8940 H   0  0  0  0  0  0  0  0  0  0  0  0
   -2.5075   -5.0571   -1.4541 H   0  0  0  0  0  0  0  0  0  0  0  0
   -2.8733   -4.3259    0.1270 H   0  0  0  0  0  0  0  0  0  0  0  0
   -4.7457   -3.2420    1.6301 H   0  0  0  0  0  0  0  0  0  0  0  0
   -3.5983    1.5599   -2.1232 H   0  0  0  0  0  0  0  0  0  0  0  0
   -2.2769    5.0466   -1.0341 H   0  0  0  0  0  0  0  0  0  0  0  0
   -6.3750    3.3626    0.2756 H   0  0  0  0  0  0  0  0  0  0  0  0
  1  2  1  0  0  0  0
  2  3  1  0  0  0  0
  3  4  1  0  0  0  0
  4  5  1  0  0  0  0
  5  6  1  0  0  0  0
  6  7  1  0  0  0  0
  2  7  1  0  0  0  0
  6  8  1  0  0  0  0
  8  9  1  0  0  0  0
  9 10  1  0  0  0  0
 10 11  1  0  0  0  0
 11 12  2  0  0  0  0
 11 13  1  0  0  0  0
 13 14  1  0  0  0  0
 14 15  1  0  0  0  0
  9 15  1  0  0  0  0
 15 16  1  0  0  0  0
 16 17  2  0  0  0  0
 17 18  1  0  0  0  0
 18 19  2  0  0  0  0
 19 20  1  0  0  0  0
 20 21  2  0  0  0  0
 16 21  1  0  0  0  0
 21 22  1  0  0  0  0
 20 23  1  0  0  0  0
 23 24  2  0  0  0  0
 23 25  1  0  0  0  0
 25 26  2  0  0  0  0
 26 27  1  0  0  0  0
 19 27  1  0  0  0  0
 26 28  1  0  0  0  0
 28 29  2  0  0  0  0
 29 30  1  0  0  0  0
 30 31  2  0  0  0  0
 31 32  1  0  0  0  0
 32 33  2  0  0  0  0
 28 33  1  0  0  0  0
 31 34  1  0  0  0  0
 17 35  1  0  0  0  0
 13 36  1  0  0  0  0
 10 37  1  0  0  0  0
  5 38  1  0  0  0  0
  4 39  1  0  0  0  0
  3 40  1  0  0  0  0
  1 41  1  0  0  0  0
  1 42  1  0  0  0  0
  1 43  1  0  0  0  0
  2 44  1  0  0  0  0
  3 45  1  0  0  0  0
  4 46  1  0  0  0  0
  5 47  1  0  0  0  0
  6 48  1  0  0  0  0
  9 49  1  0  0  0  0
 10 50  1  0  0  0  0
 13 51  1  0  0  0  0
 15 52  1  0  0  0  0
 18 53  1  0  0  0  0
 22 54  1  0  0  0  0
 25 55  1  0  0  0  0
 29 56  1  0  0  0  0
 30 57  1  0  0  0  0
 32 58  1  0  0  0  0
 33 59  1  0  0  0  0
 34 60  1  0  0  0  0
 35 61  1  0  0  0  0
 36 62  1  0  0  0  0
 36 63  1  0  0  0  0
 36 64  1  0  0  0  0
 37 65  1  0  0  0  0
 38 66  1  0  0  0  0
 39 67  1  0  0  0  0
 40 68  1  0  0  0  0
M  END
$$$$
