C6H10O
APtclcactv06211806113D 0   0.00000     0.00000
 
 17 16  0  0  0  0  0  0  0  0999 V2000
    1.9095    1.1126   -0.4977 C   0  0  0  0  0  0  0  0  0  0  0  0
    1.2544   -0.2049   -0.1720 C   0  0  0  0  0  0  0  0  0  0  0  0
    1.8449   -1.0472    0.6392 C   0  0  0  0  0  0  0  0  0  0  0  0
   -0.0799   -0.5535   -0.7795 C   0  0  0  0  0  0  0  0  0  0  0  0
   -1.1835    0.0379    0.0591 C   0  0  0  0  0  0  0  0  0  0  0  0
   -0.9143    0.6766    1.0480 O   0  0  0  0  0  0  0  0  0  0  0  0
   -2.6231   -0.1676   -0.3364 C   0  0  0  0  0  0  0  0  0  0  0  0
    2.5450    0.9952   -1.3755 H   0  0  0  0  0  0  0  0  0  0  0  0
    1.1422    1.8592   -0.7019 H   0  0  0  0  0  0  0  0  0  0  0  0
    2.5153    1.4362    0.3487 H   0  0  0  0  0  0  0  0  0  0  0  0
    1.3754   -1.9914    0.8726 H   0  0  0  0  0  0  0  0  0  0  0  0
    2.8012   -0.7974    1.0746 H   0  0  0  0  0  0  0  0  0  0  0  0
   -0.1355   -0.1497   -1.7904 H   0  0  0  0  0  0  0  0  0  0  0  0
   -0.1912   -1.6373   -0.8145 H   0  0  0  0  0  0  0  0  0  0  0  0
   -2.6680   -0.7638   -1.2477 H   0  0  0  0  0  0  0  0  0  0  0  0
   -3.1492   -0.6876    0.4643 H   0  0  0  0  0  0  0  0  0  0  0  0
   -3.0935    0.7999   -0.5116 H   0  0  0  0  0  0  0  0  0  0  0  0
  1  2  1  0  0  0  0
  2  3  2  0  0  0  0
  2  4  1  0  0  0  0
  4  5  1  0  0  0  0
  5  6  2  0  0  0  0
  5  7  1  0  0  0  0
  1  8  1  0  0  0  0
  1  9  1  0  0  0  0
  1 10  1  0  0  0  0
  3 11  1  0  0  0  0
  3 12  1  0  0  0  0
  4 13  1  0  0  0  0
  4 14  1  0  0  0  0
  7 15  1  0  0  0  0
  7 16  1  0  0  0  0
  7 17  1  0  0  0  0
M  END
$$$$
