C11H18O
APtclcactv06211806113D 0   0.00000     0.00000
 
 30 30  0  0  0  0  0  0  0  0999 V2000
    6.1731   -0.0261    0.0630 C   0  0  0  0  0  0  0  0  0  0  0  0
    4.8074   -0.1153    0.7469 C   0  0  0  0  0  0  0  0  0  0  0  0
    3.7019    0.0404   -0.2994 C   0  0  0  0  0  0  0  0  0  0  0  0
    2.3362   -0.0489    0.3845 C   0  0  0  0  0  0  0  0  0  0  0  0
    1.2308    0.1069   -0.6617 C   0  0  0  0  0  0  0  0  0  0  0  0
   -0.1350    0.0176    0.0221 C   0  0  0  0  0  0  0  0  0  0  0  0
   -1.2404    0.1733   -1.0241 C   0  0  0  0  0  0  0  0  0  0  0  0
   -2.5856    0.0854   -0.3505 C   0  0  0  0  0  0  0  0  0  0  0  0
   -3.2813    1.1197    0.1550 C   0  0  0  0  0  0  0  0  0  0  0  0
   -4.4777    0.5872    0.6880 C   0  0  0  0  0  0  0  0  0  0  0  0
   -4.4415   -0.7406    0.4762 C   0  0  0  0  0  0  0  0  0  0  0  0
   -3.2958   -1.0381   -0.1583 O   0  0  0  0  0  0  0  0  0  0  0  0
    6.2711    0.9422   -0.4277 H   0  0  0  0  0  0  0  0  0  0  0  0
    6.9606   -0.1370    0.8084 H   0  0  0  0  0  0  0  0  0  0  0  0
    6.2605   -0.8199   -0.6788 H   0  0  0  0  0  0  0  0  0  0  0  0
    4.7094   -1.0837    1.2376 H   0  0  0  0  0  0  0  0  0  0  0  0
    4.7199    0.6785    1.4888 H   0  0  0  0  0  0  0  0  0  0  0  0
    3.8000    1.0087   -0.7901 H   0  0  0  0  0  0  0  0  0  0  0  0
    3.7894   -0.7534   -1.0412 H   0  0  0  0  0  0  0  0  0  0  0  0
    2.2382   -1.0172    0.8753 H   0  0  0  0  0  0  0  0  0  0  0  0
    2.2488    0.7449    1.1264 H   0  0  0  0  0  0  0  0  0  0  0  0
    1.3288    1.0752   -1.1525 H   0  0  0  0  0  0  0  0  0  0  0  0
    1.3182   -0.6869   -1.4036 H   0  0  0  0  0  0  0  0  0  0  0  0
   -0.2330   -0.9507    0.5129 H   0  0  0  0  0  0  0  0  0  0  0  0
   -0.2224    0.8114    0.7640 H   0  0  0  0  0  0  0  0  0  0  0  0
   -1.1424    1.1417   -1.5149 H   0  0  0  0  0  0  0  0  0  0  0  0
   -1.1530   -0.6204   -1.7660 H   0  0  0  0  0  0  0  0  0  0  0  0
   -2.9830    2.1577    0.1545 H   0  0  0  0  0  0  0  0  0  0  0  0
   -5.2687    1.1404    1.1725 H   0  0  0  0  0  0  0  0  0  0  0  0
   -5.2059   -1.4472    0.7640 H   0  0  0  0  0  0  0  0  0  0  0  0
  1  2  1  0  0  0  0
  2  3  1  0  0  0  0
  3  4  1  0  0  0  0
  4  5  1  0  0  0  0
  5  6  1  0  0  0  0
  6  7  1  0  0  0  0
  7  8  1  0  0  0  0
  8  9  2  0  0  0  0
  9 10  1  0  0  0  0
 10 11  2  0  0  0  0
 11 12  1  0  0  0  0
  8 12  1  0  0  0  0
  1 13  1  0  0  0  0
  1 14  1  0  0  0  0
  1 15  1  0  0  0  0
  2 16  1  0  0  0  0
  2 17  1  0  0  0  0
  3 18  1  0  0  0  0
  3 19  1  0  0  0  0
  4 20  1  0  0  0  0
  4 21  1  0  0  0  0
  5 22  1  0  0  0  0
  5 23  1  0  0  0  0
  6 24  1  0  0  0  0
  6 25  1  0  0  0  0
  7 26  1  0  0  0  0
  7 27  1  0  0  0  0
  9 28  1  0  0  0  0
 10 29  1  0  0  0  0
 11 30  1  0  0  0  0
M  END
$$$$
