C20H21NO4
APtclcactv06211806453D 0   0.00000     0.00000
 
 46 49  0  0  0  0  0  0  0  0999 V2000
    6.4058   -0.0692   -0.2901 C   0  0  0  0  0  0  0  0  0  0  0  0
    4.9811    0.2757   -0.3863 N   0  0  0  0  0  0  0  0  0  0  0  0
    4.6554    1.4193    0.4814 C   0  0  0  0  0  0  0  0  0  0  0  0
    3.2784    1.9494    0.0818 C   0  0  0  0  0  0  0  0  0  0  0  0
    2.2859    0.8165    0.0170 C   0  0  0  0  0  0  0  0  0  0  0  0
    2.6817   -0.4838   -0.0452 C   0  0  0  0  0  0  0  0  0  0  0  0
    4.1383   -0.8732   -0.0430 C   0  0  0  0  0  0  0  0  0  0  0  0
    1.7332   -1.5105   -0.1120 C   0  0  0  0  0  0  0  0  0  0  0  0
    0.3795   -1.2305   -0.1125 C   0  0  0  0  0  0  0  0  0  0  0  0
   -0.0439    0.1010   -0.0446 C   0  0  0  0  0  0  0  0  0  0  0  0
    0.9151    1.1343    0.0211 C   0  0  0  0  0  0  0  0  0  0  0  0
    0.4914    2.4827    0.0899 C   0  0  0  0  0  0  0  0  0  0  0  0
   -0.8171    2.8087    0.0939 C   0  0  0  0  0  0  0  0  0  0  0  0
   -1.8258    1.8190    0.0303 C   0  0  0  0  0  0  0  0  0  0  0  0
   -3.1821    2.1738    0.0358 C   0  0  0  0  0  0  0  0  0  0  0  0
   -4.1469    1.1933   -0.0266 C   0  0  0  0  0  0  0  0  0  0  0  0
   -3.7871   -0.1571   -0.0954 C   0  0  0  0  0  0  0  0  0  0  0  0
   -2.4586   -0.5265   -0.1025 C   0  0  0  0  0  0  0  0  0  0  0  0
   -1.4665    0.4535   -0.0392 C   0  0  0  0  0  0  0  0  0  0  0  0
   -4.7537   -1.1112   -0.1560 O   0  0  0  0  0  0  0  0  0  0  0  0
   -4.3196   -2.4710   -0.2245 C   0  0  0  0  0  0  0  0  0  0  0  0
   -5.4615    1.5407   -0.0209 O   0  0  0  0  0  0  0  0  0  0  0  0
   -0.5307   -2.2384   -0.1786 O   0  0  0  0  0  0  0  0  0  0  0  0
   -0.9798   -2.7893    1.0611 C   0  0  0  0  0  0  0  0  0  0  0  0
    2.1496   -2.8036   -0.1780 O   0  0  0  0  0  0  0  0  0  0  0  0
    6.6631   -0.2637    0.7511 H   0  0  0  0  0  0  0  0  0  0  0  0
    6.6051   -0.9598   -0.8861 H   0  0  0  0  0  0  0  0  0  0  0  0
    7.0064    0.7601   -0.6639 H   0  0  0  0  0  0  0  0  0  0  0  0
    4.6369    1.0970    1.5224 H   0  0  0  0  0  0  0  0  0  0  0  0
    5.4022    2.2028    0.3521 H   0  0  0  0  0  0  0  0  0  0  0  0
    2.9449    2.6805    0.8182 H   0  0  0  0  0  0  0  0  0  0  0  0
    3.3449    2.4279   -0.8953 H   0  0  0  0  0  0  0  0  0  0  0  0
    4.2990   -1.6671   -0.7724 H   0  0  0  0  0  0  0  0  0  0  0  0
    4.4116   -1.2359    0.9478 H   0  0  0  0  0  0  0  0  0  0  0  0
    1.2317    3.2674    0.1399 H   0  0  0  0  0  0  0  0  0  0  0  0
   -1.1014    3.8492    0.1473 H   0  0  0  0  0  0  0  0  0  0  0  0
   -3.4695    3.2134    0.0893 H   0  0  0  0  0  0  0  0  0  0  0  0
   -2.1866   -1.5703   -0.1564 H   0  0  0  0  0  0  0  0  0  0  0  0
   -5.1883   -3.1279   -0.2682 H   0  0  0  0  0  0  0  0  0  0  0  0
   -3.7109   -2.6135   -1.1175 H   0  0  0  0  0  0  0  0  0  0  0  0
   -3.7284   -2.7087    0.6599 H   0  0  0  0  0  0  0  0  0  0  0  0
   -5.8330    1.6887   -0.9013 H   0  0  0  0  0  0  0  0  0  0  0  0
   -0.1292   -3.1981    1.6065 H   0  0  0  0  0  0  0  0  0  0  0  0
   -1.4514   -2.0074    1.6565 H   0  0  0  0  0  0  0  0  0  0  0  0
   -1.7015   -3.5825    0.8660 H   0  0  0  0  0  0  0  0  0  0  0  0
    2.2601   -3.2257    0.6849 H   0  0  0  0  0  0  0  0  0  0  0  0
  1  2  1  0  0  0  0
  2  3  1  0  0  0  0
  3  4  1  0  0  0  0
  4  5  1  0  0  0  0
  5  6  2  0  0  0  0
  6  7  1  0  0  0  0
  2  7  1  0  0  0  0
  6  8  1  0  0  0  0
  8  9  2  0  0  0  0
  9 10  1  0  0  0  0
 10 11  2  0  0  0  0
  5 11  1  0  0  0  0
 11 12  1  0  0  0  0
 12 13  2  0  0  0  0
 13 14  1  0  0  0  0
 14 15  2  0  0  0  0
 15 16  1  0  0  0  0
 16 17  2  0  0  0  0
 17 18  1  0  0  0  0
 18 19  2  0  0  0  0
 14 19  1  0  0  0  0
 10 19  1  0  0  0  0
 17 20  1  0  0  0  0
 20 21  1  0  0  0  0
 16 22  1  0  0  0  0
  9 23  1  0  0  0  0
 23 24  1  0  0  0  0
  8 25  1  0  0  0  0
  1 26  1  0  0  0  0
  1 27  1  0  0  0  0
  1 28  1  0  0  0  0
  3 29  1  0  0  0  0
  3 30  1  0  0  0  0
  4 31  1  0  0  0  0
  4 32  1  0  0  0  0
  7 33  1  0  0  0  0
  7 34  1  0  0  0  0
 12 35  1  0  0  0  0
 13 36  1  0  0  0  0
 15 37  1  0  0  0  0
 18 38  1  0  0  0  0
 21 39  1  0  0  0  0
 21 40  1  0  0  0  0
 21 41  1  0  0  0  0
 22 42  1  0  0  0  0
 24 43  1  0  0  0  0
 24 44  1  0  0  0  0
 24 45  1  0  0  0  0
 25 46  1  0  0  0  0
M  END
$$$$
