C9H20O2
APtclcactv06211806113D 0   0.00000     0.00000
 
 31 30  0  0  0  0  0  0  0  0999 V2000
    1.3073    3.1805   -0.2631 C   0  0  0  0  0  0  0  0  0  0  0  0
    1.0429    1.8342    0.4139 C   0  0  0  0  0  0  0  0  0  0  0  0
    0.2720    1.0055   -0.4585 O   0  0  0  0  0  0  0  0  0  0  0  0
    0.0632   -0.3200    0.0330 C   0  0  0  0  0  0  0  0  0  0  0  0
   -1.2356   -0.8811   -0.5492 C   0  0  0  0  0  0  0  0  0  0  0  0
   -2.4215   -0.0654   -0.0301 C   0  0  0  0  0  0  0  0  0  0  0  0
   -3.7064   -0.5456   -0.7077 C   0  0  0  0  0  0  0  0  0  0  0  0
   -2.5436   -0.2499    1.4838 C   0  0  0  0  0  0  0  0  0  0  0  0
    1.1583   -1.1508   -0.3576 O   0  0  0  0  0  0  0  0  0  0  0  0
    2.3587   -0.9156    0.3811 C   0  0  0  0  0  0  0  0  0  0  0  0
    3.4076   -1.9608   -0.0039 C   0  0  0  0  0  0  0  0  0  0  0  0
    1.8953    3.8126    0.4023 H   0  0  0  0  0  0  0  0  0  0  0  0
    1.8568    3.0191   -1.1905 H   0  0  0  0  0  0  0  0  0  0  0  0
    0.3581    3.6690   -0.4835 H   0  0  0  0  0  0  0  0  0  0  0  0
    1.9921    1.3457    0.6343 H   0  0  0  0  0  0  0  0  0  0  0  0
    0.4934    1.9956    1.3413 H   0  0  0  0  0  0  0  0  0  0  0  0
   -0.0060   -0.2975    1.1205 H   0  0  0  0  0  0  0  0  0  0  0  0
   -1.2019   -0.8211   -1.6371 H   0  0  0  0  0  0  0  0  0  0  0  0
   -1.3499   -1.9218   -0.2460 H   0  0  0  0  0  0  0  0  0  0  0  0
   -2.2638    0.9892   -0.2560 H   0  0  0  0  0  0  0  0  0  0  0  0
   -3.8641   -1.6002   -0.4817 H   0  0  0  0  0  0  0  0  0  0  0  0
   -4.5512    0.0354   -0.3378 H   0  0  0  0  0  0  0  0  0  0  0  0
   -3.6194   -0.4142   -1.7862 H   0  0  0  0  0  0  0  0  0  0  0  0
   -1.6281    0.0922    1.9666 H   0  0  0  0  0  0  0  0  0  0  0  0
   -3.3884    0.3311    1.8537 H   0  0  0  0  0  0  0  0  0  0  0  0
   -2.7012   -1.3045    1.7098 H   0  0  0  0  0  0  0  0  0  0  0  0
    2.7372    0.0806    0.1518 H   0  0  0  0  0  0  0  0  0  0  0  0
    2.1486   -0.9876    1.4483 H   0  0  0  0  0  0  0  0  0  0  0  0
    3.6177   -1.8887   -1.0710 H   0  0  0  0  0  0  0  0  0  0  0  0
    4.3232   -1.7814    0.5596 H   0  0  0  0  0  0  0  0  0  0  0  0
    3.0291   -2.9569    0.2254 H   0  0  0  0  0  0  0  0  0  0  0  0
  1  2  1  0  0  0  0
  2  3  1  0  0  0  0
  3  4  1  0  0  0  0
  4  5  1  0  0  0  0
  5  6  1  0  0  0  0
  6  7  1  0  0  0  0
  6  8  1  0  0  0  0
  4  9  1  0  0  0  0
  9 10  1  0  0  0  0
 10 11  1  0  0  0  0
  1 12  1  0  0  0  0
  1 13  1  0  0  0  0
  1 14  1  0  0  0  0
  2 15  1  0  0  0  0
  2 16  1  0  0  0  0
  4 17  1  0  0  0  0
  5 18  1  0  0  0  0
  5 19  1  0  0  0  0
  6 20  1  0  0  0  0
  7 21  1  0  0  0  0
  7 22  1  0  0  0  0
  7 23  1  0  0  0  0
  8 24  1  0  0  0  0
  8 25  1  0  0  0  0
  8 26  1  0  0  0  0
 10 27  1  0  0  0  0
 10 28  1  0  0  0  0
 11 29  1  0  0  0  0
 11 30  1  0  0  0  0
 11 31  1  0  0  0  0
M  END
$$$$
