C15H26O
APtclcactv06281817203D 0   0.00000     0.00000
 
 42 43  0  0  0  0  0  0  0  0999 V2000
    0.1161    2.8319    0.2528 C   0  0  0  0  0  0  0  0  0  0  0  0
   -0.0447    1.4202   -0.3150 C   0  0  0  0  0  0  0  0  0  0  0  0
    0.9510    0.4798    0.3669 C   0  0  0  0  0  0  0  0  0  0  0  0
    2.3776    0.9002    0.0080 C   0  0  0  0  0  0  0  0  0  0  0  0
    3.3583   -0.0261    0.6796 C   0  0  0  0  0  0  0  0  0  0  0  0
    4.2570   -0.6577   -0.0341 C   0  0  0  0  0  0  0  0  0  0  0  0
    4.3102   -0.4580   -1.5269 C   0  0  0  0  0  0  0  0  0  0  0  0
    5.2377   -1.5841    0.6375 C   0  0  0  0  0  0  0  0  0  0  0  0
   -1.4701    0.9268   -0.0586 C   0  0  0  0  0  0  0  0  0  0  0  0
   -1.8261    0.5009    1.3807 C   0  0  0  0  0  0  0  0  0  0  0  0
   -2.1479   -1.0095    1.2613 C   0  0  0  0  0  0  0  0  0  0  0  0
   -2.8901   -1.0946   -0.0955 C   0  0  0  0  0  0  0  0  0  0  0  0
   -2.1466   -0.0877   -0.9972 C   0  0  0  0  0  0  0  0  0  0  0  0
   -2.6018    1.3987   -0.9738 C   0  0  0  0  0  0  0  0  0  0  0  0
   -2.7886   -2.5076   -0.6736 C   0  0  0  0  0  0  0  0  0  0  0  0
   -4.2585   -0.7128    0.0581 O   0  0  0  0  0  0  0  0  0  0  0  0
    1.1316    3.1834    0.0701 H   0  0  0  0  0  0  0  0  0  0  0  0
   -0.5932    3.5019   -0.2330 H   0  0  0  0  0  0  0  0  0  0  0  0
   -0.0754    2.8160    1.3257 H   0  0  0  0  0  0  0  0  0  0  0  0
    0.1468    1.4362   -1.3879 H   0  0  0  0  0  0  0  0  0  0  0  0
    0.8179    0.5314    1.4475 H   0  0  0  0  0  0  0  0  0  0  0  0
    0.7770   -0.5414    0.0277 H   0  0  0  0  0  0  0  0  0  0  0  0
    2.5106    0.8487   -1.0726 H   0  0  0  0  0  0  0  0  0  0  0  0
    2.5516    1.9214    0.3471 H   0  0  0  0  0  0  0  0  0  0  0  0
    3.3202   -0.1693    1.7494 H   0  0  0  0  0  0  0  0  0  0  0  0
    4.4914    0.5942   -1.7465 H   0  0  0  0  0  0  0  0  0  0  0  0
    5.1161   -1.0606   -1.9456 H   0  0  0  0  0  0  0  0  0  0  0  0
    3.3614   -0.7630   -1.9683 H   0  0  0  0  0  0  0  0  0  0  0  0
    4.8218   -2.5910    0.6714 H   0  0  0  0  0  0  0  0  0  0  0  0
    6.1710   -1.5953    0.0745 H   0  0  0  0  0  0  0  0  0  0  0  0
    5.4298   -1.2360    1.6524 H   0  0  0  0  0  0  0  0  0  0  0  0
   -0.9774    0.6587    2.0462 H   0  0  0  0  0  0  0  0  0  0  0  0
   -2.6981    1.0498    1.7363 H   0  0  0  0  0  0  0  0  0  0  0  0
   -1.2314   -1.5990    1.2380 H   0  0  0  0  0  0  0  0  0  0  0  0
   -2.7954   -1.3321    2.0767 H   0  0  0  0  0  0  0  0  0  0  0  0
   -1.6294   -0.4835   -1.8713 H   0  0  0  0  0  0  0  0  0  0  0  0
   -3.5616    1.6231   -0.5086 H   0  0  0  0  0  0  0  0  0  0  0  0
   -2.3393    2.0183   -1.8313 H   0  0  0  0  0  0  0  0  0  0  0  0
   -3.2608   -3.2142    0.0090 H   0  0  0  0  0  0  0  0  0  0  0  0
   -3.2935   -2.5423   -1.6390 H   0  0  0  0  0  0  0  0  0  0  0  0
   -1.7393   -2.7729   -0.8026 H   0  0  0  0  0  0  0  0  0  0  0  0
   -4.7593   -1.2784    0.6617 H   0  0  0  0  0  0  0  0  0  0  0  0
  1  2  1  0  0  0  0
  2  3  1  0  0  0  0
  3  4  1  0  0  0  0
  4  5  1  0  0  0  0
  5  6  2  0  0  0  0
  6  7  1  0  0  0  0
  6  8  1  0  0  0  0
  2  9  1  0  0  0  0
  9 10  1  0  0  0  0
 10 11  1  0  0  0  0
 11 12  1  0  0  0  0
 12 13  1  0  0  0  0
  9 13  1  0  0  0  0
 13 14  1  0  0  0  0
  9 14  1  0  0  0  0
 12 15  1  0  0  0  0
 12 16  1  0  0  0  0
  1 17  1  0  0  0  0
  1 18  1  0  0  0  0
  1 19  1  0  0  0  0
  2 20  1  0  0  0  0
  3 21  1  0  0  0  0
  3 22  1  0  0  0  0
  4 23  1  0  0  0  0
  4 24  1  0  0  0  0
  5 25  1  0  0  0  0
  7 26  1  0  0  0  0
  7 27  1  0  0  0  0
  7 28  1  0  0  0  0
  8 29  1  0  0  0  0
  8 30  1  0  0  0  0
  8 31  1  0  0  0  0
 10 32  1  0  0  0  0
 10 33  1  0  0  0  0
 11 34  1  0  0  0  0
 11 35  1  0  0  0  0
 13 36  1  0  0  0  0
 14 37  1  0  0  0  0
 14 38  1  0  0  0  0
 15 39  1  0  0  0  0
 15 40  1  0  0  0  0
 15 41  1  0  0  0  0
 16 42  1  0  0  0  0
M  END
$$$$
