C32H42O
APtclcactv06291802433D 0   0.00000     0.00000
 
 75 74  0  0  0  0  0  0  0  0999 V2000
  -11.7458   -2.9095    1.1570 C   0  0  0  0  0  0  0  0  0  0  0  0
  -12.7875   -2.1029    0.4254 C   0  0  0  0  0  0  0  0  0  0  0  0
  -12.5809   -0.8323    0.1827 C   0  0  0  0  0  0  0  0  0  0  0  0
  -11.2533   -0.2062    0.5241 C   0  0  0  0  0  0  0  0  0  0  0  0
  -10.6744    0.4718   -0.7193 C   0  0  0  0  0  0  0  0  0  0  0  0
   -9.3468    1.0979   -0.3779 C   0  0  0  0  0  0  0  0  0  0  0  0
   -8.2130    0.4276   -0.6068 C   0  0  0  0  0  0  0  0  0  0  0  0
   -6.9645    1.0163   -0.2858 C   0  0  0  0  0  0  0  0  0  0  0  0
   -5.8113    0.3345   -0.5186 C   0  0  0  0  0  0  0  0  0  0  0  0
   -4.5736    0.9182   -0.2003 C   0  0  0  0  0  0  0  0  0  0  0  0
   -3.4150    0.2332   -0.4342 C   0  0  0  0  0  0  0  0  0  0  0  0
   -2.1814    0.8150   -0.1170 C   0  0  0  0  0  0  0  0  0  0  0  0
   -1.0120    0.1236   -0.3531 C   0  0  0  0  0  0  0  0  0  0  0  0
    0.2195    0.7044   -0.0364 C   0  0  0  0  0  0  0  0  0  0  0  0
    1.3904    0.0121   -0.2728 C   0  0  0  0  0  0  0  0  0  0  0  0
    2.6207    0.5923    0.0436 C   0  0  0  0  0  0  0  0  0  0  0  0
    3.7925   -0.1005   -0.1930 C   0  0  0  0  0  0  0  0  0  0  0  0
    5.0220    0.4793    0.1231 C   0  0  0  0  0  0  0  0  0  0  0  0
    6.1945   -0.2139   -0.1136 C   0  0  0  0  0  0  0  0  0  0  0  0
    6.1449   -1.5957   -0.7130 C   0  0  0  0  0  0  0  0  0  0  0  0
    7.4234    0.3657    0.2025 C   0  0  0  0  0  0  0  0  0  0  0  0
    8.5963   -0.3278   -0.0343 C   0  0  0  0  0  0  0  0  0  0  0  0
    9.8249    0.2516    0.2816 C   0  0  0  0  0  0  0  0  0  0  0  0
   10.9981   -0.4420    0.0447 C   0  0  0  0  0  0  0  0  0  0  0  0
   10.9485   -1.8238   -0.5547 C   0  0  0  0  0  0  0  0  0  0  0  0
   12.2264    0.1373    0.3606 C   0  0  0  0  0  0  0  0  0  0  0  0
   13.3998   -0.5564    0.1237 C   0  0  0  0  0  0  0  0  0  0  0  0
   14.6280    0.0228    0.4396 C   0  0  0  0  0  0  0  0  0  0  0  0
   15.6600   -0.5874    0.2312 O   0  0  0  0  0  0  0  0  0  0  0  0
    0.2690    2.0862    0.5630 C   0  0  0  0  0  0  0  0  0  0  0  0
   -4.5241    2.3000    0.3991 C   0  0  0  0  0  0  0  0  0  0  0  0
   -9.2973    2.4797    0.2215 C   0  0  0  0  0  0  0  0  0  0  0  0
  -14.0670   -2.7581   -0.0272 C   0  0  0  0  0  0  0  0  0  0  0  0
  -11.5126   -2.4264    2.1059 H   0  0  0  0  0  0  0  0  0  0  0  0
  -12.1287   -3.9127    1.3446 H   0  0  0  0  0  0  0  0  0  0  0  0
  -10.8428   -2.9728    0.5499 H   0  0  0  0  0  0  0  0  0  0  0  0
  -13.3619   -0.2335   -0.2620 H   0  0  0  0  0  0  0  0  0  0  0  0
  -11.3929    0.5354    1.3106 H   0  0  0  0  0  0  0  0  0  0  0  0
  -10.5659   -0.9780    0.8704 H   0  0  0  0  0  0  0  0  0  0  0  0
  -10.5348   -0.2698   -1.5058 H   0  0  0  0  0  0  0  0  0  0  0  0
  -11.3618    1.2436   -1.0655 H   0  0  0  0  0  0  0  0  0  0  0  0
   -8.2485   -0.5627   -1.0364 H   0  0  0  0  0  0  0  0  0  0  0  0
   -6.9290    2.0066    0.1438 H   0  0  0  0  0  0  0  0  0  0  0  0
   -5.8468   -0.6557   -0.9482 H   0  0  0  0  0  0  0  0  0  0  0  0
   -3.4505   -0.7571   -0.8638 H   0  0  0  0  0  0  0  0  0  0  0  0
   -2.1459    1.8052    0.3126 H   0  0  0  0  0  0  0  0  0  0  0  0
   -1.0475   -0.8666   -0.7827 H   0  0  0  0  0  0  0  0  0  0  0  0
    1.3549   -0.9781   -0.7024 H   0  0  0  0  0  0  0  0  0  0  0  0
    2.6562    1.5826    0.4732 H   0  0  0  0  0  0  0  0  0  0  0  0
    3.7570   -1.0908   -0.6226 H   0  0  0  0  0  0  0  0  0  0  0  0
    5.0575    1.4696    0.5527 H   0  0  0  0  0  0  0  0  0  0  0  0
    6.1834   -1.5218   -1.7998 H   0  0  0  0  0  0  0  0  0  0  0  0
    6.9962   -2.1765   -0.3580 H   0  0  0  0  0  0  0  0  0  0  0  0
    5.2194   -2.0881   -0.4148 H   0  0  0  0  0  0  0  0  0  0  0  0
    7.4589    1.3559    0.6320 H   0  0  0  0  0  0  0  0  0  0  0  0
    8.5608   -1.3180   -0.4639 H   0  0  0  0  0  0  0  0  0  0  0  0
    9.8604    1.2419    0.7112 H   0  0  0  0  0  0  0  0  0  0  0  0
   10.9870   -1.7499   -1.6415 H   0  0  0  0  0  0  0  0  0  0  0  0
   11.7998   -2.4046   -0.1996 H   0  0  0  0  0  0  0  0  0  0  0  0
   10.0230   -2.3162   -0.2565 H   0  0  0  0  0  0  0  0  0  0  0  0
   12.2619    1.1276    0.7902 H   0  0  0  0  0  0  0  0  0  0  0  0
   13.3643   -1.5467   -0.3059 H   0  0  0  0  0  0  0  0  0  0  0  0
   14.6635    1.0131    0.8691 H   0  0  0  0  0  0  0  0  0  0  0  0
    0.2306    2.0123    1.6498 H   0  0  0  0  0  0  0  0  0  0  0  0
    1.1946    2.5786    0.2648 H   0  0  0  0  0  0  0  0  0  0  0  0
   -0.5823    2.6670    0.2080 H   0  0  0  0  0  0  0  0  0  0  0  0
   -4.5625    2.2262    1.4859 H   0  0  0  0  0  0  0  0  0  0  0  0
   -3.5985    2.7924    0.1009 H   0  0  0  0  0  0  0  0  0  0  0  0
   -5.3754    2.8808    0.0441 H   0  0  0  0  0  0  0  0  0  0  0  0
   -9.3357    2.4058    1.3083 H   0  0  0  0  0  0  0  0  0  0  0  0
   -8.3717    2.9721   -0.0767 H   0  0  0  0  0  0  0  0  0  0  0  0
  -10.1486    3.0605   -0.1335 H   0  0  0  0  0  0  0  0  0  0  0  0
  -14.8167   -2.6732    0.7595 H   0  0  0  0  0  0  0  0  0  0  0  0
  -14.4290   -2.2641   -0.9288 H   0  0  0  0  0  0  0  0  0  0  0  0
  -13.8808   -3.8109   -0.2395 H   0  0  0  0  0  0  0  0  0  0  0  0
  1  2  1  0  0  0  0
  2  3  2  0  0  0  0
  3  4  1  0  0  0  0
  4  5  1  0  0  0  0
  5  6  1  0  0  0  0
  6  7  2  0  0  0  0
  7  8  1  0  0  0  0
  8  9  2  0  0  0  0
  9 10  1  0  0  0  0
 10 11  2  0  0  0  0
 11 12  1  0  0  0  0
 12 13  2  0  0  0  0
 13 14  1  0  0  0  0
 14 15  2  0  0  0  0
 15 16  1  0  0  0  0
 16 17  2  0  0  0  0
 17 18  1  0  0  0  0
 18 19  2  0  0  0  0
 19 20  1  0  0  0  0
 19 21  1  0  0  0  0
 21 22  2  0  0  0  0
 22 23  1  0  0  0  0
 23 24  2  0  0  0  0
 24 25  1  0  0  0  0
 24 26  1  0  0  0  0
 26 27  2  0  0  0  0
 27 28  1  0  0  0  0
 28 29  2  0  0  0  0
 14 30  1  0  0  0  0
 10 31  1  0  0  0  0
  6 32  1  0  0  0  0
  2 33  1  0  0  0  0
  1 34  1  0  0  0  0
  1 35  1  0  0  0  0
  1 36  1  0  0  0  0
  3 37  1  0  0  0  0
  4 38  1  0  0  0  0
  4 39  1  0  0  0  0
  5 40  1  0  0  0  0
  5 41  1  0  0  0  0
  7 42  1  0  0  0  0
  8 43  1  0  0  0  0
  9 44  1  0  0  0  0
 11 45  1  0  0  0  0
 12 46  1  0  0  0  0
 13 47  1  0  0  0  0
 15 48  1  0  0  0  0
 16 49  1  0  0  0  0
 17 50  1  0  0  0  0
 18 51  1  0  0  0  0
 20 52  1  0  0  0  0
 20 53  1  0  0  0  0
 20 54  1  0  0  0  0
 21 55  1  0  0  0  0
 22 56  1  0  0  0  0
 23 57  1  0  0  0  0
 25 58  1  0  0  0  0
 25 59  1  0  0  0  0
 25 60  1  0  0  0  0
 26 61  1  0  0  0  0
 27 62  1  0  0  0  0
 28 63  1  0  0  0  0
 30 64  1  0  0  0  0
 30 65  1  0  0  0  0
 30 66  1  0  0  0  0
 31 67  1  0  0  0  0
 31 68  1  0  0  0  0
 31 69  1  0  0  0  0
 32 70  1  0  0  0  0
 32 71  1  0  0  0  0
 32 72  1  0  0  0  0
 33 73  1  0  0  0  0
 33 74  1  0  0  0  0
 33 75  1  0  0  0  0
M  END
$$$$
