C40H56O4
APtclcactv06291802433D 0   0.00000     0.00000
 
100 99  0  0  0  0  0  0  0  0999 V2000
   18.9946   -0.9694   -0.0000 C   0  0  0  0  0  0  0  0  0  0  0  0
   17.6936   -0.2088    0.0000 C   0  0  0  0  0  0  0  0  0  0  0  0
   17.7002    0.9988    0.0000 O   0  0  0  0  0  0  0  0  0  0  0  0
   16.3844   -0.9552   -0.0000 C   0  0  0  0  0  0  0  0  0  0  0  0
   15.2269    0.0454    0.0000 C   0  0  0  0  0  0  0  0  0  0  0  0
   13.8978   -0.7124   -0.0000 C   0  0  0  0  0  0  0  0  0  0  0  0
   12.7403    0.2882    0.0000 C   0  0  0  0  0  0  0  0  0  0  0  0
   12.8261    1.1673    1.2492 C   0  0  0  0  0  0  0  0  0  0  0  0
   12.8261    1.1673   -1.2492 C   0  0  0  0  0  0  0  0  0  0  0  0
   11.4311   -0.4582   -0.0000 C   0  0  0  0  0  0  0  0  0  0  0  0
   11.4245   -1.6743   -0.0000 O   0  0  0  0  0  0  0  0  0  0  0  0
   10.2230    0.2481    0.0000 C   0  0  0  0  0  0  0  0  0  0  0  0
    9.0251   -0.4349   -0.0000 C   0  0  0  0  0  0  0  0  0  0  0  0
    7.8170    0.2714    0.0000 C   0  0  0  0  0  0  0  0  0  0  0  0
    6.6191   -0.4115   -0.0000 C   0  0  0  0  0  0  0  0  0  0  0  0
    5.4110    0.2948   -0.0000 C   0  0  0  0  0  0  0  0  0  0  0  0
    4.2131   -0.3882   -0.0000 C   0  0  0  0  0  0  0  0  0  0  0  0
    3.0050    0.3181   -0.0000 C   0  0  0  0  0  0  0  0  0  0  0  0
    1.8071   -0.3648   -0.0000 C   0  0  0  0  0  0  0  0  0  0  0  0
    0.5990    0.3415   -0.0000 C   0  0  0  0  0  0  0  0  0  0  0  0
   -0.5990   -0.3415   -0.0000 C   0  0  0  0  0  0  0  0  0  0  0  0
   -1.8071    0.3648   -0.0000 C   0  0  0  0  0  0  0  0  0  0  0  0
   -3.0050   -0.3181   -0.0000 C   0  0  0  0  0  0  0  0  0  0  0  0
   -3.0132   -1.8251   -0.0000 C   0  0  0  0  0  0  0  0  0  0  0  0
   -4.2131    0.3882   -0.0000 C   0  0  0  0  0  0  0  0  0  0  0  0
   -5.4110   -0.2948   -0.0000 C   0  0  0  0  0  0  0  0  0  0  0  0
   -6.6191    0.4115   -0.0000 C   0  0  0  0  0  0  0  0  0  0  0  0
   -7.8170   -0.2714   -0.0000 C   0  0  0  0  0  0  0  0  0  0  0  0
   -7.8252   -1.7784    0.0000 C   0  0  0  0  0  0  0  0  0  0  0  0
   -9.0251    0.4349   -0.0000 C   0  0  0  0  0  0  0  0  0  0  0  0
  -10.2230   -0.2481    0.0000 C   0  0  0  0  0  0  0  0  0  0  0  0
  -11.4311    0.4582   -0.0000 C   0  0  0  0  0  0  0  0  0  0  0  0
  -11.4245    1.6743   -0.0000 O   0  0  0  0  0  0  0  0  0  0  0  0
  -12.7403   -0.2882    0.0000 C   0  0  0  0  0  0  0  0  0  0  0  0
  -12.8261   -1.1673   -1.2492 C   0  0  0  0  0  0  0  0  0  0  0  0
  -12.8261   -1.1673    1.2492 C   0  0  0  0  0  0  0  0  0  0  0  0
  -13.8978    0.7124   -0.0000 C   0  0  0  0  0  0  0  0  0  0  0  0
  -15.2269   -0.0454    0.0000 C   0  0  0  0  0  0  0  0  0  0  0  0
  -16.3844    0.9552   -0.0000 C   0  0  0  0  0  0  0  0  0  0  0  0
  -17.6936    0.2088    0.0000 C   0  0  0  0  0  0  0  0  0  0  0  0
  -17.7002   -0.9988    0.0000 O   0  0  0  0  0  0  0  0  0  0  0  0
  -18.9946    0.9694   -0.0000 C   0  0  0  0  0  0  0  0  0  0  0  0
    3.0132    1.8251   -0.0000 C   0  0  0  0  0  0  0  0  0  0  0  0
    7.8252    1.7784    0.0000 C   0  0  0  0  0  0  0  0  0  0  0  0
   19.8269   -0.2656    0.0000 H   0  0  0  0  0  0  0  0  0  0  0  0
   19.0489   -1.5964    0.8900 H   0  0  0  0  0  0  0  0  0  0  0  0
   19.0489   -1.5964   -0.8900 H   0  0  0  0  0  0  0  0  0  0  0  0
   16.3233   -1.5815   -0.8900 H   0  0  0  0  0  0  0  0  0  0  0  0
   16.3233   -1.5815    0.8900 H   0  0  0  0  0  0  0  0  0  0  0  0
   15.2881    0.6717    0.8900 H   0  0  0  0  0  0  0  0  0  0  0  0
   15.2881    0.6717   -0.8900 H   0  0  0  0  0  0  0  0  0  0  0  0
   13.8366   -1.3387   -0.8900 H   0  0  0  0  0  0  0  0  0  0  0  0
   13.8366   -1.3387    0.8900 H   0  0  0  0  0  0  0  0  0  0  0  0
   13.7730    1.7072    1.2492 H   0  0  0  0  0  0  0  0  0  0  0  0
   12.0015    1.8801    1.2492 H   0  0  0  0  0  0  0  0  0  0  0  0
   12.7650    0.5410    2.1392 H   0  0  0  0  0  0  0  0  0  0  0  0
   12.7650    0.5410   -2.1392 H   0  0  0  0  0  0  0  0  0  0  0  0
   12.0015    1.8801   -1.2492 H   0  0  0  0  0  0  0  0  0  0  0  0
   13.7730    1.7072   -1.2492 H   0  0  0  0  0  0  0  0  0  0  0  0
   10.2289    1.3281    0.0000 H   0  0  0  0  0  0  0  0  0  0  0  0
    9.0192   -1.5149   -0.0000 H   0  0  0  0  0  0  0  0  0  0  0  0
    6.6132   -1.4915   -0.0000 H   0  0  0  0  0  0  0  0  0  0  0  0
    5.4169    1.3747    0.0000 H   0  0  0  0  0  0  0  0  0  0  0  0
    4.2072   -1.4682   -0.0000 H   0  0  0  0  0  0  0  0  0  0  0  0
    1.8012   -1.4448   -0.0000 H   0  0  0  0  0  0  0  0  0  0  0  0
    0.6048    1.4215   -0.0000 H   0  0  0  0  0  0  0  0  0  0  0  0
   -0.6048   -1.4215   -0.0000 H   0  0  0  0  0  0  0  0  0  0  0  0
   -1.8012    1.4448   -0.0000 H   0  0  0  0  0  0  0  0  0  0  0  0
   -3.0152   -2.1884    1.0277 H   0  0  0  0  0  0  0  0  0  0  0  0
   -3.9051   -2.1836   -0.5138 H   0  0  0  0  0  0  0  0  0  0  0  0
   -2.1252   -2.1933   -0.5138 H   0  0  0  0  0  0  0  0  0  0  0  0
   -4.2072    1.4682   -0.0000 H   0  0  0  0  0  0  0  0  0  0  0  0
   -5.4169   -1.3747    0.0000 H   0  0  0  0  0  0  0  0  0  0  0  0
   -6.6132    1.4915   -0.0000 H   0  0  0  0  0  0  0  0  0  0  0  0
   -7.8272   -2.1417    1.0277 H   0  0  0  0  0  0  0  0  0  0  0  0
   -8.7172   -2.1369   -0.5138 H   0  0  0  0  0  0  0  0  0  0  0  0
   -6.9372   -2.1466   -0.5138 H   0  0  0  0  0  0  0  0  0  0  0  0
   -9.0192    1.5149   -0.0000 H   0  0  0  0  0  0  0  0  0  0  0  0
  -10.2289   -1.3281    0.0000 H   0  0  0  0  0  0  0  0  0  0  0  0
  -12.0015   -1.8801   -1.2492 H   0  0  0  0  0  0  0  0  0  0  0  0
  -13.7730   -1.7072   -1.2492 H   0  0  0  0  0  0  0  0  0  0  0  0
  -12.7650   -0.5410   -2.1392 H   0  0  0  0  0  0  0  0  0  0  0  0
  -12.7650   -0.5410    2.1392 H   0  0  0  0  0  0  0  0  0  0  0  0
  -13.7730   -1.7072    1.2492 H   0  0  0  0  0  0  0  0  0  0  0  0
  -12.0015   -1.8801    1.2492 H   0  0  0  0  0  0  0  0  0  0  0  0
  -13.8366    1.3387    0.8900 H   0  0  0  0  0  0  0  0  0  0  0  0
  -13.8366    1.3387   -0.8900 H   0  0  0  0  0  0  0  0  0  0  0  0
  -15.2881   -0.6717   -0.8900 H   0  0  0  0  0  0  0  0  0  0  0  0
  -15.2881   -0.6717    0.8900 H   0  0  0  0  0  0  0  0  0  0  0  0
  -16.3233    1.5815    0.8900 H   0  0  0  0  0  0  0  0  0  0  0  0
  -16.3233    1.5815   -0.8900 H   0  0  0  0  0  0  0  0  0  0  0  0
  -18.7896    2.0399   -0.0000 H   0  0  0  0  0  0  0  0  0  0  0  0
  -19.5676    0.7092   -0.8900 H   0  0  0  0  0  0  0  0  0  0  0  0
  -19.5676    0.7092    0.8900 H   0  0  0  0  0  0  0  0  0  0  0  0
    3.0152    2.1884   -1.0277 H   0  0  0  0  0  0  0  0  0  0  0  0
    2.1252    2.1933    0.5138 H   0  0  0  0  0  0  0  0  0  0  0  0
    3.9051    2.1836    0.5138 H   0  0  0  0  0  0  0  0  0  0  0  0
    7.8272    2.1417   -1.0277 H   0  0  0  0  0  0  0  0  0  0  0  0
    6.9372    2.1466    0.5138 H   0  0  0  0  0  0  0  0  0  0  0  0
    8.7172    2.1369    0.5138 H   0  0  0  0  0  0  0  0  0  0  0  0
  1  2  1  0  0  0  0
  2  3  2  0  0  0  0
  2  4  1  0  0  0  0
  4  5  1  0  0  0  0
  5  6  1  0  0  0  0
  6  7  1  0  0  0  0
  7  8  1  0  0  0  0
  7  9  1  0  0  0  0
  7 10  1  0  0  0  0
 10 11  2  0  0  0  0
 10 12  1  0  0  0  0
 12 13  2  0  0  0  0
 13 14  1  0  0  0  0
 14 15  2  0  0  0  0
 15 16  1  0  0  0  0
 16 17  2  0  0  0  0
 17 18  1  0  0  0  0
 18 19  2  0  0  0  0
 19 20  1  0  0  0  0
 20 21  2  0  0  0  0
 21 22  1  0  0  0  0
 22 23  2  0  0  0  0
 23 24  1  0  0  0  0
 23 25  1  0  0  0  0
 25 26  2  0  0  0  0
 26 27  1  0  0  0  0
 27 28  2  0  0  0  0
 28 29  1  0  0  0  0
 28 30  1  0  0  0  0
 30 31  2  0  0  0  0
 31 32  1  0  0  0  0
 32 33  2  0  0  0  0
 32 34  1  0  0  0  0
 34 35  1  0  0  0  0
 34 36  1  0  0  0  0
 34 37  1  0  0  0  0
 37 38  1  0  0  0  0
 38 39  1  0  0  0  0
 39 40  1  0  0  0  0
 40 41  2  0  0  0  0
 40 42  1  0  0  0  0
 18 43  1  0  0  0  0
 14 44  1  0  0  0  0
  1 45  1  0  0  0  0
  1 46  1  0  0  0  0
  1 47  1  0  0  0  0
  4 48  1  0  0  0  0
  4 49  1  0  0  0  0
  5 50  1  0  0  0  0
  5 51  1  0  0  0  0
  6 52  1  0  0  0  0
  6 53  1  0  0  0  0
  8 54  1  0  0  0  0
  8 55  1  0  0  0  0
  8 56  1  0  0  0  0
  9 57  1  0  0  0  0
  9 58  1  0  0  0  0
  9 59  1  0  0  0  0
 12 60  1  0  0  0  0
 13 61  1  0  0  0  0
 15 62  1  0  0  0  0
 16 63  1  0  0  0  0
 17 64  1  0  0  0  0
 19 65  1  0  0  0  0
 20 66  1  0  0  0  0
 21 67  1  0  0  0  0
 22 68  1  0  0  0  0
 24 69  1  0  0  0  0
 24 70  1  0  0  0  0
 24 71  1  0  0  0  0
 25 72  1  0  0  0  0
 26 73  1  0  0  0  0
 27 74  1  0  0  0  0
 29 75  1  0  0  0  0
 29 76  1  0  0  0  0
 29 77  1  0  0  0  0
 30 78  1  0  0  0  0
 31 79  1  0  0  0  0
 35 80  1  0  0  0  0
 35 81  1  0  0  0  0
 35 82  1  0  0  0  0
 36 83  1  0  0  0  0
 36 84  1  0  0  0  0
 36 85  1  0  0  0  0
 37 86  1  0  0  0  0
 37 87  1  0  0  0  0
 38 88  1  0  0  0  0
 38 89  1  0  0  0  0
 39 90  1  0  0  0  0
 39 91  1  0  0  0  0
 42 92  1  0  0  0  0
 42 93  1  0  0  0  0
 42 94  1  0  0  0  0
 43 95  1  0  0  0  0
 43 96  1  0  0  0  0
 43 97  1  0  0  0  0
 44 98  1  0  0  0  0
 44 99  1  0  0  0  0
 44100  1  0  0  0  0
M  END
$$$$
