C6H6O
APtclcactv06291802433D 0   0.00000     0.00000
 
 13 12  0  0  0  0  0  0  0  0999 V2000
  -10.8117   -3.6225   -2.3498 H   0  3  0  0  0  0  0  0  0  0  0  0
   -1.5145    0.8354    0.2258 C   0  0  0  0  0  0  0  0  0  0  0  0
   -1.3831   -0.5274    0.4193 C   0  0  0  0  0  0  0  0  0  0  0  0
   -0.1502   -1.1319    0.2683 C   0  0  0  0  0  0  0  0  0  0  0  0
    0.9567   -0.3705   -0.0778 C   0  0  0  0  0  0  0  0  0  0  0  0
    0.8222    0.9966   -0.2713 C   0  0  0  0  0  0  0  0  0  0  0  0
   -0.4129    1.5964   -0.1190 C   0  0  0  0  0  0  0  0  0  0  0  0
    2.1708   -0.9628   -0.2265 O   0  5  0  0  0  0  0  0  0  0  0  0
   -2.4801    1.3054    0.3400 H   0  0  0  0  0  0  0  0  0  0  0  0
   -2.2450   -1.1196    0.6890 H   0  0  0  0  0  0  0  0  0  0  0  0
   -0.0480   -2.1964    0.4198 H   0  0  0  0  0  0  0  0  0  0  0  0
    1.6825    1.5916   -0.5403 H   0  0  0  0  0  0  0  0  0  0  0  0
   -0.5181    2.6607   -0.2695 H   0  0  0  0  0  0  0  0  0  0  0  0
  2  3  2  0  0  0  0
  3  4  1  0  0  0  0
  4  5  2  0  0  0  0
  5  6  1  0  0  0  0
  6  7  2  0  0  0  0
  2  7  1  0  0  0  0
  5  8  1  0  0  0  0
  2  9  1  0  0  0  0
  3 10  1  0  0  0  0
  4 11  1  0  0  0  0
  6 12  1  0  0  0  0
  7 13  1  0  0  0  0
M  CHG  2   1   1   8  -1
M  END
$$$$
