C12H13NO2
APtclcactv06211806113D 0   0.00000     0.00000
 
 28 29  0  0  0  0  0  0  0  0999 V2000
    2.7513    2.1347   -0.0009 C   0  0  0  0  0  0  0  0  0  0  0  0
    2.3884    0.6720   -0.0005 C   0  0  0  0  0  0  0  0  0  0  0  0
    3.3331   -0.2396   -0.0007 N   0  0  0  0  0  0  0  0  0  0  0  0
    3.0754   -1.5406   -0.0004 C   0  0  0  0  0  0  0  0  0  0  0  0
    1.8014   -2.0210   -0.0004 C   0  0  0  0  0  0  0  0  0  0  0  0
    0.7338   -1.1042   -0.0002 C   0  0  0  0  0  0  0  0  0  0  0  0
   -0.6047   -1.5196   -0.0003 C   0  0  0  0  0  0  0  0  0  0  0  0
   -1.5999   -0.5838    0.0000 C   0  0  0  0  0  0  0  0  0  0  0  0
   -1.2989    0.7866   -0.0001 C   0  0  0  0  0  0  0  0  0  0  0  0
   -0.0048    1.2203   -0.0006 C   0  0  0  0  0  0  0  0  0  0  0  0
    1.0398    0.2825    0.0059 C   0  0  0  0  0  0  0  0  0  0  0  0
   -2.3102    1.6950   -0.0002 O   0  0  0  0  0  0  0  0  0  0  0  0
   -1.9420    3.0758   -0.0004 C   0  0  0  0  0  0  0  0  0  0  0  0
   -2.8980   -0.9854   -0.0000 O   0  0  0  0  0  0  0  0  0  0  0  0
   -3.1416   -2.3935   -0.0004 C   0  0  0  0  0  0  0  0  0  0  0  0
    2.8384    2.4872   -1.0286 H   0  0  0  0  0  0  0  0  0  0  0  0
    1.9751    2.7017    0.5132 H   0  0  0  0  0  0  0  0  0  0  0  0
    3.7027    2.2731    0.5126 H   0  0  0  0  0  0  0  0  0  0  0  0
    3.8995   -2.2387   -0.0006 H   0  0  0  0  0  0  0  0  0  0  0  0
    1.6139   -3.0846   -0.0009 H   0  0  0  0  0  0  0  0  0  0  0  0
   -0.8476   -2.5719   -0.0009 H   0  0  0  0  0  0  0  0  0  0  0  0
    0.2141    2.2779   -0.0011 H   0  0  0  0  0  0  0  0  0  0  0  0
   -1.3519    3.2944   -0.8903 H   0  0  0  0  0  0  0  0  0  0  0  0
   -2.8414    3.6916   -0.0004 H   0  0  0  0  0  0  0  0  0  0  0  0
   -1.3520    3.2945    0.8896 H   0  0  0  0  0  0  0  0  0  0  0  0
   -4.2161   -2.5764   -0.0003 H   0  0  0  0  0  0  0  0  0  0  0  0
   -2.6972   -2.8388   -0.8905 H   0  0  0  0  0  0  0  0  0  0  0  0
   -2.6971   -2.8393    0.8895 H   0  0  0  0  0  0  0  0  0  0  0  0
  1  2  1  0  0  0  0
  2  3  2  0  0  0  0
  3  4  1  0  0  0  0
  4  5  2  0  0  0  0
  5  6  1  0  0  0  0
  6  7  2  0  0  0  0
  7  8  1  0  0  0  0
  8  9  2  0  0  0  0
  9 10  1  0  0  0  0
 10 11  2  0  0  0  0
  2 11  1  0  0  0  0
  6 11  1  0  0  0  0
  9 12  1  0  0  0  0
 12 13  1  0  0  0  0
  8 14  1  0  0  0  0
 14 15  1  0  0  0  0
  1 16  1  0  0  0  0
  1 17  1  0  0  0  0
  1 18  1  0  0  0  0
  4 19  1  0  0  0  0
  5 20  1  0  0  0  0
  7 21  1  0  0  0  0
 10 22  1  0  0  0  0
 13 23  1  0  0  0  0
 13 24  1  0  0  0  0
 13 25  1  0  0  0  0
 15 26  1  0  0  0  0
 15 27  1  0  0  0  0
 15 28  1  0  0  0  0
M  END
$$$$
