C12H20O2
APtclcactv06211806123D 0   0.00000     0.00000
 
 34 34  0  0  0  0  0  0  0  0999 V2000
    3.8990    0.7035   -0.0066 C   0  0  0  0  0  0  0  0  0  0  0  0
    2.5226    0.0966    0.0838 C   0  0  0  0  0  0  0  0  0  0  0  0
    1.8141    0.3531    1.1363 C   0  0  0  0  0  0  0  0  0  0  0  0
    0.4335   -0.1856    1.3723 C   0  0  0  0  0  0  0  0  0  0  0  0
   -0.1636   -0.6984    0.0600 C   0  0  0  0  0  0  0  0  0  0  0  0
    0.8635   -1.6168   -0.6142 C   0  0  0  0  0  0  0  0  0  0  0  0
    2.0563   -0.7626   -1.0548 C   0  0  0  0  0  0  0  0  0  0  0  0
   -1.4440   -1.4842    0.3498 C   0  0  0  0  0  0  0  0  0  0  0  0
   -2.3891   -0.6261    1.1931 C   0  0  0  0  0  0  0  0  0  0  0  0
   -2.1275   -1.8501   -0.9692 C   0  0  0  0  0  0  0  0  0  0  0  0
   -0.4616    0.4237   -0.8120 O   0  0  0  0  0  0  0  0  0  0  0  0
   -1.2029    1.4165   -0.2958 C   0  0  0  0  0  0  0  0  0  0  0  0
   -1.4894    1.4090    0.8779 O   0  0  0  0  0  0  0  0  0  0  0  0
   -1.6776    2.5406   -1.1802 C   0  0  0  0  0  0  0  0  0  0  0  0
    4.0923    1.3001    0.8850 H   0  0  0  0  0  0  0  0  0  0  0  0
    4.6421   -0.0905   -0.0805 H   0  0  0  0  0  0  0  0  0  0  0  0
    3.9582    1.3400   -0.8895 H   0  0  0  0  0  0  0  0  0  0  0  0
    2.2434    0.9944    1.8918 H   0  0  0  0  0  0  0  0  0  0  0  0
    0.4828   -1.0038    2.0908 H   0  0  0  0  0  0  0  0  0  0  0  0
   -0.1998    0.6062    1.7723 H   0  0  0  0  0  0  0  0  0  0  0  0
    1.1944   -2.3777    0.0927 H   0  0  0  0  0  0  0  0  0  0  0  0
    0.4134   -2.0927   -1.4854 H   0  0  0  0  0  0  0  0  0  0  0  0
    1.7593   -0.1321   -1.8927 H   0  0  0  0  0  0  0  0  0  0  0  0
    2.8719   -1.4148   -1.3673 H   0  0  0  0  0  0  0  0  0  0  0  0
   -1.1959   -2.3947    0.8953 H   0  0  0  0  0  0  0  0  0  0  0  0
   -3.1963   -1.2478    1.5804 H   0  0  0  0  0  0  0  0  0  0  0  0
   -1.8373   -0.1876    2.0246 H   0  0  0  0  0  0  0  0  0  0  0  0
   -2.8071    0.1686    0.5752 H   0  0  0  0  0  0  0  0  0  0  0  0
   -1.4541   -2.4615   -1.5700 H   0  0  0  0  0  0  0  0  0  0  0  0
   -3.0397   -2.4099   -0.7627 H   0  0  0  0  0  0  0  0  0  0  0  0
   -2.3756   -0.9396   -1.5146 H   0  0  0  0  0  0  0  0  0  0  0  0
   -2.6476    2.2833   -1.6057 H   0  0  0  0  0  0  0  0  0  0  0  0
   -1.7700    3.4527   -0.5905 H   0  0  0  0  0  0  0  0  0  0  0  0
   -0.9587    2.6989   -1.9841 H   0  0  0  0  0  0  0  0  0  0  0  0
  1  2  1  0  0  0  0
  2  3  2  0  0  0  0
  3  4  1  0  0  0  0
  4  5  1  0  0  0  0
  5  6  1  0  0  0  0
  6  7  1  0  0  0  0
  2  7  1  0  0  0  0
  5  8  1  0  0  0  0
  8  9  1  0  0  0  0
  8 10  1  0  0  0  0
  5 11  1  0  0  0  0
 11 12  1  0  0  0  0
 12 13  2  0  0  0  0
 12 14  1  0  0  0  0
  1 15  1  0  0  0  0
  1 16  1  0  0  0  0
  1 17  1  0  0  0  0
  3 18  1  0  0  0  0
  4 19  1  0  0  0  0
  4 20  1  0  0  0  0
  6 21  1  0  0  0  0
  6 22  1  0  0  0  0
  7 23  1  0  0  0  0
  7 24  1  0  0  0  0
  8 25  1  0  0  0  0
  9 26  1  0  0  0  0
  9 27  1  0  0  0  0
  9 28  1  0  0  0  0
 10 29  1  0  0  0  0
 10 30  1  0  0  0  0
 10 31  1  0  0  0  0
 14 32  1  0  0  0  0
 14 33  1  0  0  0  0
 14 34  1  0  0  0  0
M  END
$$$$
