C15H24
APtclcactv06291802433D 0   0.00000     0.00000
 
 39 40  0  0  0  0  0  0  0  0999 V2000
    2.4186   -1.2355   -1.3727 C   0  0  0  0  0  0  0  0  0  0  0  0
    1.5814   -1.3669   -0.1486 C   0  0  0  0  0  0  0  0  0  0  0  0
    1.6942   -0.7110    0.9358 C   0  0  0  0  0  0  0  0  0  0  0  0
    2.7540    0.2738    1.1171 C   0  0  0  0  0  0  0  0  0  0  0  0
    2.1844    1.7104    0.8782 C   0  0  0  0  0  0  0  0  0  0  0  0
    0.9711    1.5154   -0.1185 C   0  0  0  0  0  0  0  0  0  0  0  0
   -0.0805    1.0221    0.3740 C   0  0  0  0  0  0  0  0  0  0  0  0
   -1.2873    0.6192   -0.5442 C   0  0  0  0  0  0  0  0  0  0  0  0
   -1.6232   -0.8757   -0.5771 C   0  0  0  0  0  0  0  0  0  0  0  0
   -2.5330    0.2174    0.0439 C   0  0  0  0  0  0  0  0  0  0  0  0
   -2.6973    0.2570    1.6197 C   0  0  0  0  0  0  0  0  0  0  0  0
   -3.8269    0.5730   -0.7270 C   0  0  0  0  0  0  0  0  0  0  0  0
   -0.9319   -1.7598    0.4231 C   0  0  0  0  0  0  0  0  0  0  0  0
    0.3635   -2.3031   -0.2532 C   0  0  0  0  0  0  0  0  0  0  0  0
    1.1303    2.0189   -1.5432 C   0  0  0  0  0  0  0  0  0  0  0  0
    3.1768   -0.4688   -1.2138 H   0  0  0  0  0  0  0  0  0  0  0  0
    2.9040   -2.1881   -1.5850 H   0  0  0  0  0  0  0  0  0  0  0  0
    1.7878   -0.9534   -2.2157 H   0  0  0  0  0  0  0  0  0  0  0  0
    1.0607   -0.9468    1.8556 H   0  0  0  0  0  0  0  0  0  0  0  0
    3.1205    0.2989    2.1649 H   0  0  0  0  0  0  0  0  0  0  0  0
    3.5768    0.1462    0.4401 H   0  0  0  0  0  0  0  0  0  0  0  0
    1.8469    2.1040    1.7429 H   0  0  0  0  0  0  0  0  0  0  0  0
    2.9415    2.3435    0.4223 H   0  0  0  0  0  0  0  0  0  0  0  0
   -0.1222    0.7959    1.4052 H   0  0  0  0  0  0  0  0  0  0  0  0
   -1.3166    1.1462   -1.4484 H   0  0  0  0  0  0  0  0  0  0  0  0
   -1.8940   -1.2619   -1.4594 H   0  0  0  0  0  0  0  0  0  0  0  0
   -1.7225    0.4094    2.0830 H   0  0  0  0  0  0  0  0  0  0  0  0
   -3.3625    1.0754    1.8952 H   0  0  0  0  0  0  0  0  0  0  0  0
   -3.1200   -0.6866    1.9648 H   0  0  0  0  0  0  0  0  0  0  0  0
   -4.4530   -0.3149   -0.8151 H   0  0  0  0  0  0  0  0  0  0  0  0
   -4.3702    1.3484   -0.1869 H   0  0  0  0  0  0  0  0  0  0  0  0
   -3.5690    0.9359   -1.7219 H   0  0  0  0  0  0  0  0  0  0  0  0
   -0.5496   -1.2248    1.3388 H   0  0  0  0  0  0  0  0  0  0  0  0
   -1.5193   -2.6294    0.7725 H   0  0  0  0  0  0  0  0  0  0  0  0
    0.0993   -2.5478   -1.2901 H   0  0  0  0  0  0  0  0  0  0  0  0
    0.5828   -3.2660    0.2260 H   0  0  0  0  0  0  0  0  0  0  0  0
    2.1181    2.4638   -1.6631 H   0  0  0  0  0  0  0  0  0  0  0  0
    1.0203    1.1858   -2.2375 H   0  0  0  0  0  0  0  0  0  0  0  0
    0.3666    2.7683   -1.7512 H   0  0  0  0  0  0  0  0  0  0  0  0
  1  2  1  0  0  0  0
  2  3  2  0  0  0  0
  3  4  1  0  0  0  0
  4  5  1  0  0  0  0
  5  6  1  0  0  0  0
  6  7  2  0  0  0  0
  7  8  1  0  0  0  0
  8  9  1  0  0  0  0
  9 10  1  0  0  0  0
  8 10  1  0  0  0  0
 10 11  1  0  0  0  0
 10 12  1  0  0  0  0
  9 13  1  0  0  0  0
 13 14  1  0  0  0  0
  2 14  1  0  0  0  0
  6 15  1  0  0  0  0
  1 16  1  0  0  0  0
  1 17  1  0  0  0  0
  1 18  1  0  0  0  0
  3 19  1  0  0  0  0
  4 20  1  0  0  0  0
  4 21  1  0  0  0  0
  5 22  1  0  0  0  0
  5 23  1  0  0  0  0
  7 24  1  0  0  0  0
  8 25  1  0  0  0  0
  9 26  1  0  0  0  0
 11 27  1  0  0  0  0
 11 28  1  0  0  0  0
 11 29  1  0  0  0  0
 12 30  1  0  0  0  0
 12 31  1  0  0  0  0
 12 32  1  0  0  0  0
 13 33  1  0  0  0  0
 13 34  1  0  0  0  0
 14 35  1  0  0  0  0
 14 36  1  0  0  0  0
 15 37  1  0  0  0  0
 15 38  1  0  0  0  0
 15 39  1  0  0  0  0
M  END
$$$$
