C12H18
APtclcactv06291802413D 0   0.00000     0.00000
 
 30 30  0  0  0  0  0  0  0  0999 V2000
    3.7803    0.1154   -0.2459 C   0  0  0  0  0  0  0  0  0  0  0  0
    2.2843    0.1936   -0.0816 C   0  0  0  0  0  0  0  0  0  0  0  0
    1.7608    1.3122    0.3221 C   0  0  0  0  0  0  0  0  0  0  0  0
    0.2848    1.4927    0.5262 C   0  0  0  0  0  0  0  0  0  0  0  0
   -0.4939    0.8502   -0.6223 C   0  0  0  0  0  0  0  0  0  0  0  0
   -1.9252    0.6567   -0.2132 C   0  0  0  0  0  0  0  0  0  0  0  0
   -2.4795   -0.5061   -0.0109 C   0  0  0  0  0  0  0  0  0  0  0  0
   -1.8810   -1.8165   -0.1047 C   0  0  0  0  0  0  0  0  0  0  0  0
   -0.6570   -2.1720    0.1714 C   0  0  0  0  0  0  0  0  0  0  0  0
    0.3981   -1.2351    0.6843 C   0  0  0  0  0  0  0  0  0  0  0  0
    1.4625   -1.0221   -0.3972 C   0  0  0  0  0  0  0  0  0  0  0  0
   -2.7764    1.8858   -0.0235 C   0  0  0  0  0  0  0  0  0  0  0  0
    4.2253    1.0750    0.0171 H   0  0  0  0  0  0  0  0  0  0  0  0
    4.1775   -0.6609    0.4081 H   0  0  0  0  0  0  0  0  0  0  0  0
    4.0199   -0.1246   -1.2818 H   0  0  0  0  0  0  0  0  0  0  0  0
    2.4158    2.1478    0.5198 H   0  0  0  0  0  0  0  0  0  0  0  0
   -0.0090    1.0262    1.4665 H   0  0  0  0  0  0  0  0  0  0  0  0
    0.0540    2.5572    0.5673 H   0  0  0  0  0  0  0  0  0  0  0  0
   -0.4509    1.4985   -1.4975 H   0  0  0  0  0  0  0  0  0  0  0  0
   -0.0518   -0.1162   -0.8647 H   0  0  0  0  0  0  0  0  0  0  0  0
   -3.5239   -0.4863    0.2633 H   0  0  0  0  0  0  0  0  0  0  0  0
   -2.5324   -2.6061   -0.4491 H   0  0  0  0  0  0  0  0  0  0  0  0
   -0.3851   -3.2064    0.0218 H   0  0  0  0  0  0  0  0  0  0  0  0
   -0.0581   -0.2780    0.9369 H   0  0  0  0  0  0  0  0  0  0  0  0
    0.8613   -1.6621    1.5738 H   0  0  0  0  0  0  0  0  0  0  0  0
    0.9744   -0.8924   -1.3631 H   0  0  0  0  0  0  0  0  0  0  0  0
    2.1135   -1.8954   -0.4395 H   0  0  0  0  0  0  0  0  0  0  0  0
   -3.2589    2.1427   -0.9665 H   0  0  0  0  0  0  0  0  0  0  0  0
   -3.5370    1.6880    0.7318 H   0  0  0  0  0  0  0  0  0  0  0  0
   -2.1488    2.7157    0.3015 H   0  0  0  0  0  0  0  0  0  0  0  0
  1  2  1  0  0  0  0
  2  3  2  0  0  0  0
  3  4  1  0  0  0  0
  4  5  1  0  0  0  0
  5  6  1  0  0  0  0
  6  7  2  0  0  0  0
  7  8  1  0  0  0  0
  8  9  2  0  0  0  0
  9 10  1  0  0  0  0
 10 11  1  0  0  0  0
  2 11  1  0  0  0  0
  6 12  1  0  0  0  0
  1 13  1  0  0  0  0
  1 14  1  0  0  0  0
  1 15  1  0  0  0  0
  3 16  1  0  0  0  0
  4 17  1  0  0  0  0
  4 18  1  0  0  0  0
  5 19  1  0  0  0  0
  5 20  1  0  0  0  0
  7 21  1  0  0  0  0
  8 22  1  0  0  0  0
  9 23  1  0  0  0  0
 10 24  1  0  0  0  0
 10 25  1  0  0  0  0
 11 26  1  0  0  0  0
 11 27  1  0  0  0  0
 12 28  1  0  0  0  0
 12 29  1  0  0  0  0
 12 30  1  0  0  0  0
M  END
$$$$
