C11H20N2O5S
APtclcactv06291802433D 0   0.00000     0.00000
 
 39 38  0  0  0  0  0  0  0  0999 V2000
    6.4934    3.1030    0.4015 C   0  0  0  0  0  0  0  0  0  0  0  0
    5.0757    2.7622   -0.0620 C   0  0  0  0  0  0  0  0  0  0  0  0
    4.7899    1.2849    0.2149 C   0  0  0  0  0  0  0  0  0  0  0  0
    3.1090    0.8809   -0.3347 S   0  0  0  0  0  0  0  0  0  0  0  0
    2.9597   -0.8810    0.0703 C   0  0  0  0  0  0  0  0  0  0  0  0
    1.5733   -1.3826   -0.3387 C   0  0  0  0  0  0  0  0  0  0  0  0
    1.4493   -2.8463   -0.0023 C   0  0  0  0  0  0  0  0  0  0  0  0
    0.5920   -3.2198    0.7629 O   0  0  0  0  0  0  0  0  0  0  0  0
    2.2911   -3.7352   -0.5527 O   0  0  0  0  0  0  0  0  0  0  0  0
    0.5476   -0.6267    0.3842 N   0  0  0  0  0  0  0  0  0  0  0  0
   -0.6915   -0.5079   -0.1324 C   0  0  0  0  0  0  0  0  0  0  0  0
   -0.9574   -1.0268   -1.1959 O   0  0  0  0  0  0  0  0  0  0  0  0
   -1.7467    0.2696    0.6113 C   0  0  0  0  0  0  0  0  0  0  0  0
   -3.0520    0.2499   -0.1866 C   0  0  0  0  0  0  0  0  0  0  0  0
   -4.1233    1.0393    0.5685 C   0  0  0  0  0  0  0  0  0  0  0  0
   -5.3709    1.1241   -0.2725 C   0  0  0  0  0  0  0  0  0  0  0  0
   -6.2979    0.3803   -0.0548 O   0  0  0  0  0  0  0  0  0  0  0  0
   -5.4524    2.0260   -1.2633 O   0  0  0  0  0  0  0  0  0  0  0  0
   -4.4311    0.3601    1.8341 N   0  0  0  0  0  0  0  0  0  0  0  0
    6.6971    4.1555    0.2043 H   0  0  0  0  0  0  0  0  0  0  0  0
    6.5824    2.9099    1.4706 H   0  0  0  0  0  0  0  0  0  0  0  0
    7.2108    2.4864   -0.1400 H   0  0  0  0  0  0  0  0  0  0  0  0
    4.3583    3.3788    0.4795 H   0  0  0  0  0  0  0  0  0  0  0  0
    4.9867    2.9554   -1.1311 H   0  0  0  0  0  0  0  0  0  0  0  0
    5.5073    0.6683   -0.3266 H   0  0  0  0  0  0  0  0  0  0  0  0
    4.8788    1.0918    1.2840 H   0  0  0  0  0  0  0  0  0  0  0  0
    3.7229   -1.4434   -0.4676 H   0  0  0  0  0  0  0  0  0  0  0  0
    3.0944   -1.0199    1.1430 H   0  0  0  0  0  0  0  0  0  0  0  0
    1.4386   -1.2437   -1.4114 H   0  0  0  0  0  0  0  0  0  0  0  0
    2.1726   -4.6628   -0.3066 H   0  0  0  0  0  0  0  0  0  0  0  0
    0.7602   -0.2117    1.2348 H   0  0  0  0  0  0  0  0  0  0  0  0
   -1.9113   -0.1842    1.5885 H   0  0  0  0  0  0  0  0  0  0  0  0
   -1.4153    1.3000    0.7403 H   0  0  0  0  0  0  0  0  0  0  0  0
   -2.8874    0.7037   -1.1639 H   0  0  0  0  0  0  0  0  0  0  0  0
   -3.3834   -0.7805   -0.3157 H   0  0  0  0  0  0  0  0  0  0  0  0
   -3.7556    2.0443    0.7755 H   0  0  0  0  0  0  0  0  0  0  0  0
   -6.2726    2.0427   -1.7754 H   0  0  0  0  0  0  0  0  0  0  0  0
   -4.7740   -0.5743    1.6689 H   0  0  0  0  0  0  0  0  0  0  0  0
   -3.6264    0.3476    2.4428 H   0  0  0  0  0  0  0  0  0  0  0  0
  1  2  1  0  0  0  0
  2  3  1  0  0  0  0
  3  4  1  0  0  0  0
  4  5  1  0  0  0  0
  5  6  1  0  0  0  0
  6  7  1  0  0  0  0
  7  8  2  0  0  0  0
  7  9  1  0  0  0  0
  6 10  1  0  0  0  0
 10 11  1  0  0  0  0
 11 12  2  0  0  0  0
 11 13  1  0  0  0  0
 13 14  1  0  0  0  0
 14 15  1  0  0  0  0
 15 16  1  0  0  0  0
 16 17  2  0  0  0  0
 16 18  1  0  0  0  0
 15 19  1  0  0  0  0
  1 20  1  0  0  0  0
  1 21  1  0  0  0  0
  1 22  1  0  0  0  0
  2 23  1  0  0  0  0
  2 24  1  0  0  0  0
  3 25  1  0  0  0  0
  3 26  1  0  0  0  0
  5 27  1  0  0  0  0
  5 28  1  0  0  0  0
  6 29  1  0  0  0  0
  9 30  1  0  0  0  0
 10 31  1  0  0  0  0
 13 32  1  0  0  0  0
 13 33  1  0  0  0  0
 14 34  1  0  0  0  0
 14 35  1  0  0  0  0
 15 36  1  0  0  0  0
 18 37  1  0  0  0  0
 19 38  1  0  0  0  0
 19 39  1  0  0  0  0
M  END
$$$$
