C19H15NO5
APtclcactv06211806123D 0   0.00000     0.00000
 
 40 43  0  0  0  0  0  0  0  0999 V2000
    4.2783    3.1383    0.1785 C   0  0  0  0  0  0  0  0  0  0  0  0
    2.8627    2.9432    0.1712 O   0  0  0  0  0  0  0  0  0  0  0  0
    2.4170    1.6603    0.1213 C   0  0  0  0  0  0  0  0  0  0  0  0
    1.0368    1.4087    0.1117 C   0  0  0  0  0  0  0  0  0  0  0  0
    0.5588    0.1008    0.0609 C   0  0  0  0  0  0  0  0  0  0  0  0
    1.4775   -0.9666    0.0192 C   0  0  0  0  0  0  0  0  0  0  0  0
    2.8697   -0.6940    0.0296 C   0  0  0  0  0  0  0  0  0  0  0  0
    3.3193    0.6366    0.0757 C   0  0  0  0  0  0  0  0  0  0  0  0
    3.7564   -1.7812   -0.0123 C   0  0  0  0  0  0  0  0  0  0  0  0
    3.2393   -3.0603   -0.0616 C   0  0  0  0  0  0  0  0  0  0  0  0
    1.9405   -3.2871   -0.0703 N   0  0  0  0  0  0  0  0  0  0  0  0
    1.0483   -2.3095   -0.0326 C   0  0  0  0  0  0  0  0  0  0  0  0
   -0.3978   -2.6092   -0.0436 C   0  0  0  0  0  0  0  0  0  0  0  0
   -0.7888   -3.7614   -0.0876 O   0  0  0  0  0  0  0  0  0  0  0  0
   -1.3582   -1.4979   -0.0002 C   0  0  0  0  0  0  0  0  0  0  0  0
   -2.7340   -1.7508   -0.0099 C   0  0  0  0  0  0  0  0  0  0  0  0
   -3.6255   -0.6991    0.0308 C   0  0  0  0  0  0  0  0  0  0  0  0
   -3.1615    0.6180    0.0816 C   0  0  0  0  0  0  0  0  0  0  0  0
   -1.8035    0.8827    0.0917 C   0  0  0  0  0  0  0  0  0  0  0  0
   -0.8900   -0.1684    0.0501 C   0  0  0  0  0  0  0  0  0  0  0  0
   -4.0493    1.6450    0.1208 O   0  0  0  0  0  0  0  0  0  0  0  0
   -3.5099    2.9672    0.1719 C   0  0  0  0  0  0  0  0  0  0  0  0
   -4.9630   -0.9452    0.0209 O   0  0  0  0  0  0  0  0  0  0  0  0
    0.1626    2.4446    0.1526 O   0  0  0  0  0  0  0  0  0  0  0  0
   -0.2559    2.9902   -1.1000 C   0  0  0  0  0  0  0  0  0  0  0  0
    4.7086    2.6447    1.0499 H   0  0  0  0  0  0  0  0  0  0  0  0
    4.7083    2.7139   -0.7287 H   0  0  0  0  0  0  0  0  0  0  0  0
    4.4978    4.2052    0.2200 H   0  0  0  0  0  0  0  0  0  0  0  0
    4.3782    0.8491    0.0834 H   0  0  0  0  0  0  0  0  0  0  0  0
    4.8243   -1.6199   -0.0065 H   0  0  0  0  0  0  0  0  0  0  0  0
    3.9184   -3.8995   -0.0943 H   0  0  0  0  0  0  0  0  0  0  0  0
   -3.0972   -2.7671   -0.0495 H   0  0  0  0  0  0  0  0  0  0  0  0
   -1.4520    1.9032    0.1307 H   0  0  0  0  0  0  0  0  0  0  0  0
   -2.8972    3.0754    1.0669 H   0  0  0  0  0  0  0  0  0  0  0  0
   -2.8966    3.1438   -0.7118 H   0  0  0  0  0  0  0  0  0  0  0  0
   -4.3243    3.6911    0.1995 H   0  0  0  0  0  0  0  0  0  0  0  0
   -5.3500   -1.0507    0.9007 H   0  0  0  0  0  0  0  0  0  0  0  0
    0.6132    3.3616   -1.6431 H   0  0  0  0  0  0  0  0  0  0  0  0
   -0.7476    2.2151   -1.6878 H   0  0  0  0  0  0  0  0  0  0  0  0
   -0.9524    3.8101   -0.9247 H   0  0  0  0  0  0  0  0  0  0  0  0
  1  2  1  0  0  0  0
  2  3  1  0  0  0  0
  3  4  2  0  0  0  0
  4  5  1  0  0  0  0
  5  6  2  0  0  0  0
  6  7  1  0  0  0  0
  7  8  2  0  0  0  0
  3  8  1  0  0  0  0
  7  9  1  0  0  0  0
  9 10  2  0  0  0  0
 10 11  1  0  0  0  0
 11 12  2  0  0  0  0
  6 12  1  0  0  0  0
 12 13  1  0  0  0  0
 13 14  2  0  0  0  0
 13 15  1  0  0  0  0
 15 16  2  0  0  0  0
 16 17  1  0  0  0  0
 17 18  2  0  0  0  0
 18 19  1  0  0  0  0
 19 20  2  0  0  0  0
 15 20  1  0  0  0  0
  5 20  1  0  0  0  0
 18 21  1  0  0  0  0
 21 22  1  0  0  0  0
 17 23  1  0  0  0  0
  4 24  1  0  0  0  0
 24 25  1  0  0  0  0
  1 26  1  0  0  0  0
  1 27  1  0  0  0  0
  1 28  1  0  0  0  0
  8 29  1  0  0  0  0
  9 30  1  0  0  0  0
 10 31  1  0  0  0  0
 16 32  1  0  0  0  0
 19 33  1  0  0  0  0
 22 34  1  0  0  0  0
 22 35  1  0  0  0  0
 22 36  1  0  0  0  0
 23 37  1  0  0  0  0
 25 38  1  0  0  0  0
 25 39  1  0  0  0  0
 25 40  1  0  0  0  0
M  END
$$$$
