C15H22O4
APtclcactv06211806453D 0   0.00000     0.00000
 
 41 42  0  0  0  0  0  0  0  0999 V2000
    4.1631   -0.3809    1.3790 C   0  0  0  0  0  0  0  0  0  0  0  0
    3.9482   -0.6377   -0.1139 C   0  0  0  0  0  0  0  0  0  0  0  0
    3.1877    0.5386   -0.7294 C   0  0  0  0  0  0  0  0  0  0  0  0
    1.8051    0.6096   -0.1340 C   0  0  0  0  0  0  0  0  0  0  0  0
    1.4633   -0.1972    0.6969 O   0  0  0  0  0  0  0  0  0  0  0  0
    0.8491    1.6877   -0.5754 C   0  0  0  0  0  0  0  0  0  0  0  0
   -0.4743    1.5353    0.1772 C   0  0  0  0  0  0  0  0  0  0  0  0
   -1.4603    2.6362   -0.2690 C   0  0  0  0  0  0  0  0  0  0  0  0
   -2.8100    1.8694   -0.3186 C   0  0  0  0  0  0  0  0  0  0  0  0
   -2.3356    0.4687   -0.7811 C   0  0  0  0  0  0  0  0  0  0  0  0
   -1.0680    0.2698   -0.1352 O   0  0  0  0  0  0  0  0  0  0  0  0
   -3.3174   -0.5872   -0.3426 C   0  0  0  0  0  0  0  0  0  0  0  0
   -3.4110   -1.1359    0.8819 C   0  0  0  0  0  0  0  0  0  0  0  0
   -4.4085   -2.0350    0.8690 O   0  0  0  0  0  0  0  0  0  0  0  0
   -4.9616   -2.0728   -0.3543 C   0  0  0  0  0  0  0  0  0  0  0  0
   -4.3210   -1.1867   -1.1379 C   0  0  0  0  0  0  0  0  0  0  0  0
   -0.2290    1.6379    1.6840 C   0  0  0  0  0  0  0  0  0  0  0  0
    5.3044   -0.7865   -0.8062 C   0  0  0  0  0  0  0  0  0  0  0  0
    5.9654   -1.9536   -0.3132 O   0  0  0  0  0  0  0  0  0  0  0  0
    4.7407    0.5340    1.5109 H   0  0  0  0  0  0  0  0  0  0  0  0
    3.1969   -0.2749    1.8723 H   0  0  0  0  0  0  0  0  0  0  0  0
    4.7049   -1.2190    1.8176 H   0  0  0  0  0  0  0  0  0  0  0  0
    3.3706   -1.5527   -0.2457 H   0  0  0  0  0  0  0  0  0  0  0  0
    3.7214    1.4656   -0.5203 H   0  0  0  0  0  0  0  0  0  0  0  0
    3.1121    0.3981   -1.8076 H   0  0  0  0  0  0  0  0  0  0  0  0
    1.2794    2.6656   -0.3595 H   0  0  0  0  0  0  0  0  0  0  0  0
    0.6700    1.5980   -1.6469 H   0  0  0  0  0  0  0  0  0  0  0  0
   -1.4989    3.4425    0.4635 H   0  0  0  0  0  0  0  0  0  0  0  0
   -1.1949    3.0184   -1.2546 H   0  0  0  0  0  0  0  0  0  0  0  0
   -3.2714    1.8220    0.6678 H   0  0  0  0  0  0  0  0  0  0  0  0
   -3.4882    2.3146   -1.0465 H   0  0  0  0  0  0  0  0  0  0  0  0
   -2.2156    0.4485   -1.8642 H   0  0  0  0  0  0  0  0  0  0  0  0
   -2.7890   -0.8947    1.7312 H   0  0  0  0  0  0  0  0  0  0  0  0
   -5.7839   -2.7043   -0.6564 H   0  0  0  0  0  0  0  0  0  0  0  0
   -4.5285   -0.9787   -2.1771 H   0  0  0  0  0  0  0  0  0  0  0  0
    0.1959    2.6142    1.9173 H   0  0  0  0  0  0  0  0  0  0  0  0
   -1.1731    1.5162    2.2149 H   0  0  0  0  0  0  0  0  0  0  0  0
    0.4651    0.8563    1.9931 H   0  0  0  0  0  0  0  0  0  0  0  0
    5.1549   -0.8807   -1.8818 H   0  0  0  0  0  0  0  0  0  0  0  0
    5.9160    0.0919   -0.5999 H   0  0  0  0  0  0  0  0  0  0  0  0
    6.8334   -2.1109   -0.7093 H   0  0  0  0  0  0  0  0  0  0  0  0
  1  2  1  0  0  0  0
  2  3  1  0  0  0  0
  3  4  1  0  0  0  0
  4  5  2  0  0  0  0
  4  6  1  0  0  0  0
  6  7  1  0  0  0  0
  7  8  1  0  0  0  0
  8  9  1  0  0  0  0
  9 10  1  0  0  0  0
 10 11  1  0  0  0  0
  7 11  1  0  0  0  0
 10 12  1  0  0  0  0
 12 13  2  0  0  0  0
 13 14  1  0  0  0  0
 14 15  1  0  0  0  0
 15 16  2  0  0  0  0
 12 16  1  0  0  0  0
  7 17  1  0  0  0  0
  2 18  1  0  0  0  0
 18 19  1  0  0  0  0
  1 20  1  0  0  0  0
  1 21  1  0  0  0  0
  1 22  1  0  0  0  0
  2 23  1  0  0  0  0
  3 24  1  0  0  0  0
  3 25  1  0  0  0  0
  6 26  1  0  0  0  0
  6 27  1  0  0  0  0
  8 28  1  0  0  0  0
  8 29  1  0  0  0  0
  9 30  1  0  0  0  0
  9 31  1  0  0  0  0
 10 32  1  0  0  0  0
 13 33  1  0  0  0  0
 15 34  1  0  0  0  0
 16 35  1  0  0  0  0
 17 36  1  0  0  0  0
 17 37  1  0  0  0  0
 17 38  1  0  0  0  0
 18 39  1  0  0  0  0
 18 40  1  0  0  0  0
 19 41  1  0  0  0  0
M  END
$$$$
