C19H30O3
APtclcactv06211806453D 0   0.00000     0.00000
 
 52 52  0  0  0  0  0  0  0  0999 V2000
   11.0267    0.4152    0.6946 C   0  0  0  0  0  0  0  0  0  0  0  0
    9.8145    0.1993   -0.2136 C   0  0  0  0  0  0  0  0  0  0  0  0
    8.5337    0.2674    0.6206 C   0  0  0  0  0  0  0  0  0  0  0  0
    7.3215    0.0516   -0.2876 C   0  0  0  0  0  0  0  0  0  0  0  0
    6.0407    0.1196    0.5466 C   0  0  0  0  0  0  0  0  0  0  0  0
    4.8285   -0.0962   -0.3616 C   0  0  0  0  0  0  0  0  0  0  0  0
    3.5477   -0.0281    0.4726 C   0  0  0  0  0  0  0  0  0  0  0  0
    2.3354   -0.2440   -0.4356 C   0  0  0  0  0  0  0  0  0  0  0  0
    1.0547   -0.1759    0.3986 C   0  0  0  0  0  0  0  0  0  0  0  0
   -0.1393   -0.3885   -0.4959 C   0  0  0  0  0  0  0  0  0  0  0  0
    0.0179   -0.5751   -1.6786 O   0  0  0  0  0  0  0  0  0  0  0  0
   -1.5295   -0.3681    0.0854 C   0  0  0  0  0  0  0  0  0  0  0  0
   -2.5514   -0.6074   -1.0278 C   0  0  0  0  0  0  0  0  0  0  0  0
   -3.9416   -0.5871   -0.4465 C   0  0  0  0  0  0  0  0  0  0  0  0
   -4.6420    0.6027   -0.3752 C   0  0  0  0  0  0  0  0  0  0  0  0
   -5.9204    0.6231    0.1590 C   0  0  0  0  0  0  0  0  0  0  0  0
   -6.4962   -0.5557    0.6230 C   0  0  0  0  0  0  0  0  0  0  0  0
   -5.7887   -1.7448    0.5486 C   0  0  0  0  0  0  0  0  0  0  0  0
   -4.5159   -1.7592    0.0093 C   0  0  0  0  0  0  0  0  0  0  0  0
   -7.7504   -0.5407    1.1486 O   0  0  0  0  0  0  0  0  0  0  0  0
   -6.6106    1.7927    0.2303 O   0  0  0  0  0  0  0  0  0  0  0  0
   -5.9567    2.9631   -0.2644 C   0  0  0  0  0  0  0  0  0  0  0  0
   10.9546    1.3931    1.1706 H   0  0  0  0  0  0  0  0  0  0  0  0
   11.0500   -0.3606    1.4600 H   0  0  0  0  0  0  0  0  0  0  0  0
   11.9392    0.3667    0.1003 H   0  0  0  0  0  0  0  0  0  0  0  0
    9.7912    0.9751   -0.9789 H   0  0  0  0  0  0  0  0  0  0  0  0
    9.8866   -0.7786   -0.6895 H   0  0  0  0  0  0  0  0  0  0  0  0
    8.5570   -0.5083    1.3860 H   0  0  0  0  0  0  0  0  0  0  0  0
    8.4616    1.2453    1.0966 H   0  0  0  0  0  0  0  0  0  0  0  0
    7.2982    0.8273   -1.0530 H   0  0  0  0  0  0  0  0  0  0  0  0
    7.3936   -0.9264   -0.7635 H   0  0  0  0  0  0  0  0  0  0  0  0
    6.0639   -0.6561    1.3120 H   0  0  0  0  0  0  0  0  0  0  0  0
    5.9686    1.0976    1.0226 H   0  0  0  0  0  0  0  0  0  0  0  0
    4.8052    0.6795   -1.1270 H   0  0  0  0  0  0  0  0  0  0  0  0
    4.9006   -1.0741   -0.8375 H   0  0  0  0  0  0  0  0  0  0  0  0
    3.5709   -0.8039    1.2380 H   0  0  0  0  0  0  0  0  0  0  0  0
    3.4756    0.9498    0.9486 H   0  0  0  0  0  0  0  0  0  0  0  0
    2.3122    0.5318   -1.2010 H   0  0  0  0  0  0  0  0  0  0  0  0
    2.4075   -1.2219   -0.9115 H   0  0  0  0  0  0  0  0  0  0  0  0
    1.0779   -0.9516    1.1640 H   0  0  0  0  0  0  0  0  0  0  0  0
    0.9826    0.8020    0.8746 H   0  0  0  0  0  0  0  0  0  0  0  0
   -1.6206   -1.1524    0.8369 H   0  0  0  0  0  0  0  0  0  0  0  0
   -1.7160    0.6013    0.5475 H   0  0  0  0  0  0  0  0  0  0  0  0
   -2.4604    0.1768   -1.7793 H   0  0  0  0  0  0  0  0  0  0  0  0
   -2.3650   -1.5769   -1.4899 H   0  0  0  0  0  0  0  0  0  0  0  0
   -4.1927    1.5162   -0.7357 H   0  0  0  0  0  0  0  0  0  0  0  0
   -6.2333   -2.6611    0.9080 H   0  0  0  0  0  0  0  0  0  0  0  0
   -3.9655   -2.6866   -0.0481 H   0  0  0  0  0  0  0  0  0  0  0  0
   -8.4511   -0.6869    0.4984 H   0  0  0  0  0  0  0  0  0  0  0  0
   -5.0377    3.1306    0.2972 H   0  0  0  0  0  0  0  0  0  0  0  0
   -5.7181    2.8275   -1.3194 H   0  0  0  0  0  0  0  0  0  0  0  0
   -6.6154    3.8237   -0.1486 H   0  0  0  0  0  0  0  0  0  0  0  0
  1  2  1  0  0  0  0
  2  3  1  0  0  0  0
  3  4  1  0  0  0  0
  4  5  1  0  0  0  0
  5  6  1  0  0  0  0
  6  7  1  0  0  0  0
  7  8  1  0  0  0  0
  8  9  1  0  0  0  0
  9 10  1  0  0  0  0
 10 11  2  0  0  0  0
 10 12  1  0  0  0  0
 12 13  1  0  0  0  0
 13 14  1  0  0  0  0
 14 15  2  0  0  0  0
 15 16  1  0  0  0  0
 16 17  2  0  0  0  0
 17 18  1  0  0  0  0
 18 19  2  0  0  0  0
 14 19  1  0  0  0  0
 17 20  1  0  0  0  0
 16 21  1  0  0  0  0
 21 22  1  0  0  0  0
  1 23  1  0  0  0  0
  1 24  1  0  0  0  0
  1 25  1  0  0  0  0
  2 26  1  0  0  0  0
  2 27  1  0  0  0  0
  3 28  1  0  0  0  0
  3 29  1  0  0  0  0
  4 30  1  0  0  0  0
  4 31  1  0  0  0  0
  5 32  1  0  0  0  0
  5 33  1  0  0  0  0
  6 34  1  0  0  0  0
  6 35  1  0  0  0  0
  7 36  1  0  0  0  0
  7 37  1  0  0  0  0
  8 38  1  0  0  0  0
  8 39  1  0  0  0  0
  9 40  1  0  0  0  0
  9 41  1  0  0  0  0
 12 42  1  0  0  0  0
 12 43  1  0  0  0  0
 13 44  1  0  0  0  0
 13 45  1  0  0  0  0
 15 46  1  0  0  0  0
 18 47  1  0  0  0  0
 19 48  1  0  0  0  0
 20 49  1  0  0  0  0
 22 50  1  0  0  0  0
 22 51  1  0  0  0  0
 22 52  1  0  0  0  0
M  END
$$$$
