C20H19NO6
APtclcactv06211806453D 0   0.00000     0.00000
 
 46 49  0  0  0  0  0  0  0  0999 V2000
    5.1211   -2.7279   -1.6289 C   0  0  0  0  0  0  0  0  0  0  0  0
    4.7513   -2.0446   -0.3822 N   0  0  0  0  0  0  0  0  0  0  0  0
    5.8985   -1.3206    0.1815 C   0  0  0  0  0  0  0  0  0  0  0  0
    3.6119   -1.1421   -0.5944 C   0  0  0  0  0  0  0  0  0  0  0  0
    3.0984   -0.6424    0.7574 C   0  0  0  0  0  0  0  0  0  0  0  0
    1.9295    0.2835    0.5397 C   0  0  0  0  0  0  0  0  0  0  0  0
    2.1219    1.6517    0.4820 C   0  0  0  0  0  0  0  0  0  0  0  0
    1.0639    2.5349    0.2911 C   0  0  0  0  0  0  0  0  0  0  0  0
   -0.2368    2.0514    0.1628 C   0  0  0  0  0  0  0  0  0  0  0  0
   -0.4246    0.6739    0.2141 C   0  0  0  0  0  0  0  0  0  0  0  0
    0.6471   -0.2274    0.3890 C   0  0  0  0  0  0  0  0  0  0  0  0
    0.3118   -1.6597    0.3818 C   0  0  0  0  0  0  0  0  0  0  0  0
    1.1606   -2.4893    0.1161 O   0  0  0  0  0  0  0  0  0  0  0  0
   -0.9536   -2.0435    0.6752 O   0  0  0  0  0  0  0  0  0  0  0  0
   -1.9851   -1.2523    0.2909 C   0  0  0  0  0  0  0  0  0  0  0  0
   -3.2799   -1.7402    0.1233 C   0  0  0  0  0  0  0  0  0  0  0  0
   -4.3090   -0.8795   -0.2449 C   0  0  0  0  0  0  0  0  0  0  0  0
   -4.0913    0.4692   -0.4595 C   0  0  0  0  0  0  0  0  0  0  0  0
   -2.8084    0.9801   -0.3130 C   0  0  0  0  0  0  0  0  0  0  0  0
   -1.7686    0.1033    0.0585 C   0  0  0  0  0  0  0  0  0  0  0  0
   -2.4350    2.3839   -0.5459 C   0  0  0  0  0  0  0  0  0  0  0  0
   -3.1283    3.0979   -1.2450 O   0  0  0  0  0  0  0  0  0  0  0  0
   -1.3082    2.8708    0.0237 O   0  0  0  0  0  0  0  0  0  0  0  0
   -3.5374   -3.0589    0.3196 O   0  0  0  0  0  0  0  0  0  0  0  0
   -4.8862   -3.4916    0.1309 C   0  0  0  0  0  0  0  0  0  0  0  0
    1.2991    3.8709    0.2303 O   0  0  0  0  0  0  0  0  0  0  0  0
    2.6557    4.2978    0.3698 C   0  0  0  0  0  0  0  0  0  0  0  0
    5.9670   -3.3898   -1.4434 H   0  0  0  0  0  0  0  0  0  0  0  0
    4.2741   -3.3128   -1.9877 H   0  0  0  0  0  0  0  0  0  0  0  0
    5.3964   -1.9883   -2.3807 H   0  0  0  0  0  0  0  0  0  0  0  0
    6.2462   -0.5765   -0.5350 H   0  0  0  0  0  0  0  0  0  0  0  0
    5.5972   -0.8240    1.1038 H   0  0  0  0  0  0  0  0  0  0  0  0
    6.7034   -2.0243    0.3940 H   0  0  0  0  0  0  0  0  0  0  0  0
    3.9291   -0.2925   -1.1992 H   0  0  0  0  0  0  0  0  0  0  0  0
    2.8151   -1.6780   -1.1102 H   0  0  0  0  0  0  0  0  0  0  0  0
    2.7812   -1.4920    1.3622 H   0  0  0  0  0  0  0  0  0  0  0  0
    3.8952   -0.1065    1.2733 H   0  0  0  0  0  0  0  0  0  0  0  0
    3.1218    2.0459    0.5883 H   0  0  0  0  0  0  0  0  0  0  0  0
   -5.3062   -1.2760   -0.3671 H   0  0  0  0  0  0  0  0  0  0  0  0
   -4.9092    1.1173   -0.7379 H   0  0  0  0  0  0  0  0  0  0  0  0
   -5.5387   -2.9596    0.8232 H   0  0  0  0  0  0  0  0  0  0  0  0
   -5.1950   -3.2821   -0.8933 H   0  0  0  0  0  0  0  0  0  0  0  0
   -4.9536   -4.5632    0.3187 H   0  0  0  0  0  0  0  0  0  0  0  0
    3.0400    3.9765    1.3379 H   0  0  0  0  0  0  0  0  0  0  0  0
    3.2586    3.8577   -0.4246 H   0  0  0  0  0  0  0  0  0  0  0  0
    2.7034    5.3846    0.3024 H   0  0  0  0  0  0  0  0  0  0  0  0
  1  2  1  0  0  0  0
  2  3  1  0  0  0  0
  2  4  1  0  0  0  0
  4  5  1  0  0  0  0
  5  6  1  0  0  0  0
  6  7  2  0  0  0  0
  7  8  1  0  0  0  0
  8  9  2  0  0  0  0
  9 10  1  0  0  0  0
 10 11  2  0  0  0  0
  6 11  1  0  0  0  0
 11 12  1  0  0  0  0
 12 13  2  0  0  0  0
 12 14  1  0  0  0  0
 14 15  1  0  0  0  0
 15 16  2  0  0  0  0
 16 17  1  0  0  0  0
 17 18  2  0  0  0  0
 18 19  1  0  0  0  0
 19 20  2  0  0  0  0
 10 20  1  0  0  0  0
 15 20  1  0  0  0  0
 19 21  1  0  0  0  0
 21 22  2  0  0  0  0
 21 23  1  0  0  0  0
  9 23  1  0  0  0  0
 16 24  1  0  0  0  0
 24 25  1  0  0  0  0
  8 26  1  0  0  0  0
 26 27  1  0  0  0  0
  1 28  1  0  0  0  0
  1 29  1  0  0  0  0
  1 30  1  0  0  0  0
  3 31  1  0  0  0  0
  3 32  1  0  0  0  0
  3 33  1  0  0  0  0
  4 34  1  0  0  0  0
  4 35  1  0  0  0  0
  5 36  1  0  0  0  0
  5 37  1  0  0  0  0
  7 38  1  0  0  0  0
 17 39  1  0  0  0  0
 18 40  1  0  0  0  0
 25 41  1  0  0  0  0
 25 42  1  0  0  0  0
 25 43  1  0  0  0  0
 27 44  1  0  0  0  0
 27 45  1  0  0  0  0
 27 46  1  0  0  0  0
M  END
$$$$
