C20H18O4
APtclcactv06291802443D 0   0.00000     0.00000
 
 42 44  0  0  0  0  0  0  0  0999 V2000
   -5.2701    1.6899   -1.2591 C   0  0  0  0  0  0  0  0  0  0  0  0
   -5.9223    0.6650   -0.3672 C   0  0  0  0  0  0  0  0  0  0  0  0
   -5.2484   -0.3891    0.0210 C   0  0  0  0  0  0  0  0  0  0  0  0
   -3.7862   -0.5167   -0.3209 C   0  0  0  0  0  0  0  0  0  0  0  0
   -2.9813   -0.7477    0.9595 C   0  0  0  0  0  0  0  0  0  0  0  0
   -1.5191   -0.8753    0.6176 C   0  0  0  0  0  0  0  0  0  0  0  0
   -0.9671   -2.1225    0.4349 C   0  0  0  0  0  0  0  0  0  0  0  0
    0.3847   -2.2596    0.1185 C   0  0  0  0  0  0  0  0  0  0  0  0
    1.1843   -1.1239   -0.0140 C   0  0  0  0  0  0  0  0  0  0  0  0
    0.6182    0.1550    0.1728 C   0  0  0  0  0  0  0  0  0  0  0  0
   -0.7371    0.2722    0.4832 C   0  0  0  0  0  0  0  0  0  0  0  0
   -1.2900    1.4971    0.6640 O   0  0  0  0  0  0  0  0  0  0  0  0
    1.4632    1.3553    0.0336 C   0  0  0  0  0  0  0  0  0  0  0  0
    0.9570    2.4570   -0.0567 O   0  0  0  0  0  0  0  0  0  0  0  0
    2.9345    1.2029    0.0057 C   0  0  0  0  0  0  0  0  0  0  0  0
    3.7637    2.3081    0.1627 C   0  0  0  0  0  0  0  0  0  0  0  0
    5.1383    2.1464    0.1340 C   0  0  0  0  0  0  0  0  0  0  0  0
    5.6931    0.8933   -0.0502 C   0  0  0  0  0  0  0  0  0  0  0  0
    4.8820   -0.2172   -0.2085 C   0  0  0  0  0  0  0  0  0  0  0  0
    3.4992   -0.0726   -0.1809 C   0  0  0  0  0  0  0  0  0  0  0  0
    2.6157   -1.2476   -0.3459 C   0  0  0  0  0  0  0  0  0  0  0  0
    3.0643   -2.3027   -0.7504 O   0  0  0  0  0  0  0  0  0  0  0  0
    0.9199   -3.4928   -0.0594 O   0  0  0  0  0  0  0  0  0  0  0  0
   -7.3497    0.8529    0.0780 C   0  0  0  0  0  0  0  0  0  0  0  0
   -4.8814    1.1999   -2.1518 H   0  0  0  0  0  0  0  0  0  0  0  0
   -6.0054    2.4408   -1.5478 H   0  0  0  0  0  0  0  0  0  0  0  0
   -4.4517    2.1701   -0.7227 H   0  0  0  0  0  0  0  0  0  0  0  0
   -5.7406   -1.1667    0.5862 H   0  0  0  0  0  0  0  0  0  0  0  0
   -3.6434   -1.3598   -0.9969 H   0  0  0  0  0  0  0  0  0  0  0  0
   -3.4450    0.3986   -0.8045 H   0  0  0  0  0  0  0  0  0  0  0  0
   -3.1241    0.0954    1.6355 H   0  0  0  0  0  0  0  0  0  0  0  0
   -3.3225   -1.6630    1.4431 H   0  0  0  0  0  0  0  0  0  0  0  0
   -1.5852   -3.0022    0.5375 H   0  0  0  0  0  0  0  0  0  0  0  0
   -1.6442    1.8920   -0.1445 H   0  0  0  0  0  0  0  0  0  0  0  0
    3.3367    3.2896    0.3061 H   0  0  0  0  0  0  0  0  0  0  0  0
    5.7818    3.0051    0.2562 H   0  0  0  0  0  0  0  0  0  0  0  0
    6.7670    0.7803   -0.0712 H   0  0  0  0  0  0  0  0  0  0  0  0
    5.3218   -1.1930   -0.3530 H   0  0  0  0  0  0  0  0  0  0  0  0
    0.8777   -3.8121   -0.9711 H   0  0  0  0  0  0  0  0  0  0  0  0
   -7.7423    1.7791   -0.3416 H   0  0  0  0  0  0  0  0  0  0  0  0
   -7.9519    0.0130   -0.2685 H   0  0  0  0  0  0  0  0  0  0  0  0
   -7.3873    0.9024    1.1662 H   0  0  0  0  0  0  0  0  0  0  0  0
  1  2  1  0  0  0  0
  2  3  2  0  0  0  0
  3  4  1  0  0  0  0
  4  5  1  0  0  0  0
  5  6  1  0  0  0  0
  6  7  2  0  0  0  0
  7  8  1  0  0  0  0
  8  9  2  0  0  0  0
  9 10  1  0  0  0  0
 10 11  2  0  0  0  0
  6 11  1  0  0  0  0
 11 12  1  0  0  0  0
 10 13  1  0  0  0  0
 13 14  2  0  0  0  0
 13 15  1  0  0  0  0
 15 16  2  0  0  0  0
 16 17  1  0  0  0  0
 17 18  2  0  0  0  0
 18 19  1  0  0  0  0
 19 20  2  0  0  0  0
 15 20  1  0  0  0  0
 20 21  1  0  0  0  0
  9 21  1  0  0  0  0
 21 22  2  0  0  0  0
  8 23  1  0  0  0  0
  2 24  1  0  0  0  0
  1 25  1  0  0  0  0
  1 26  1  0  0  0  0
  1 27  1  0  0  0  0
  3 28  1  0  0  0  0
  4 29  1  0  0  0  0
  4 30  1  0  0  0  0
  5 31  1  0  0  0  0
  5 32  1  0  0  0  0
  7 33  1  0  0  0  0
 12 34  1  0  0  0  0
 16 35  1  0  0  0  0
 17 36  1  0  0  0  0
 18 37  1  0  0  0  0
 19 38  1  0  0  0  0
 23 39  1  0  0  0  0
 24 40  1  0  0  0  0
 24 41  1  0  0  0  0
 24 42  1  0  0  0  0
M  END
$$$$
