C27H23O16
APtclcactv06291802443D 0   0.00000     0.00000
 
 66 70  0  0  0  0  0  0  0  0999 V2000
   -0.9487   -0.8268    2.7394 C   0  0  0  0  0  0  0  0  0  0  0  0
   -2.1970   -1.1422    3.2328 C   0  0  0  0  0  0  0  0  0  0  0  0
   -3.2889   -0.3414    2.9295 C   0  0  0  0  0  0  0  0  0  0  0  0
   -3.1281    0.7851    2.1253 C   0  0  0  0  0  0  0  0  0  0  0  0
   -1.8790    1.1065    1.6281 C   0  0  0  0  0  0  0  0  0  0  0  0
   -0.7810    0.3003    1.9332 C   0  0  0  0  0  0  0  0  0  0  0  0
    0.5578    0.6401    1.4035 C   0  0  0  0  0  0  0  0  0  0  0  0
    0.9200    1.7936    1.4703 O   0  3  0  0  0  0  0  0  0  0  0  0
    1.9828    2.2475    1.0862 C   0  0  0  0  0  0  0  0  0  0  0  0
    2.3208    3.6021    1.2030 C   0  0  0  0  0  0  0  0  0  0  0  0
    3.5467    4.0431    0.7432 C   0  0  0  0  0  0  0  0  0  0  0  0
    4.4719    3.1766    0.1588 C   0  0  0  0  0  0  0  0  0  0  0  0
    4.1725    1.8362    0.0276 C   0  0  0  0  0  0  0  0  0  0  0  0
    2.9296    1.3852    0.4935 C   0  0  0  0  0  0  0  0  0  0  0  0
    2.5882   -0.0351    0.3653 C   0  0  0  0  0  0  0  0  0  0  0  0
    1.3374   -0.4000    0.8565 C   0  0  0  0  0  0  0  0  0  0  0  0
    0.8906   -1.6816    0.8038 O   0  0  0  0  0  0  0  0  0  0  0  0
    0.6924   -2.2467   -0.4936 C   0  0  0  0  0  0  0  0  0  0  0  0
    0.4529   -3.7531   -0.3632 C   0  0  0  0  0  0  0  0  0  0  0  0
   -0.8249   -3.9908    0.4475 C   0  0  0  0  0  0  0  0  0  0  0  0
   -1.9921   -3.2738   -0.2380 C   0  0  0  0  0  0  0  0  0  0  0  0
   -1.6581   -1.7859   -0.3733 C   0  0  0  0  0  0  0  0  0  0  0  0
   -0.4431   -1.6368   -1.1106 O   0  0  0  0  0  0  0  0  0  0  0  0
   -2.7934   -1.0732   -1.1109 C   0  0  0  0  0  0  0  0  0  0  0  0
   -2.5331    0.3551   -1.1354 O   0  0  0  0  0  0  0  0  0  0  0  0
   -3.4409    1.1295   -1.7501 C   0  0  0  0  0  0  0  0  0  0  0  0
   -4.4206    0.6305   -2.2512 O   0  0  0  0  0  0  0  0  0  0  0  0
   -3.2382    2.6214   -1.8153 C   0  0  0  0  0  0  0  0  0  0  0  0
   -4.3906    3.2531   -2.5530 C   0  0  0  0  0  0  0  0  0  0  0  0
   -5.2847    2.5628   -2.9817 O   0  0  0  0  0  0  0  0  0  0  0  0
   -4.4237    4.5828   -2.7336 O   0  0  0  0  0  0  0  0  0  0  0  0
   -2.2024   -3.8358   -1.5349 O   0  0  0  0  0  0  0  0  0  0  0  0
   -1.0963   -5.3923    0.5120 O   0  0  0  0  0  0  0  0  0  0  0  0
    0.3073   -4.3279   -1.6634 O   0  0  0  0  0  0  0  0  0  0  0  0
    3.5730   -0.9158   -0.2481 C   0  0  0  0  0  0  0  0  0  0  0  0
    4.7466   -0.3644   -0.6628 C   0  0  0  0  0  0  0  0  0  0  0  0
    5.0273    0.9501   -0.5297 O   0  0  0  0  0  0  0  0  0  0  0  0
    5.7538   -1.2392   -1.2850 C   0  0  0  0  0  0  0  0  0  0  0  0
    5.5284   -2.4259   -1.4188 O   0  0  0  0  0  0  0  0  0  0  0  0
    6.9263   -0.7239   -1.7063 O   0  0  0  0  0  0  0  0  0  0  0  0
    3.8608    5.3590    0.8630 O   0  0  0  0  0  0  0  0  0  0  0  0
   -4.2000    1.5679    1.8292 O   0  0  0  0  0  0  0  0  0  0  0  0
   -4.5174   -0.6567    3.4173 O   0  0  0  0  0  0  0  0  0  0  0  0
   -0.0998   -1.4494    2.9804 H   0  0  0  0  0  0  0  0  0  0  0  0
   -2.3253   -2.0146    3.8565 H   0  0  0  0  0  0  0  0  0  0  0  0
   -1.7530    1.9791    1.0044 H   0  0  0  0  0  0  0  0  0  0  0  0
    1.6264    4.2981    1.6499 H   0  0  0  0  0  0  0  0  0  0  0  0
    5.4211    3.5552   -0.1906 H   0  0  0  0  0  0  0  0  0  0  0  0
    1.5770   -2.0709   -1.1057 H   0  0  0  0  0  0  0  0  0  0  0  0
    1.2989   -4.2136    0.1470 H   0  0  0  0  0  0  0  0  0  0  0  0
   -0.6959   -3.5963    1.4554 H   0  0  0  0  0  0  0  0  0  0  0  0
   -2.8946   -3.3915    0.3617 H   0  0  0  0  0  0  0  0  0  0  0  0
   -1.5377   -1.3488    0.6180 H   0  0  0  0  0  0  0  0  0  0  0  0
   -2.8552   -1.4488   -2.1323 H   0  0  0  0  0  0  0  0  0  0  0  0
   -3.7357   -1.2620   -0.5967 H   0  0  0  0  0  0  0  0  0  0  0  0
   -3.1885    3.0259   -0.8044 H   0  0  0  0  0  0  0  0  0  0  0  0
   -2.3079    2.8391   -2.3400 H   0  0  0  0  0  0  0  0  0  0  0  0
   -5.1830    4.9420   -3.2127 H   0  0  0  0  0  0  0  0  0  0  0  0
   -2.4139   -4.7794   -1.5250 H   0  0  0  0  0  0  0  0  0  0  0  0
   -0.3942   -5.9101    0.9290 H   0  0  0  0  0  0  0  0  0  0  0  0
    1.0792   -4.2105   -2.2339 H   0  0  0  0  0  0  0  0  0  0  0  0
    3.3787   -1.9713   -0.3695 H   0  0  0  0  0  0  0  0  0  0  0  0
    7.5562   -1.3375   -2.1086 H   0  0  0  0  0  0  0  0  0  0  0  0
    4.3059    5.5833    1.6916 H   0  0  0  0  0  0  0  0  0  0  0  0
   -4.3507    2.2840    2.4613 H   0  0  0  0  0  0  0  0  0  0  0  0
   -4.7135   -0.2585    4.2764 H   0  0  0  0  0  0  0  0  0  0  0  0
  1  2  2  0  0  0  0
  2  3  1  0  0  0  0
  3  4  2  0  0  0  0
  4  5  1  0  0  0  0
  5  6  2  0  0  0  0
  1  6  1  0  0  0  0
  6  7  1  0  0  0  0
  7  8  2  0  0  0  0
  8  9  1  0  0  0  0
  9 10  2  0  0  0  0
 10 11  1  0  0  0  0
 11 12  2  0  0  0  0
 12 13  1  0  0  0  0
 13 14  2  0  0  0  0
  9 14  1  0  0  0  0
 14 15  1  0  0  0  0
 15 16  2  0  0  0  0
  7 16  1  0  0  0  0
 16 17  1  0  0  0  0
 17 18  1  0  0  0  0
 18 19  1  0  0  0  0
 19 20  1  0  0  0  0
 20 21  1  0  0  0  0
 21 22  1  0  0  0  0
 22 23  1  0  0  0  0
 18 23  1  0  0  0  0
 22 24  1  0  0  0  0
 24 25  1  0  0  0  0
 25 26  1  0  0  0  0
 26 27  2  0  0  0  0
 26 28  1  0  0  0  0
 28 29  1  0  0  0  0
 29 30  2  0  0  0  0
 29 31  1  0  0  0  0
 21 32  1  0  0  0  0
 20 33  1  0  0  0  0
 19 34  1  0  0  0  0
 15 35  1  0  0  0  0
 35 36  2  0  0  0  0
 36 37  1  0  0  0  0
 13 37  1  0  0  0  0
 36 38  1  0  0  0  0
 38 39  2  0  0  0  0
 38 40  1  0  0  0  0
 11 41  1  0  0  0  0
  4 42  1  0  0  0  0
  3 43  1  0  0  0  0
  1 44  1  0  0  0  0
  2 45  1  0  0  0  0
  5 46  1  0  0  0  0
 10 47  1  0  0  0  0
 12 48  1  0  0  0  0
 18 49  1  0  0  0  0
 19 50  1  0  0  0  0
 20 51  1  0  0  0  0
 21 52  1  0  0  0  0
 22 53  1  0  0  0  0
 24 54  1  0  0  0  0
 24 55  1  0  0  0  0
 28 56  1  0  0  0  0
 28 57  1  0  0  0  0
 31 58  1  0  0  0  0
 32 59  1  0  0  0  0
 33 60  1  0  0  0  0
 34 61  1  0  0  0  0
 35 62  1  0  0  0  0
 40 63  1  0  0  0  0
 41 64  1  0  0  0  0
 42 65  1  0  0  0  0
 43 66  1  0  0  0  0
M  CHG  1   8   1
M  END
$$$$
