C30H18O10
APtclcactv06291802443D 0   0.00000     0.00000
 
 58 63  0  0  0  0  0  0  0  0999 V2000
    3.2140   -2.2061   -1.0142 C   0  0  0  0  0  0  0  0  0  0  0  0
    1.9879   -2.8143   -0.8614 C   0  0  0  0  0  0  0  0  0  0  0  0
    1.1928   -2.5132    0.2384 C   0  0  0  0  0  0  0  0  0  0  0  0
    1.6312   -1.5977    1.1881 C   0  0  0  0  0  0  0  0  0  0  0  0
    2.8561   -0.9854    1.0431 C   0  0  0  0  0  0  0  0  0  0  0  0
    3.6588   -1.2852   -0.0613 C   0  0  0  0  0  0  0  0  0  0  0  0
    4.9717   -0.6321   -0.2205 C   0  0  0  0  0  0  0  0  0  0  0  0
    5.7303   -0.9442   -1.3056 C   0  0  0  0  0  0  0  0  0  0  0  0
    6.9924   -0.3273   -1.4753 C   0  0  0  0  0  0  0  0  0  0  0  0
    7.6991   -0.5833   -2.4369 O   0  0  0  0  0  0  0  0  0  0  0  0
    7.4197    0.6361   -0.4466 C   0  0  0  0  0  0  0  0  0  0  0  0
    8.6527    1.2940   -0.5340 C   0  0  0  0  0  0  0  0  0  0  0  0
    9.0167    2.1920    0.4527 C   0  0  0  0  0  0  0  0  0  0  0  0
    8.1637    2.4379    1.5227 C   0  0  0  0  0  0  0  0  0  0  0  0
    6.9414    1.7899    1.6153 C   0  0  0  0  0  0  0  0  0  0  0  0
    6.5589    0.8870    0.6361 C   0  0  0  0  0  0  0  0  0  0  0  0
    5.3699    0.2517    0.7083 O   0  0  0  0  0  0  0  0  0  0  0  0
    8.5313    3.3207    2.4863 O   0  0  0  0  0  0  0  0  0  0  0  0
    9.4843    1.0519   -1.5787 O   0  0  0  0  0  0  0  0  0  0  0  0
   -0.0151   -3.1146    0.3851 O   0  0  0  0  0  0  0  0  0  0  0  0
   -1.1285   -2.3450    0.2716 C   0  0  0  0  0  0  0  0  0  0  0  0
   -2.3817   -2.8897    0.5482 C   0  0  0  0  0  0  0  0  0  0  0  0
   -3.5152   -2.1081    0.4337 C   0  0  0  0  0  0  0  0  0  0  0  0
   -3.4018   -0.7718    0.0403 C   0  0  0  0  0  0  0  0  0  0  0  0
   -2.1424   -0.2322   -0.2354 C   0  0  0  0  0  0  0  0  0  0  0  0
   -1.0155   -1.0159   -0.1141 C   0  0  0  0  0  0  0  0  0  0  0  0
   -4.6088    0.0671   -0.0840 C   0  0  0  0  0  0  0  0  0  0  0  0
   -4.4671    1.3640   -0.4688 C   0  0  0  0  0  0  0  0  0  0  0  0
   -5.6136    2.1840   -0.5936 C   0  0  0  0  0  0  0  0  0  0  0  0
   -5.5237    3.3517   -0.9369 O   0  0  0  0  0  0  0  0  0  0  0  0
   -6.9197    1.5731   -0.2936 C   0  0  0  0  0  0  0  0  0  0  0  0
   -8.1065    2.3097   -0.3912 C   0  0  0  0  0  0  0  0  0  0  0  0
   -9.3129    1.6988   -0.1011 C   0  0  0  0  0  0  0  0  0  0  0  0
   -9.3447    0.3634    0.2842 C   0  0  0  0  0  0  0  0  0  0  0  0
   -8.1732   -0.3717    0.3833 C   0  0  0  0  0  0  0  0  0  0  0  0
   -6.9547    0.2230    0.0963 C   0  0  0  0  0  0  0  0  0  0  0  0
   -5.8055   -0.4802    0.1817 O   0  0  0  0  0  0  0  0  0  0  0  0
  -10.5343   -0.2266    0.5667 O   0  0  0  0  0  0  0  0  0  0  0  0
   -8.0732    3.6132   -0.7671 O   0  0  0  0  0  0  0  0  0  0  0  0
   -2.4884   -4.1904    0.9303 O   0  0  0  0  0  0  0  0  0  0  0  0
    3.8329   -2.4436   -1.8668 H   0  0  0  0  0  0  0  0  0  0  0  0
    1.6435   -3.5259   -1.5971 H   0  0  0  0  0  0  0  0  0  0  0  0
    1.0101   -1.3661    2.0408 H   0  0  0  0  0  0  0  0  0  0  0  0
    3.1958   -0.2739    1.7813 H   0  0  0  0  0  0  0  0  0  0  0  0
    5.3719   -1.6582   -2.0324 H   0  0  0  0  0  0  0  0  0  0  0  0
    9.9661    2.7033    0.3921 H   0  0  0  0  0  0  0  0  0  0  0  0
    6.2870    1.9889    2.4511 H   0  0  0  0  0  0  0  0  0  0  0  0
    8.2565    4.2311    2.3111 H   0  0  0  0  0  0  0  0  0  0  0  0
    9.3440    1.6359   -2.3366 H   0  0  0  0  0  0  0  0  0  0  0  0
   -4.4866   -2.5289    0.6473 H   0  0  0  0  0  0  0  0  0  0  0  0
   -2.0520    0.8001   -0.5395 H   0  0  0  0  0  0  0  0  0  0  0  0
   -0.0429   -0.5977   -0.3274 H   0  0  0  0  0  0  0  0  0  0  0  0
   -3.4863    1.7653   -0.6774 H   0  0  0  0  0  0  0  0  0  0  0  0
  -10.2324    2.2606   -0.1738 H   0  0  0  0  0  0  0  0  0  0  0  0
   -8.2102   -1.4082    0.6844 H   0  0  0  0  0  0  0  0  0  0  0  0
  -10.9597   -0.6396   -0.1972 H   0  0  0  0  0  0  0  0  0  0  0  0
   -8.1441    3.7492   -1.7218 H   0  0  0  0  0  0  0  0  0  0  0  0
   -2.4376   -4.3249    1.8866 H   0  0  0  0  0  0  0  0  0  0  0  0
  1  2  2  0  0  0  0
  2  3  1  0  0  0  0
  3  4  2  0  0  0  0
  4  5  1  0  0  0  0
  5  6  2  0  0  0  0
  1  6  1  0  0  0  0
  6  7  1  0  0  0  0
  7  8  2  0  0  0  0
  8  9  1  0  0  0  0
  9 10  2  0  0  0  0
  9 11  1  0  0  0  0
 11 12  2  0  0  0  0
 12 13  1  0  0  0  0
 13 14  2  0  0  0  0
 14 15  1  0  0  0  0
 15 16  2  0  0  0  0
 11 16  1  0  0  0  0
 16 17  1  0  0  0  0
  7 17  1  0  0  0  0
 14 18  1  0  0  0  0
 12 19  1  0  0  0  0
  3 20  1  0  0  0  0
 20 21  1  0  0  0  0
 21 22  2  0  0  0  0
 22 23  1  0  0  0  0
 23 24  2  0  0  0  0
 24 25  1  0  0  0  0
 25 26  2  0  0  0  0
 21 26  1  0  0  0  0
 24 27  1  0  0  0  0
 27 28  2  0  0  0  0
 28 29  1  0  0  0  0
 29 30  2  0  0  0  0
 29 31  1  0  0  0  0
 31 32  2  0  0  0  0
 32 33  1  0  0  0  0
 33 34  2  0  0  0  0
 34 35  1  0  0  0  0
 35 36  2  0  0  0  0
 31 36  1  0  0  0  0
 36 37  1  0  0  0  0
 27 37  1  0  0  0  0
 34 38  1  0  0  0  0
 32 39  1  0  0  0  0
 22 40  1  0  0  0  0
  1 41  1  0  0  0  0
  2 42  1  0  0  0  0
  4 43  1  0  0  0  0
  5 44  1  0  0  0  0
  8 45  1  0  0  0  0
 13 46  1  0  0  0  0
 15 47  1  0  0  0  0
 18 48  1  0  0  0  0
 19 49  1  0  0  0  0
 23 50  1  0  0  0  0
 25 51  1  0  0  0  0
 26 52  1  0  0  0  0
 28 53  1  0  0  0  0
 33 54  1  0  0  0  0
 35 55  1  0  0  0  0
 38 56  1  0  0  0  0
 39 57  1  0  0  0  0
 40 58  1  0  0  0  0
M  END
$$$$
