C25H26O6
APtclcactv06291802443D 0   0.00000     0.00000
 
 57 60  0  0  0  0  0  0  0  0999 V2000
   -0.1592    5.6275    1.1942 C   0  0  0  0  0  0  0  0  0  0  0  0
   -0.2235    4.6724    0.0006 C   0  0  0  0  0  0  0  0  0  0  0  0
   -0.6613    3.2867    0.4793 C   0  0  0  0  0  0  0  0  0  0  0  0
   -2.0922    3.3610    1.0158 C   0  0  0  0  0  0  0  0  0  0  0  0
   -0.6064    2.3168   -0.6727 C   0  0  0  0  0  0  0  0  0  0  0  0
   -0.7488    2.7164   -1.8098 O   0  0  0  0  0  0  0  0  0  0  0  0
   -0.3817    0.8937   -0.4205 C   0  0  0  0  0  0  0  0  0  0  0  0
    0.9237    0.4062   -0.2763 C   0  0  0  0  0  0  0  0  0  0  0  0
    1.1305   -0.9569   -0.0377 C   0  0  0  0  0  0  0  0  0  0  0  0
    0.0307   -1.8306    0.0526 C   0  0  0  0  0  0  0  0  0  0  0  0
   -1.2555   -1.3355   -0.0942 C   0  0  0  0  0  0  0  0  0  0  0  0
   -1.4843    0.0108   -0.3166 C   0  0  0  0  0  0  0  0  0  0  0  0
   -2.8136    0.2779   -0.4046 O   0  0  0  0  0  0  0  0  0  0  0  0
   -3.5234   -0.9384   -0.6937 C   0  0  0  0  0  0  0  0  0  0  0  0
   -2.6097   -2.0195   -0.0659 C   0  0  0  0  0  0  0  0  0  0  0  0
   -4.8981   -0.9371   -0.0221 C   0  0  0  0  0  0  0  0  0  0  0  0
   -5.7304    0.2258   -0.5659 C   0  0  0  0  0  0  0  0  0  0  0  0
   -5.6118   -2.2576   -0.3187 C   0  0  0  0  0  0  0  0  0  0  0  0
   -4.7381   -0.7889    1.3902 O   0  0  0  0  0  0  0  0  0  0  0  0
    0.2357   -3.1456    0.2812 O   0  0  0  0  0  0  0  0  0  0  0  0
    1.4673   -3.6587    0.4279 C   0  0  0  0  0  0  0  0  0  0  0  0
    1.5903   -4.8538    0.6313 O   0  0  0  0  0  0  0  0  0  0  0  0
    2.6179   -2.8578    0.3532 C   0  0  0  0  0  0  0  0  0  0  0  0
    2.4877   -1.5001    0.1215 C   0  0  0  0  0  0  0  0  0  0  0  0
    3.6761   -0.6228    0.0362 C   0  0  0  0  0  0  0  0  0  0  0  0
    4.5963   -0.7881   -0.9999 C   0  0  0  0  0  0  0  0  0  0  0  0
    5.7023    0.0332   -1.0737 C   0  0  0  0  0  0  0  0  0  0  0  0
    5.9005    1.0189   -0.1231 C   0  0  0  0  0  0  0  0  0  0  0  0
    4.9922    1.1877    0.9069 C   0  0  0  0  0  0  0  0  0  0  0  0
    3.8786    0.3774    0.9884 C   0  0  0  0  0  0  0  0  0  0  0  0
    1.9792    1.2491   -0.3676 O   0  0  0  0  0  0  0  0  0  0  0  0
    0.1526    6.6147    0.8532 H   0  0  0  0  0  0  0  0  0  0  0  0
   -1.1436    5.6972    1.6571 H   0  0  0  0  0  0  0  0  0  0  0  0
    0.5590    5.2511    1.9225 H   0  0  0  0  0  0  0  0  0  0  0  0
   -0.9418    5.0489   -0.7277 H   0  0  0  0  0  0  0  0  0  0  0  0
    0.7608    4.6027   -0.4623 H   0  0  0  0  0  0  0  0  0  0  0  0
    0.0066    2.9482    1.2714 H   0  0  0  0  0  0  0  0  0  0  0  0
   -2.4041    2.3738    1.3568 H   0  0  0  0  0  0  0  0  0  0  0  0
   -2.1319    4.0625    1.8491 H   0  0  0  0  0  0  0  0  0  0  0  0
   -2.7601    3.6995    0.2237 H   0  0  0  0  0  0  0  0  0  0  0  0
   -3.6177   -1.0845   -1.7697 H   0  0  0  0  0  0  0  0  0  0  0  0
   -2.5990   -2.9228   -0.6758 H   0  0  0  0  0  0  0  0  0  0  0  0
   -2.9169   -2.2442    0.9555 H   0  0  0  0  0  0  0  0  0  0  0  0
   -5.8524    0.1127   -1.6431 H   0  0  0  0  0  0  0  0  0  0  0  0
   -6.7097    0.2267   -0.0874 H   0  0  0  0  0  0  0  0  0  0  0  0
   -5.2219    1.1665   -0.3546 H   0  0  0  0  0  0  0  0  0  0  0  0
   -5.0189   -3.0861    0.0688 H   0  0  0  0  0  0  0  0  0  0  0  0
   -6.5912   -2.2567    0.1598 H   0  0  0  0  0  0  0  0  0  0  0  0
   -5.7338   -2.3706   -1.3959 H   0  0  0  0  0  0  0  0  0  0  0  0
   -5.5710   -0.7797    1.8815 H   0  0  0  0  0  0  0  0  0  0  0  0
    3.5965   -3.2978    0.4757 H   0  0  0  0  0  0  0  0  0  0  0  0
    4.4431   -1.5575   -1.7421 H   0  0  0  0  0  0  0  0  0  0  0  0
    6.4152   -0.0937   -1.8750 H   0  0  0  0  0  0  0  0  0  0  0  0
    6.7681    1.6590   -0.1851 H   0  0  0  0  0  0  0  0  0  0  0  0
    5.1530    1.9584    1.6462 H   0  0  0  0  0  0  0  0  0  0  0  0
    3.1702    0.5103    1.7926 H   0  0  0  0  0  0  0  0  0  0  0  0
    2.2443    1.6402    0.4761 H   0  0  0  0  0  0  0  0  0  0  0  0
  1  2  1  0  0  0  0
  2  3  1  0  0  0  0
  3  4  1  0  0  0  0
  3  5  1  0  0  0  0
  5  6  2  0  0  0  0
  5  7  1  0  0  0  0
  7  8  2  0  0  0  0
  8  9  1  0  0  0  0
  9 10  2  0  0  0  0
 10 11  1  0  0  0  0
 11 12  2  0  0  0  0
  7 12  1  0  0  0  0
 12 13  1  0  0  0  0
 13 14  1  0  0  0  0
 14 15  1  0  0  0  0
 11 15  1  0  0  0  0
 14 16  1  0  0  0  0
 16 17  1  0  0  0  0
 16 18  1  0  0  0  0
 16 19  1  0  0  0  0
 10 20  1  0  0  0  0
 20 21  1  0  0  0  0
 21 22  2  0  0  0  0
 21 23  1  0  0  0  0
 23 24  2  0  0  0  0
  9 24  1  0  0  0  0
 24 25  1  0  0  0  0
 25 26  2  0  0  0  0
 26 27  1  0  0  0  0
 27 28  2  0  0  0  0
 28 29  1  0  0  0  0
 29 30  2  0  0  0  0
 25 30  1  0  0  0  0
  8 31  1  0  0  0  0
  1 32  1  0  0  0  0
  1 33  1  0  0  0  0
  1 34  1  0  0  0  0
  2 35  1  0  0  0  0
  2 36  1  0  0  0  0
  3 37  1  0  0  0  0
  4 38  1  0  0  0  0
  4 39  1  0  0  0  0
  4 40  1  0  0  0  0
 14 41  1  0  0  0  0
 15 42  1  0  0  0  0
 15 43  1  0  0  0  0
 17 44  1  0  0  0  0
 17 45  1  0  0  0  0
 17 46  1  0  0  0  0
 18 47  1  0  0  0  0
 18 48  1  0  0  0  0
 18 49  1  0  0  0  0
 19 50  1  0  0  0  0
 23 51  1  0  0  0  0
 26 52  1  0  0  0  0
 27 53  1  0  0  0  0
 28 54  1  0  0  0  0
 29 55  1  0  0  0  0
 30 56  1  0  0  0  0
 31 57  1  0  0  0  0
M  END
$$$$
