C36H54O8
APtclcactv06291802443D 0   0.00000     0.00000
 
 98 99  0  0  0  0  0  0  0  0999 V2000
    9.6581   -9.4584   -0.7162 C   0  0  0  0  0  0  0  0  0  0  0  0
    8.4390   -8.5660   -0.9579 C   0  0  0  0  0  0  0  0  0  0  0  0
    8.6800   -7.1921   -0.3294 C   0  0  0  0  0  0  0  0  0  0  0  0
    7.4610   -6.2997   -0.5712 C   0  0  0  0  0  0  0  0  0  0  0  0
    7.7020   -4.9258    0.0573 C   0  0  0  0  0  0  0  0  0  0  0  0
    6.4829   -4.0334   -0.1844 C   0  0  0  0  0  0  0  0  0  0  0  0
    6.7239   -2.6594    0.4441 C   0  0  0  0  0  0  0  0  0  0  0  0
    5.5048   -1.7671    0.2023 C   0  0  0  0  0  0  0  0  0  0  0  0
    5.7458   -0.3931    0.8308 C   0  0  0  0  0  0  0  0  0  0  0  0
    4.5267    0.4992    0.5891 C   0  0  0  0  0  0  0  0  0  0  0  0
    4.7678    1.8732    1.2176 C   0  0  0  0  0  0  0  0  0  0  0  0
    3.5670    2.7521    0.9795 C   0  0  0  0  0  0  0  0  0  0  0  0
    2.6038    2.8483    1.9202 C   0  0  0  0  0  0  0  0  0  0  0  0
    1.4197    3.7150    1.6853 C   0  0  0  0  0  0  0  0  0  0  0  0
    0.5525    3.8012    2.5319 O   0  0  0  0  0  0  0  0  0  0  0  0
    1.2981    4.4662    0.4325 C   0  0  0  0  0  0  0  0  0  0  0  0
    2.2616    4.3704   -0.5080 C   0  0  0  0  0  0  0  0  0  0  0  0
    3.4480    3.5073   -0.2713 C   0  0  0  0  0  0  0  0  0  0  0  0
    4.3152    3.4211   -1.1178 O   0  0  0  0  0  0  0  0  0  0  0  0
    2.1492    5.0633   -1.6644 O   0  0  0  0  0  0  0  0  0  0  0  0
    0.0974    5.3451    0.1944 C   0  0  0  0  0  0  0  0  0  0  0  0
    0.4037    6.3326   -0.9334 C   0  0  0  0  0  0  0  0  0  0  0  0
   -1.0819    4.4904   -0.1928 C   0  0  0  0  0  0  0  0  0  0  0  0
   -2.2227    4.5486    0.5263 C   0  0  0  0  0  0  0  0  0  0  0  0
   -3.3855    3.7057    0.1445 C   0  0  0  0  0  0  0  0  0  0  0  0
   -4.4122    3.7577    0.7921 O   0  0  0  0  0  0  0  0  0  0  0  0
   -3.2940    2.8118   -1.0137 C   0  0  0  0  0  0  0  0  0  0  0  0
   -2.1534    2.7540   -1.7331 C   0  0  0  0  0  0  0  0  0  0  0  0
   -0.9921    3.6003   -1.3541 C   0  0  0  0  0  0  0  0  0  0  0  0
    0.0346    3.5483   -2.0016 O   0  0  0  0  0  0  0  0  0  0  0  0
   -2.0687    1.9288   -2.8016 O   0  0  0  0  0  0  0  0  0  0  0  0
   -4.4732    1.9571   -1.4008 C   0  0  0  0  0  0  0  0  0  0  0  0
   -4.4545    0.6627   -0.5853 C   0  0  0  0  0  0  0  0  0  0  0  0
   -5.6517   -0.2051   -0.9784 C   0  0  0  0  0  0  0  0  0  0  0  0
   -5.6330   -1.4995   -0.1629 C   0  0  0  0  0  0  0  0  0  0  0  0
   -6.8302   -2.3673   -0.5560 C   0  0  0  0  0  0  0  0  0  0  0  0
   -6.8115   -3.6617    0.2595 C   0  0  0  0  0  0  0  0  0  0  0  0
   -8.0087   -4.5295   -0.1335 C   0  0  0  0  0  0  0  0  0  0  0  0
   -7.9900   -5.8239    0.6820 C   0  0  0  0  0  0  0  0  0  0  0  0
   -9.1872   -6.6917    0.2889 C   0  0  0  0  0  0  0  0  0  0  0  0
   -9.1685   -7.9861    1.1044 C   0  0  0  0  0  0  0  0  0  0  0  0
  -10.3657   -8.8539    0.7113 C   0  0  0  0  0  0  0  0  0  0  0  0
   -2.3073    5.3737    1.5949 O   0  0  0  0  0  0  0  0  0  0  0  0
    2.7161    2.1553    3.0765 O   0  0  0  0  0  0  0  0  0  0  0  0
    9.4864  -10.4372   -1.1639 H   0  0  0  0  0  0  0  0  0  0  0  0
   10.5383   -9.0014   -1.1684 H   0  0  0  0  0  0  0  0  0  0  0  0
    9.8181   -9.5723    0.3560 H   0  0  0  0  0  0  0  0  0  0  0  0
    8.2790   -8.4521   -2.0301 H   0  0  0  0  0  0  0  0  0  0  0  0
    7.5588   -9.0231   -0.5058 H   0  0  0  0  0  0  0  0  0  0  0  0
    8.8400   -7.3060    0.7427 H   0  0  0  0  0  0  0  0  0  0  0  0
    9.5603   -6.7350   -0.7816 H   0  0  0  0  0  0  0  0  0  0  0  0
    7.3010   -6.1858   -1.6433 H   0  0  0  0  0  0  0  0  0  0  0  0
    6.5808   -6.7568   -0.1190 H   0  0  0  0  0  0  0  0  0  0  0  0
    7.8620   -5.0397    1.1295 H   0  0  0  0  0  0  0  0  0  0  0  0
    8.5822   -4.4687   -0.3949 H   0  0  0  0  0  0  0  0  0  0  0  0
    6.3229   -3.9195   -1.2566 H   0  0  0  0  0  0  0  0  0  0  0  0
    5.6027   -4.4904    0.2677 H   0  0  0  0  0  0  0  0  0  0  0  0
    6.8839   -2.7733    1.5162 H   0  0  0  0  0  0  0  0  0  0  0  0
    7.6041   -2.2024   -0.0081 H   0  0  0  0  0  0  0  0  0  0  0  0
    5.3448   -1.6532   -0.8698 H   0  0  0  0  0  0  0  0  0  0  0  0
    4.6246   -2.2241    0.6545 H   0  0  0  0  0  0  0  0  0  0  0  0
    5.9058   -0.5070    1.9030 H   0  0  0  0  0  0  0  0  0  0  0  0
    6.6260    0.0639    0.3786 H   0  0  0  0  0  0  0  0  0  0  0  0
    4.3667    0.6131   -0.4831 H   0  0  0  0  0  0  0  0  0  0  0  0
    3.6465    0.0422    1.0412 H   0  0  0  0  0  0  0  0  0  0  0  0
    4.9278    1.7593    2.2897 H   0  0  0  0  0  0  0  0  0  0  0  0
    5.6480    2.3302    0.7654 H   0  0  0  0  0  0  0  0  0  0  0  0
    2.8870    4.9312   -2.2754 H   0  0  0  0  0  0  0  0  0  0  0  0
   -0.1365    5.8955    1.1057 H   0  0  0  0  0  0  0  0  0  0  0  0
   -0.3703    7.0993   -0.9653 H   0  0  0  0  0  0  0  0  0  0  0  0
    1.3716    6.8006   -0.7537 H   0  0  0  0  0  0  0  0  0  0  0  0
    0.4282    5.8013   -1.8849 H   0  0  0  0  0  0  0  0  0  0  0  0
   -1.2141    1.9563   -3.2531 H   0  0  0  0  0  0  0  0  0  0  0  0
   -5.3969    2.4998   -1.1999 H   0  0  0  0  0  0  0  0  0  0  0  0
   -4.4158    1.7183   -2.4628 H   0  0  0  0  0  0  0  0  0  0  0  0
   -3.5308    0.1200   -0.7863 H   0  0  0  0  0  0  0  0  0  0  0  0
   -4.5119    0.9014    0.4767 H   0  0  0  0  0  0  0  0  0  0  0  0
   -6.5754    0.3376   -0.7775 H   0  0  0  0  0  0  0  0  0  0  0  0
   -5.5943   -0.4439   -2.0404 H   0  0  0  0  0  0  0  0  0  0  0  0
   -4.7093   -2.0422   -0.3638 H   0  0  0  0  0  0  0  0  0  0  0  0
   -5.6904   -1.2608    0.8991 H   0  0  0  0  0  0  0  0  0  0  0  0
   -7.7539   -1.8246   -0.3550 H   0  0  0  0  0  0  0  0  0  0  0  0
   -6.7728   -2.6061   -1.6179 H   0  0  0  0  0  0  0  0  0  0  0  0
   -5.8878   -4.2044    0.0586 H   0  0  0  0  0  0  0  0  0  0  0  0
   -6.8689   -3.4229    1.3215 H   0  0  0  0  0  0  0  0  0  0  0  0
   -8.9324   -3.9868    0.0674 H   0  0  0  0  0  0  0  0  0  0  0  0
   -7.9513   -4.7683   -1.1955 H   0  0  0  0  0  0  0  0  0  0  0  0
   -7.0663   -6.3666    0.4810 H   0  0  0  0  0  0  0  0  0  0  0  0
   -8.0474   -5.5851    1.7439 H   0  0  0  0  0  0  0  0  0  0  0  0
  -10.1109   -6.1490    0.4898 H   0  0  0  0  0  0  0  0  0  0  0  0
   -9.1298   -6.9305   -0.7731 H   0  0  0  0  0  0  0  0  0  0  0  0
   -8.2448   -8.5288    0.9035 H   0  0  0  0  0  0  0  0  0  0  0  0
   -9.2259   -7.7473    2.1664 H   0  0  0  0  0  0  0  0  0  0  0  0
  -10.3524   -9.7761    1.2923 H   0  0  0  0  0  0  0  0  0  0  0  0
  -11.2894   -8.3112    0.9123 H   0  0  0  0  0  0  0  0  0  0  0  0
  -10.3083   -9.0927   -0.3507 H   0  0  0  0  0  0  0  0  0  0  0  0
   -3.1621    5.3465    2.0462 H   0  0  0  0  0  0  0  0  0  0  0  0
    1.9785    2.2878    3.6876 H   0  0  0  0  0  0  0  0  0  0  0  0
  1  2  1  0  0  0  0
  2  3  1  0  0  0  0
  3  4  1  0  0  0  0
  4  5  1  0  0  0  0
  5  6  1  0  0  0  0
  6  7  1  0  0  0  0
  7  8  1  0  0  0  0
  8  9  1  0  0  0  0
  9 10  1  0  0  0  0
 10 11  1  0  0  0  0
 11 12  1  0  0  0  0
 12 13  2  0  0  0  0
 13 14  1  0  0  0  0
 14 15  2  0  0  0  0
 14 16  1  0  0  0  0
 16 17  2  0  0  0  0
 17 18  1  0  0  0  0
 12 18  1  0  0  0  0
 18 19  2  0  0  0  0
 17 20  1  0  0  0  0
 16 21  1  0  0  0  0
 21 22  1  0  0  0  0
 21 23  1  0  0  0  0
 23 24  2  0  0  0  0
 24 25  1  0  0  0  0
 25 26  2  0  0  0  0
 25 27  1  0  0  0  0
 27 28  2  0  0  0  0
 28 29  1  0  0  0  0
 23 29  1  0  0  0  0
 29 30  2  0  0  0  0
 28 31  1  0  0  0  0
 27 32  1  0  0  0  0
 32 33  1  0  0  0  0
 33 34  1  0  0  0  0
 34 35  1  0  0  0  0
 35 36  1  0  0  0  0
 36 37  1  0  0  0  0
 37 38  1  0  0  0  0
 38 39  1  0  0  0  0
 39 40  1  0  0  0  0
 40 41  1  0  0  0  0
 41 42  1  0  0  0  0
 24 43  1  0  0  0  0
 13 44  1  0  0  0  0
  1 45  1  0  0  0  0
  1 46  1  0  0  0  0
  1 47  1  0  0  0  0
  2 48  1  0  0  0  0
  2 49  1  0  0  0  0
  3 50  1  0  0  0  0
  3 51  1  0  0  0  0
  4 52  1  0  0  0  0
  4 53  1  0  0  0  0
  5 54  1  0  0  0  0
  5 55  1  0  0  0  0
  6 56  1  0  0  0  0
  6 57  1  0  0  0  0
  7 58  1  0  0  0  0
  7 59  1  0  0  0  0
  8 60  1  0  0  0  0
  8 61  1  0  0  0  0
  9 62  1  0  0  0  0
  9 63  1  0  0  0  0
 10 64  1  0  0  0  0
 10 65  1  0  0  0  0
 11 66  1  0  0  0  0
 11 67  1  0  0  0  0
 20 68  1  0  0  0  0
 21 69  1  0  0  0  0
 22 70  1  0  0  0  0
 22 71  1  0  0  0  0
 22 72  1  0  0  0  0
 31 73  1  0  0  0  0
 32 74  1  0  0  0  0
 32 75  1  0  0  0  0
 33 76  1  0  0  0  0
 33 77  1  0  0  0  0
 34 78  1  0  0  0  0
 34 79  1  0  0  0  0
 35 80  1  0  0  0  0
 35 81  1  0  0  0  0
 36 82  1  0  0  0  0
 36 83  1  0  0  0  0
 37 84  1  0  0  0  0
 37 85  1  0  0  0  0
 38 86  1  0  0  0  0
 38 87  1  0  0  0  0
 39 88  1  0  0  0  0
 39 89  1  0  0  0  0
 40 90  1  0  0  0  0
 40 91  1  0  0  0  0
 41 92  1  0  0  0  0
 41 93  1  0  0  0  0
 42 94  1  0  0  0  0
 42 95  1  0  0  0  0
 42 96  1  0  0  0  0
 43 97  1  0  0  0  0
 44 98  1  0  0  0  0
M  END
$$$$
