C21H29NO3
APtclcactv06291802443D 0   0.00000     0.00000
 
 54 56  0  0  0  0  0  0  0  0999 V2000
   -9.1659    1.7641    0.5083 C   0  0  0  0  0  0  0  0  0  0  0  0
   -9.0762    0.3375    1.0551 C   0  0  0  0  0  0  0  0  0  0  0  0
   -8.3183   -0.5416    0.0552 C   0  0  0  0  0  0  0  0  0  0  0  0
   -7.0171    0.0789   -0.2286 N   0  0  0  0  0  0  0  0  0  0  0  0
   -6.9840    1.4787   -0.6738 C   0  0  0  0  0  0  0  0  0  0  0  0
   -7.7568    2.3351    0.3343 C   0  0  0  0  0  0  0  0  0  0  0  0
   -5.8755   -0.6225   -0.0829 C   0  0  0  0  0  0  0  0  0  0  0  0
   -5.9161   -1.7773    0.2857 O   0  0  0  0  0  0  0  0  0  0  0  0
   -4.5486    0.0280   -0.3779 C   0  0  0  0  0  0  0  0  0  0  0  0
   -3.4220   -0.9782   -0.1347 C   0  0  0  0  0  0  0  0  0  0  0  0
   -2.0748   -0.3177   -0.4342 C   0  0  0  0  0  0  0  0  0  0  0  0
   -0.9482   -1.3239   -0.1910 C   0  0  0  0  0  0  0  0  0  0  0  0
    0.3990   -0.6635   -0.4905 C   0  0  0  0  0  0  0  0  0  0  0  0
    1.5256   -1.6697   -0.2472 C   0  0  0  0  0  0  0  0  0  0  0  0
    2.8526   -1.0191   -0.5423 C   0  0  0  0  0  0  0  0  0  0  0  0
    3.8057   -1.0094    0.3795 C   0  0  0  0  0  0  0  0  0  0  0  0
    5.1069   -0.3715    0.0901 C   0  0  0  0  0  0  0  0  0  0  0  0
    6.1111   -0.3603    1.0590 C   0  0  0  0  0  0  0  0  0  0  0  0
    7.3274    0.2377    0.7847 C   0  0  0  0  0  0  0  0  0  0  0  0
    7.5484    0.8282   -0.4588 C   0  0  0  0  0  0  0  0  0  0  0  0
    6.5492    0.8165   -1.4210 C   0  0  0  0  0  0  0  0  0  0  0  0
    5.3364    0.2162   -1.1548 C   0  0  0  0  0  0  0  0  0  0  0  0
    8.8130    1.3422   -0.4778 O   0  0  0  0  0  0  0  0  0  0  0  0
    9.5043    0.7038    0.6117 C   0  0  0  0  0  0  0  0  0  0  0  0
    8.4538    0.3824    1.5424 O   0  0  0  0  0  0  0  0  0  0  0  0
   -9.6745    1.7522   -0.4556 H   0  0  0  0  0  0  0  0  0  0  0  0
   -9.7261    2.3860    1.2066 H   0  0  0  0  0  0  0  0  0  0  0  0
   -8.5458    0.3455    2.0073 H   0  0  0  0  0  0  0  0  0  0  0  0
  -10.0805   -0.0601    1.2009 H   0  0  0  0  0  0  0  0  0  0  0  0
   -8.1652   -1.5325    0.4826 H   0  0  0  0  0  0  0  0  0  0  0  0
   -8.8928   -0.6241   -0.8674 H   0  0  0  0  0  0  0  0  0  0  0  0
   -5.9504    1.8208   -0.7273 H   0  0  0  0  0  0  0  0  0  0  0  0
   -7.4496    1.5609   -1.6559 H   0  0  0  0  0  0  0  0  0  0  0  0
   -7.8221    3.3593   -0.0330 H   0  0  0  0  0  0  0  0  0  0  0  0
   -7.2389    2.3244    1.2933 H   0  0  0  0  0  0  0  0  0  0  0  0
   -4.5267    0.3535   -1.4180 H   0  0  0  0  0  0  0  0  0  0  0  0
   -4.4132    0.8900    0.2754 H   0  0  0  0  0  0  0  0  0  0  0  0
   -3.4438   -1.3036    0.9054 H   0  0  0  0  0  0  0  0  0  0  0  0
   -3.5573   -1.8401   -0.7880 H   0  0  0  0  0  0  0  0  0  0  0  0
   -2.0529    0.0077   -1.4743 H   0  0  0  0  0  0  0  0  0  0  0  0
   -1.9394    0.5442    0.2191 H   0  0  0  0  0  0  0  0  0  0  0  0
   -0.9700   -1.6494    0.8491 H   0  0  0  0  0  0  0  0  0  0  0  0
   -1.0835   -2.1859   -0.8443 H   0  0  0  0  0  0  0  0  0  0  0  0
    0.4209   -0.3380   -1.5306 H   0  0  0  0  0  0  0  0  0  0  0  0
    0.5344    0.1985    0.1628 H   0  0  0  0  0  0  0  0  0  0  0  0
    1.5038   -1.9951    0.7928 H   0  0  0  0  0  0  0  0  0  0  0  0
    1.3903   -2.5316   -0.9006 H   0  0  0  0  0  0  0  0  0  0  0  0
    3.0272   -0.5609   -1.5045 H   0  0  0  0  0  0  0  0  0  0  0  0
    3.6311   -1.4677    1.3417 H   0  0  0  0  0  0  0  0  0  0  0  0
    5.9385   -0.8177    2.0220 H   0  0  0  0  0  0  0  0  0  0  0  0
    6.7232    1.2750   -2.3832 H   0  0  0  0  0  0  0  0  0  0  0  0
    4.5610    0.2088   -1.9065 H   0  0  0  0  0  0  0  0  0  0  0  0
   10.0035   -0.2028    0.2697 H   0  0  0  0  0  0  0  0  0  0  0  0
   10.2208    1.3890    1.0646 H   0  0  0  0  0  0  0  0  0  0  0  0
  1  2  1  0  0  0  0
  2  3  1  0  0  0  0
  3  4  1  0  0  0  0
  4  5  1  0  0  0  0
  5  6  1  0  0  0  0
  1  6  1  0  0  0  0
  4  7  1  0  0  0  0
  7  8  2  0  0  0  0
  7  9  1  0  0  0  0
  9 10  1  0  0  0  0
 10 11  1  0  0  0  0
 11 12  1  0  0  0  0
 12 13  1  0  0  0  0
 13 14  1  0  0  0  0
 14 15  1  0  0  0  0
 15 16  2  0  0  0  0
 16 17  1  0  0  0  0
 17 18  2  0  0  0  0
 18 19  1  0  0  0  0
 19 20  2  0  0  0  0
 20 21  1  0  0  0  0
 21 22  2  0  0  0  0
 17 22  1  0  0  0  0
 20 23  1  0  0  0  0
 23 24  1  0  0  0  0
 24 25  1  0  0  0  0
 19 25  1  0  0  0  0
  1 26  1  0  0  0  0
  1 27  1  0  0  0  0
  2 28  1  0  0  0  0
  2 29  1  0  0  0  0
  3 30  1  0  0  0  0
  3 31  1  0  0  0  0
  5 32  1  0  0  0  0
  5 33  1  0  0  0  0
  6 34  1  0  0  0  0
  6 35  1  0  0  0  0
  9 36  1  0  0  0  0
  9 37  1  0  0  0  0
 10 38  1  0  0  0  0
 10 39  1  0  0  0  0
 11 40  1  0  0  0  0
 11 41  1  0  0  0  0
 12 42  1  0  0  0  0
 12 43  1  0  0  0  0
 13 44  1  0  0  0  0
 13 45  1  0  0  0  0
 14 46  1  0  0  0  0
 14 47  1  0  0  0  0
 15 48  1  0  0  0  0
 16 49  1  0  0  0  0
 18 50  1  0  0  0  0
 21 51  1  0  0  0  0
 22 52  1  0  0  0  0
 24 53  1  0  0  0  0
 24 54  1  0  0  0  0
M  END
$$$$
