C25H26O6
APtclcactv06291802443D 0   0.00000     0.00000
 
 57 59  0  0  0  0  0  0  0  0999 V2000
   -7.3158    1.2046   -1.9431 C   0  0  0  0  0  0  0  0  0  0  0  0
   -6.8715   -0.2298   -1.8160 C   0  0  0  0  0  0  0  0  0  0  0  0
   -5.5947   -0.5174   -1.7592 C   0  0  0  0  0  0  0  0  0  0  0  0
   -4.5753    0.5901   -1.6880 C   0  0  0  0  0  0  0  0  0  0  0  0
   -3.7622    0.4442   -0.4276 C   0  0  0  0  0  0  0  0  0  0  0  0
   -4.2757    0.8854    0.7817 C   0  0  0  0  0  0  0  0  0  0  0  0
   -3.5274    0.7519    1.9488 C   0  0  0  0  0  0  0  0  0  0  0  0
   -2.2698    0.1782    1.9015 C   0  0  0  0  0  0  0  0  0  0  0  0
   -1.7541   -0.2652    0.6846 C   0  0  0  0  0  0  0  0  0  0  0  0
   -2.5094   -0.1338   -0.4789 C   0  0  0  0  0  0  0  0  0  0  0  0
   -0.4056   -0.8805    0.6293 C   0  0  0  0  0  0  0  0  0  0  0  0
   -0.2460   -2.1837    0.2831 C   0  0  0  0  0  0  0  0  0  0  0  0
    0.9436   -2.7841    0.2361 O   0  0  0  0  0  0  0  0  0  0  0  0
    2.0864   -2.0718    0.2175 C   0  0  0  0  0  0  0  0  0  0  0  0
    3.2811   -2.6694   -0.1595 C   0  0  0  0  0  0  0  0  0  0  0  0
    4.4554   -1.9336   -0.1662 C   0  0  0  0  0  0  0  0  0  0  0  0
    4.4575   -0.5933    0.2045 C   0  0  0  0  0  0  0  0  0  0  0  0
    3.2780    0.0229    0.5809 C   0  0  0  0  0  0  0  0  0  0  0  0
    2.0869   -0.7125    0.5799 C   0  0  0  0  0  0  0  0  0  0  0  0
    0.8025   -0.0920    0.9431 C   0  0  0  0  0  0  0  0  0  0  0  0
    0.7396    1.0035    1.4745 O   0  0  0  0  0  0  0  0  0  0  0  0
    3.2751    1.3295    0.9471 O   0  0  0  0  0  0  0  0  0  0  0  0
    5.7460    0.1881    0.1967 C   0  0  0  0  0  0  0  0  0  0  0  0
    5.9406    0.8225   -1.1564 C   0  0  0  0  0  0  0  0  0  0  0  0
    6.0517    2.1237   -1.2599 C   0  0  0  0  0  0  0  0  0  0  0  0
    5.9510    2.9887   -0.0300 C   0  0  0  0  0  0  0  0  0  0  0  0
    6.2802    2.7555   -2.6088 C   0  0  0  0  0  0  0  0  0  0  0  0
    5.6174   -2.5283   -0.5386 O   0  0  0  0  0  0  0  0  0  0  0  0
   -4.0330    1.1858    3.1343 O   0  0  0  0  0  0  0  0  0  0  0  0
   -5.5121    1.4500    0.8289 O   0  0  0  0  0  0  0  0  0  0  0  0
   -7.8959   -1.3333   -1.7544 C   0  0  0  0  0  0  0  0  0  0  0  0
   -6.8368    1.6578   -2.8109 H   0  0  0  0  0  0  0  0  0  0  0  0
   -8.3983    1.2401   -2.0657 H   0  0  0  0  0  0  0  0  0  0  0  0
   -7.0338    1.7533   -1.0445 H   0  0  0  0  0  0  0  0  0  0  0  0
   -5.2727   -1.5483   -1.7633 H   0  0  0  0  0  0  0  0  0  0  0  0
   -3.9161    0.5334   -2.5543 H   0  0  0  0  0  0  0  0  0  0  0  0
   -5.0852    1.5535   -1.6820 H   0  0  0  0  0  0  0  0  0  0  0  0
   -1.6882    0.0743    2.8056 H   0  0  0  0  0  0  0  0  0  0  0  0
   -2.1113   -0.4768   -1.4225 H   0  0  0  0  0  0  0  0  0  0  0  0
   -1.1241   -2.7613    0.0344 H   0  0  0  0  0  0  0  0  0  0  0  0
    3.2956   -3.7101   -0.4478 H   0  0  0  0  0  0  0  0  0  0  0  0
    3.1293    1.9431    0.2141 H   0  0  0  0  0  0  0  0  0  0  0  0
    5.7043    0.9653    0.9597 H   0  0  0  0  0  0  0  0  0  0  0  0
    6.5791   -0.4828    0.4066 H   0  0  0  0  0  0  0  0  0  0  0  0
    5.9884    0.2044   -2.0407 H   0  0  0  0  0  0  0  0  0  0  0  0
    6.9232    3.0375    0.4604 H   0  0  0  0  0  0  0  0  0  0  0  0
    5.6378    3.9926   -0.3165 H   0  0  0  0  0  0  0  0  0  0  0  0
    5.2192    2.5616    0.6557 H   0  0  0  0  0  0  0  0  0  0  0  0
    6.3246    1.9779   -3.3714 H   0  0  0  0  0  0  0  0  0  0  0  0
    5.4610    3.4385   -2.8336 H   0  0  0  0  0  0  0  0  0  0  0  0
    7.2203    3.3070   -2.5971 H   0  0  0  0  0  0  0  0  0  0  0  0
    5.8039   -2.4686   -1.4856 H   0  0  0  0  0  0  0  0  0  0  0  0
   -4.5373    0.5157    3.6157 H   0  0  0  0  0  0  0  0  0  0  0  0
   -6.2277    0.8176    0.9807 H   0  0  0  0  0  0  0  0  0  0  0  0
   -8.1159   -1.6817   -2.7635 H   0  0  0  0  0  0  0  0  0  0  0  0
   -7.5042   -2.1601   -1.1619 H   0  0  0  0  0  0  0  0  0  0  0  0
   -8.8088   -0.9563   -1.2931 H   0  0  0  0  0  0  0  0  0  0  0  0
  1  2  1  0  0  0  0
  2  3  2  0  0  0  0
  3  4  1  0  0  0  0
  4  5  1  0  0  0  0
  5  6  2  0  0  0  0
  6  7  1  0  0  0  0
  7  8  2  0  0  0  0
  8  9  1  0  0  0  0
  9 10  2  0  0  0  0
  5 10  1  0  0  0  0
  9 11  1  0  0  0  0
 11 12  2  0  0  0  0
 12 13  1  0  0  0  0
 13 14  1  0  0  0  0
 14 15  2  0  0  0  0
 15 16  1  0  0  0  0
 16 17  2  0  0  0  0
 17 18  1  0  0  0  0
 18 19  2  0  0  0  0
 14 19  1  0  0  0  0
 19 20  1  0  0  0  0
 11 20  1  0  0  0  0
 20 21  2  0  0  0  0
 18 22  1  0  0  0  0
 17 23  1  0  0  0  0
 23 24  1  0  0  0  0
 24 25  2  0  0  0  0
 25 26  1  0  0  0  0
 25 27  1  0  0  0  0
 16 28  1  0  0  0  0
  7 29  1  0  0  0  0
  6 30  1  0  0  0  0
  2 31  1  0  0  0  0
  1 32  1  0  0  0  0
  1 33  1  0  0  0  0
  1 34  1  0  0  0  0
  3 35  1  0  0  0  0
  4 36  1  0  0  0  0
  4 37  1  0  0  0  0
  8 38  1  0  0  0  0
 10 39  1  0  0  0  0
 12 40  1  0  0  0  0
 15 41  1  0  0  0  0
 22 42  1  0  0  0  0
 23 43  1  0  0  0  0
 23 44  1  0  0  0  0
 24 45  1  0  0  0  0
 26 46  1  0  0  0  0
 26 47  1  0  0  0  0
 26 48  1  0  0  0  0
 27 49  1  0  0  0  0
 27 50  1  0  0  0  0
 27 51  1  0  0  0  0
 28 52  1  0  0  0  0
 29 53  1  0  0  0  0
 30 54  1  0  0  0  0
 31 55  1  0  0  0  0
 31 56  1  0  0  0  0
 31 57  1  0  0  0  0
M  END
$$$$
