C25H26O6
APtclcactv06291802443D 0   0.00000     0.00000
 
 57 59  0  0  0  0  0  0  0  0999 V2000
   -4.6839   -3.5526   -0.8432 C   0  0  0  0  0  0  0  0  0  0  0  0
   -6.1409   -3.2610   -0.5917 C   0  0  0  0  0  0  0  0  0  0  0  0
   -6.4896   -2.1775    0.0567 C   0  0  0  0  0  0  0  0  0  0  0  0
   -5.4447   -1.1648    0.4487 C   0  0  0  0  0  0  0  0  0  0  0  0
   -5.8437    0.2125   -0.0850 C   0  0  0  0  0  0  0  0  0  0  0  0
   -4.7987    1.2251    0.3070 C   0  0  0  0  0  0  0  0  0  0  0  0
   -3.8345    1.5276   -0.5266 C   0  0  0  0  0  0  0  0  0  0  0  0
   -2.8433    2.6062   -0.1728 C   0  0  0  0  0  0  0  0  0  0  0  0
   -1.4437    2.0588   -0.2850 C   0  0  0  0  0  0  0  0  0  0  0  0
   -0.7588    2.1481   -1.4916 C   0  0  0  0  0  0  0  0  0  0  0  0
    0.5294    1.6493   -1.6113 C   0  0  0  0  0  0  0  0  0  0  0  0
    1.1471    1.0547   -0.5226 C   0  0  0  0  0  0  0  0  0  0  0  0
    0.4569    0.9631    0.6984 C   0  0  0  0  0  0  0  0  0  0  0  0
   -0.8416    1.4738    0.8140 C   0  0  0  0  0  0  0  0  0  0  0  0
   -1.5084    1.3857    1.9927 O   0  0  0  0  0  0  0  0  0  0  0  0
    1.1329    0.3270    1.8422 C   0  0  0  0  0  0  0  0  0  0  0  0
    0.5808    0.2202    2.9256 O   0  0  0  0  0  0  0  0  0  0  0  0
    2.4455   -0.1554    1.6365 C   0  0  0  0  0  0  0  0  0  0  0  0
    3.0274   -0.0179    0.4129 C   0  0  0  0  0  0  0  0  0  0  0  0
    2.4008    0.5636   -0.6225 O   0  0  0  0  0  0  0  0  0  0  0  0
    4.3956   -0.5267    0.2179 C   0  0  0  0  0  0  0  0  0  0  0  0
    5.0675   -0.2953   -0.9921 C   0  0  0  0  0  0  0  0  0  0  0  0
    6.3534   -0.7766   -1.1669 C   0  0  0  0  0  0  0  0  0  0  0  0
    6.9739   -1.4855   -0.1487 C   0  0  0  0  0  0  0  0  0  0  0  0
    6.3092   -1.7160    1.0516 C   0  0  0  0  0  0  0  0  0  0  0  0
    5.0327   -1.2377    1.2399 C   0  0  0  0  0  0  0  0  0  0  0  0
    8.2349   -1.9567   -0.3245 O   0  0  0  0  0  0  0  0  0  0  0  0
    4.4586    0.3977   -1.9874 O   0  0  0  0  0  0  0  0  0  0  0  0
   -1.3572    2.7288   -2.5629 O   0  0  0  0  0  0  0  0  0  0  0  0
   -4.8630    1.8899    1.6580 C   0  0  0  0  0  0  0  0  0  0  0  0
   -7.1967   -4.2159   -1.0860 C   0  0  0  0  0  0  0  0  0  0  0  0
   -4.1436   -3.5471    0.1034 H   0  0  0  0  0  0  0  0  0  0  0  0
   -4.5850   -4.5315   -1.3123 H   0  0  0  0  0  0  0  0  0  0  0  0
   -4.2694   -2.7902   -1.5026 H   0  0  0  0  0  0  0  0  0  0  0  0
   -7.5259   -2.0099    0.3103 H   0  0  0  0  0  0  0  0  0  0  0  0
   -5.3669   -1.1249    1.5352 H   0  0  0  0  0  0  0  0  0  0  0  0
   -4.4823   -1.4534    0.0260 H   0  0  0  0  0  0  0  0  0  0  0  0
   -5.9214    0.1726   -1.1715 H   0  0  0  0  0  0  0  0  0  0  0  0
   -6.8060    0.5011    0.3378 H   0  0  0  0  0  0  0  0  0  0  0  0
   -3.7498    1.0039   -1.4673 H   0  0  0  0  0  0  0  0  0  0  0  0
   -2.9608    3.4463   -0.8573 H   0  0  0  0  0  0  0  0  0  0  0  0
   -3.0212    2.9423    0.8487 H   0  0  0  0  0  0  0  0  0  0  0  0
    1.0516    1.7240   -2.5538 H   0  0  0  0  0  0  0  0  0  0  0  0
   -1.3722    2.1424    2.5792 H   0  0  0  0  0  0  0  0  0  0  0  0
    2.9834   -0.6295    2.4441 H   0  0  0  0  0  0  0  0  0  0  0  0
    6.8738   -0.6005   -2.0967 H   0  0  0  0  0  0  0  0  0  0  0  0
    6.7984   -2.2687    1.8400 H   0  0  0  0  0  0  0  0  0  0  0  0
    4.5200   -1.4186    2.1730 H   0  0  0  0  0  0  0  0  0  0  0  0
    8.9271   -1.3398   -0.0500 H   0  0  0  0  0  0  0  0  0  0  0  0
    4.6082    1.3523   -1.9506 H   0  0  0  0  0  0  0  0  0  0  0  0
   -1.2046    3.6813   -2.6302 H   0  0  0  0  0  0  0  0  0  0  0  0
   -4.2240    1.3521    2.3583 H   0  0  0  0  0  0  0  0  0  0  0  0
   -4.5207    2.9212    1.5721 H   0  0  0  0  0  0  0  0  0  0  0  0
   -5.8909    1.8772    2.0206 H   0  0  0  0  0  0  0  0  0  0  0  0
   -6.7197   -5.0517   -1.5979 H   0  0  0  0  0  0  0  0  0  0  0  0
   -7.7736   -4.5895   -0.2400 H   0  0  0  0  0  0  0  0  0  0  0  0
   -7.8605   -3.6973   -1.7777 H   0  0  0  0  0  0  0  0  0  0  0  0
  1  2  1  0  0  0  0
  2  3  2  0  0  0  0
  3  4  1  0  0  0  0
  4  5  1  0  0  0  0
  5  6  1  0  0  0  0
  6  7  2  0  0  0  0
  7  8  1  0  0  0  0
  8  9  1  0  0  0  0
  9 10  2  0  0  0  0
 10 11  1  0  0  0  0
 11 12  2  0  0  0  0
 12 13  1  0  0  0  0
 13 14  2  0  0  0  0
  9 14  1  0  0  0  0
 14 15  1  0  0  0  0
 13 16  1  0  0  0  0
 16 17  2  0  0  0  0
 16 18  1  0  0  0  0
 18 19  2  0  0  0  0
 19 20  1  0  0  0  0
 12 20  1  0  0  0  0
 19 21  1  0  0  0  0
 21 22  2  0  0  0  0
 22 23  1  0  0  0  0
 23 24  2  0  0  0  0
 24 25  1  0  0  0  0
 25 26  2  0  0  0  0
 21 26  1  0  0  0  0
 24 27  1  0  0  0  0
 22 28  1  0  0  0  0
 10 29  1  0  0  0  0
  6 30  1  0  0  0  0
  2 31  1  0  0  0  0
  1 32  1  0  0  0  0
  1 33  1  0  0  0  0
  1 34  1  0  0  0  0
  3 35  1  0  0  0  0
  4 36  1  0  0  0  0
  4 37  1  0  0  0  0
  5 38  1  0  0  0  0
  5 39  1  0  0  0  0
  7 40  1  0  0  0  0
  8 41  1  0  0  0  0
  8 42  1  0  0  0  0
 11 43  1  0  0  0  0
 15 44  1  0  0  0  0
 18 45  1  0  0  0  0
 23 46  1  0  0  0  0
 25 47  1  0  0  0  0
 26 48  1  0  0  0  0
 27 49  1  0  0  0  0
 28 50  1  0  0  0  0
 29 51  1  0  0  0  0
 30 52  1  0  0  0  0
 30 53  1  0  0  0  0
 30 54  1  0  0  0  0
 31 55  1  0  0  0  0
 31 56  1  0  0  0  0
 31 57  1  0  0  0  0
M  END
$$$$
