C20H34O
APtclcactv06291802443D 0   0.00000     0.00000
 
 55 58  0  0  0  0  0  0  0  0999 V2000
    3.6336   -0.6875   -1.4266 C   0  0  0  0  0  0  0  0  0  0  0  0
    3.2882   -0.5566    0.0558 C   0  0  0  0  0  0  0  0  0  0  0  0
    3.9406    0.6978    0.6377 C   0  0  0  0  0  0  0  0  0  0  0  0
    3.1697    1.9623    0.2821 C   0  0  0  0  0  0  0  0  0  0  0  0
    1.7210    1.8470    0.7484 C   0  0  0  0  0  0  0  0  0  0  0  0
    1.0315    0.6844    0.0109 C   0  0  0  0  0  0  0  0  0  0  0  0
    1.8009   -0.5963    0.3198 C   0  0  0  0  0  0  0  0  0  0  0  0
    1.1102   -1.7997   -0.3160 C   0  0  0  0  0  0  0  0  0  0  0  0
   -0.2424   -1.9907    0.3899 C   0  0  0  0  0  0  0  0  0  0  0  0
   -1.0962   -0.7536    0.1945 C   0  0  0  0  0  0  0  0  0  0  0  0
   -0.3777    0.5341    0.5596 C   0  0  0  0  0  0  0  0  0  0  0  0
   -1.2775    1.7430    0.3701 C   0  0  0  0  0  0  0  0  0  0  0  0
   -2.1631    1.6745   -0.8637 C   0  0  0  0  0  0  0  0  0  0  0  0
   -2.8159    0.3107   -1.0667 C   0  0  0  0  0  0  0  0  0  0  0  0
   -1.6489   -0.7083   -1.2439 C   0  0  0  0  0  0  0  0  0  0  0  0
   -3.5006   -0.2187    0.2072 C   0  0  0  0  0  0  0  0  0  0  0  0
   -2.3712   -0.8144    1.0731 C   0  0  0  0  0  0  0  0  0  0  0  0
   -4.2673    0.8674    0.9509 C   0  0  0  0  0  0  0  0  0  0  0  0
   -4.4123   -1.2718   -0.1529 O   0  0  0  0  0  0  0  0  0  0  0  0
    1.0085    1.0159   -1.4769 C   0  0  0  0  0  0  0  0  0  0  0  0
    3.9405   -1.7602    0.7814 C   0  0  0  0  0  0  0  0  0  0  0  0
    4.7002   -0.8847   -1.5351 H   0  0  0  0  0  0  0  0  0  0  0  0
    3.0660   -1.5107   -1.8606 H   0  0  0  0  0  0  0  0  0  0  0  0
    3.3812    0.2393   -1.9417 H   0  0  0  0  0  0  0  0  0  0  0  0
    3.9934    0.5979    1.7260 H   0  0  0  0  0  0  0  0  0  0  0  0
    4.9625    0.7760    0.2525 H   0  0  0  0  0  0  0  0  0  0  0  0
    3.6339    2.8123    0.8060 H   0  0  0  0  0  0  0  0  0  0  0  0
    3.2288    2.1631   -0.7825 H   0  0  0  0  0  0  0  0  0  0  0  0
    1.6954    1.6477    1.8195 H   0  0  0  0  0  0  0  0  0  0  0  0
    1.1921    2.7732    0.5336 H   0  0  0  0  0  0  0  0  0  0  0  0
    1.6901   -0.7461    1.4261 H   0  0  0  0  0  0  0  0  0  0  0  0
    0.9431   -1.6404   -1.3765 H   0  0  0  0  0  0  0  0  0  0  0  0
    1.7023   -2.7026   -0.1757 H   0  0  0  0  0  0  0  0  0  0  0  0
   -0.7523   -2.8564   -0.0302 H   0  0  0  0  0  0  0  0  0  0  0  0
   -0.0735   -2.1474    1.4561 H   0  0  0  0  0  0  0  0  0  0  0  0
   -0.2336    0.4720    1.6742 H   0  0  0  0  0  0  0  0  0  0  0  0
   -1.8891    1.8743    1.2637 H   0  0  0  0  0  0  0  0  0  0  0  0
   -0.6492    2.6401    0.2914 H   0  0  0  0  0  0  0  0  0  0  0  0
   -2.9363    2.4492   -0.7968 H   0  0  0  0  0  0  0  0  0  0  0  0
   -1.5616    1.9171   -1.7502 H   0  0  0  0  0  0  0  0  0  0  0  0
   -3.4912    0.2982   -1.9303 H   0  0  0  0  0  0  0  0  0  0  0  0
   -0.9427   -0.3893   -1.9901 H   0  0  0  0  0  0  0  0  0  0  0  0
   -2.0574   -1.6912   -1.5250 H   0  0  0  0  0  0  0  0  0  0  0  0
   -2.5868   -1.8515    1.3239 H   0  0  0  0  0  0  0  0  0  0  0  0
   -2.2224   -0.2223    1.9725 H   0  0  0  0  0  0  0  0  0  0  0  0
   -5.0398    1.2773    0.3001 H   0  0  0  0  0  0  0  0  0  0  0  0
   -4.7305    0.4408    1.8406 H   0  0  0  0  0  0  0  0  0  0  0  0
   -3.5804    1.6613    1.2441 H   0  0  0  0  0  0  0  0  0  0  0  0
   -4.8838   -1.6577    0.5980 H   0  0  0  0  0  0  0  0  0  0  0  0
    2.0166    1.2634   -1.8096 H   0  0  0  0  0  0  0  0  0  0  0  0
    0.6428    0.1543   -2.0355 H   0  0  0  0  0  0  0  0  0  0  0  0
    0.3497    1.8670   -1.6494 H   0  0  0  0  0  0  0  0  0  0  0  0
    5.0200   -1.7318    0.6338 H   0  0  0  0  0  0  0  0  0  0  0  0
    3.7180   -1.7059    1.8471 H   0  0  0  0  0  0  0  0  0  0  0  0
    3.5423   -2.6894    0.3740 H   0  0  0  0  0  0  0  0  0  0  0  0
  1  2  1  0  0  0  0
  2  3  1  0  0  0  0
  3  4  1  0  0  0  0
  4  5  1  0  0  0  0
  5  6  1  0  0  0  0
  6  7  1  0  0  0  0
  2  7  1  0  0  0  0
  7  8  1  0  0  0  0
  8  9  1  0  0  0  0
  9 10  1  0  0  0  0
 10 11  1  0  0  0  0
  6 11  1  0  0  0  0
 11 12  1  0  0  0  0
 12 13  1  0  0  0  0
 13 14  1  0  0  0  0
 14 15  1  0  0  0  0
 10 15  1  0  0  0  0
 14 16  1  0  0  0  0
 16 17  1  0  0  0  0
 10 17  1  0  0  0  0
 16 18  1  0  0  0  0
 16 19  1  0  0  0  0
  6 20  1  0  0  0  0
  2 21  1  0  0  0  0
  1 22  1  0  0  0  0
  1 23  1  0  0  0  0
  1 24  1  0  0  0  0
  3 25  1  0  0  0  0
  3 26  1  0  0  0  0
  4 27  1  0  0  0  0
  4 28  1  0  0  0  0
  5 29  1  0  0  0  0
  5 30  1  0  0  0  0
  7 31  1  0  0  0  0
  8 32  1  0  0  0  0
  8 33  1  0  0  0  0
  9 34  1  0  0  0  0
  9 35  1  0  0  0  0
 11 36  1  0  0  0  0
 12 37  1  0  0  0  0
 12 38  1  0  0  0  0
 13 39  1  0  0  0  0
 13 40  1  0  0  0  0
 14 41  1  0  0  0  0
 15 42  1  0  0  0  0
 15 43  1  0  0  0  0
 17 44  1  0  0  0  0
 17 45  1  0  0  0  0
 18 46  1  0  0  0  0
 18 47  1  0  0  0  0
 18 48  1  0  0  0  0
 19 49  1  0  0  0  0
 20 50  1  0  0  0  0
 20 51  1  0  0  0  0
 20 52  1  0  0  0  0
 21 53  1  0  0  0  0
 21 54  1  0  0  0  0
 21 55  1  0  0  0  0
M  END
$$$$
