C26H34O4
APtclcactv06291802443D 0   0.00000     0.00000
 
 64 65  0  0  0  0  0  0  0  0999 V2000
    2.8617   -3.5258    0.4022 C   0  0  0  0  0  0  0  0  0  0  0  0
    2.6761   -2.9739   -0.9877 C   0  0  0  0  0  0  0  0  0  0  0  0
    1.8321   -1.9939   -1.1961 C   0  0  0  0  0  0  0  0  0  0  0  0
    1.1696   -1.3090   -0.0285 C   0  0  0  0  0  0  0  0  0  0  0  0
    1.4001    0.1774   -0.1213 C   0  0  0  0  0  0  0  0  0  0  0  0
    2.4706    0.7518    0.5384 C   0  0  0  0  0  0  0  0  0  0  0  0
    2.6839    2.1183    0.4541 C   0  0  0  0  0  0  0  0  0  0  0  0
    1.8188    2.9096   -0.2954 C   0  0  0  0  0  0  0  0  0  0  0  0
    0.7477    2.3274   -0.9542 C   0  0  0  0  0  0  0  0  0  0  0  0
    0.5438    0.9627   -0.8706 C   0  0  0  0  0  0  0  0  0  0  0  0
   -0.6216    0.3313   -1.5877 C   0  0  0  0  0  0  0  0  0  0  0  0
   -1.7767    0.1297   -0.6048 C   0  0  0  0  0  0  0  0  0  0  0  0
   -2.9107   -0.6273   -1.2989 C   0  0  0  0  0  0  0  0  0  0  0  0
   -4.0922   -0.7256   -0.3686 C   0  0  0  0  0  0  0  0  0  0  0  0
   -5.0078    0.3146   -0.2986 C   0  0  0  0  0  0  0  0  0  0  0  0
   -6.0949    0.2233    0.5572 C   0  0  0  0  0  0  0  0  0  0  0  0
   -6.2641   -0.9074    1.3409 C   0  0  0  0  0  0  0  0  0  0  0  0
   -5.3454   -1.9452    1.2673 C   0  0  0  0  0  0  0  0  0  0  0  0
   -4.2659   -1.8541    0.4099 C   0  0  0  0  0  0  0  0  0  0  0  0
   -7.3283   -0.9996    2.1810 O   0  0  0  0  0  0  0  0  0  0  0  0
   -4.8390    1.4221   -1.0679 O   0  0  0  0  0  0  0  0  0  0  0  0
   -5.8203    2.4535   -0.9444 C   0  0  0  0  0  0  0  0  0  0  0  0
    2.0237    4.2513   -0.3809 O   0  0  0  0  0  0  0  0  0  0  0  0
    3.7363    2.6850    1.1028 O   0  0  0  0  0  0  0  0  0  0  0  0
    3.4052   -0.1081    1.3496 C   0  0  0  0  0  0  0  0  0  0  0  0
    4.5305   -0.5931    0.4722 C   0  0  0  0  0  0  0  0  0  0  0  0
    5.7740   -0.3747    0.8214 C   0  0  0  0  0  0  0  0  0  0  0  0
    6.0798    0.4717    2.0302 C   0  0  0  0  0  0  0  0  0  0  0  0
    6.8989   -0.9698    0.0142 C   0  0  0  0  0  0  0  0  0  0  0  0
    3.4614   -3.5493   -2.1381 C   0  0  0  0  0  0  0  0  0  0  0  0
    1.8953   -3.8292    0.8048 H   0  0  0  0  0  0  0  0  0  0  0  0
    3.5268   -4.3885    0.3648 H   0  0  0  0  0  0  0  0  0  0  0  0
    3.2974   -2.7587    1.0425 H   0  0  0  0  0  0  0  0  0  0  0  0
    1.6110   -1.6768   -2.2045 H   0  0  0  0  0  0  0  0  0  0  0  0
    0.0990   -1.5125   -0.0476 H   0  0  0  0  0  0  0  0  0  0  0  0
    1.5944   -1.6851    0.9021 H   0  0  0  0  0  0  0  0  0  0  0  0
    0.0747    2.9393   -1.5366 H   0  0  0  0  0  0  0  0  0  0  0  0
   -0.9449    0.9828   -2.3995 H   0  0  0  0  0  0  0  0  0  0  0  0
   -0.3183   -0.6333   -1.9947 H   0  0  0  0  0  0  0  0  0  0  0  0
   -1.4277   -0.4453    0.2529 H   0  0  0  0  0  0  0  0  0  0  0  0
   -2.1406    1.1003   -0.2678 H   0  0  0  0  0  0  0  0  0  0  0  0
   -3.2037   -0.0937   -2.2031 H   0  0  0  0  0  0  0  0  0  0  0  0
   -2.5712   -1.6290   -1.5621 H   0  0  0  0  0  0  0  0  0  0  0  0
   -6.8085    1.0321    0.6133 H   0  0  0  0  0  0  0  0  0  0  0  0
   -5.4766   -2.8262    1.8780 H   0  0  0  0  0  0  0  0  0  0  0  0
   -3.5522   -2.6627    0.3540 H   0  0  0  0  0  0  0  0  0  0  0  0
   -8.1117   -1.4010    1.7808 H   0  0  0  0  0  0  0  0  0  0  0  0
   -5.5670    3.2777   -1.6111 H   0  0  0  0  0  0  0  0  0  0  0  0
   -6.7997    2.0572   -1.2124 H   0  0  0  0  0  0  0  0  0  0  0  0
   -5.8428    2.8123    0.0846 H   0  0  0  0  0  0  0  0  0  0  0  0
    2.5890    4.5166   -1.1192 H   0  0  0  0  0  0  0  0  0  0  0  0
    4.5468    2.7259    0.5769 H   0  0  0  0  0  0  0  0  0  0  0  0
    3.8134    0.4765    2.1740 H   0  0  0  0  0  0  0  0  0  0  0  0
    2.8592   -0.9640    1.7464 H   0  0  0  0  0  0  0  0  0  0  0  0
    4.3116   -1.1207   -0.4444 H   0  0  0  0  0  0  0  0  0  0  0  0
    6.0400   -0.1473    2.9265 H   0  0  0  0  0  0  0  0  0  0  0  0
    7.0761    0.9021    1.9298 H   0  0  0  0  0  0  0  0  0  0  0  0
    5.3443    1.2723    2.1086 H   0  0  0  0  0  0  0  0  0  0  0  0
    6.4865   -1.5454   -0.8145 H   0  0  0  0  0  0  0  0  0  0  0  0
    7.5283   -0.1702   -0.3765 H   0  0  0  0  0  0  0  0  0  0  0  0
    7.4956   -1.6242    0.6497 H   0  0  0  0  0  0  0  0  0  0  0  0
    2.9010   -4.3700   -2.5860 H   0  0  0  0  0  0  0  0  0  0  0  0
    3.6312   -2.7746   -2.8857 H   0  0  0  0  0  0  0  0  0  0  0  0
    4.4199   -3.9197   -1.7744 H   0  0  0  0  0  0  0  0  0  0  0  0
  1  2  1  0  0  0  0
  2  3  2  0  0  0  0
  3  4  1  0  0  0  0
  4  5  1  0  0  0  0
  5  6  2  0  0  0  0
  6  7  1  0  0  0  0
  7  8  2  0  0  0  0
  8  9  1  0  0  0  0
  9 10  2  0  0  0  0
  5 10  1  0  0  0  0
 10 11  1  0  0  0  0
 11 12  1  0  0  0  0
 12 13  1  0  0  0  0
 13 14  1  0  0  0  0
 14 15  2  0  0  0  0
 15 16  1  0  0  0  0
 16 17  2  0  0  0  0
 17 18  1  0  0  0  0
 18 19  2  0  0  0  0
 14 19  1  0  0  0  0
 17 20  1  0  0  0  0
 15 21  1  0  0  0  0
 21 22  1  0  0  0  0
  8 23  1  0  0  0  0
  7 24  1  0  0  0  0
  6 25  1  0  0  0  0
 25 26  1  0  0  0  0
 26 27  2  0  0  0  0
 27 28  1  0  0  0  0
 27 29  1  0  0  0  0
  2 30  1  0  0  0  0
  1 31  1  0  0  0  0
  1 32  1  0  0  0  0
  1 33  1  0  0  0  0
  3 34  1  0  0  0  0
  4 35  1  0  0  0  0
  4 36  1  0  0  0  0
  9 37  1  0  0  0  0
 11 38  1  0  0  0  0
 11 39  1  0  0  0  0
 12 40  1  0  0  0  0
 12 41  1  0  0  0  0
 13 42  1  0  0  0  0
 13 43  1  0  0  0  0
 16 44  1  0  0  0  0
 18 45  1  0  0  0  0
 19 46  1  0  0  0  0
 20 47  1  0  0  0  0
 22 48  1  0  0  0  0
 22 49  1  0  0  0  0
 22 50  1  0  0  0  0
 23 51  1  0  0  0  0
 24 52  1  0  0  0  0
 25 53  1  0  0  0  0
 25 54  1  0  0  0  0
 26 55  1  0  0  0  0
 28 56  1  0  0  0  0
 28 57  1  0  0  0  0
 28 58  1  0  0  0  0
 29 59  1  0  0  0  0
 29 60  1  0  0  0  0
 29 61  1  0  0  0  0
 30 62  1  0  0  0  0
 30 63  1  0  0  0  0
 30 64  1  0  0  0  0
M  END
$$$$
