C10H12O2
APtclcactv06211806123D 0   0.00000     0.00000
 
 24 24  0  0  0  0  0  0  0  0999 V2000
    4.3964    0.0049    1.2533 C   0  0  0  0  0  0  0  0  0  0  0  0
    3.3635    0.0006    0.1559 C   0  0  0  0  0  0  0  0  0  0  0  0
    3.7112   -0.0040   -1.0005 O   0  0  0  0  0  0  0  0  0  0  0  0
    1.8967    0.0020    0.5017 C   0  0  0  0  0  0  0  0  0  0  0  0
    1.0693   -0.0031   -0.7853 C   0  0  0  0  0  0  0  0  0  0  0  0
   -0.3975   -0.0017   -0.4394 C   0  0  0  0  0  0  0  0  0  0  0  0
   -1.0692    1.1970   -0.2858 C   0  0  0  0  0  0  0  0  0  0  0  0
   -2.4138    1.2010    0.0312 C   0  0  0  0  0  0  0  0  0  0  0  0
   -3.0901    0.0008    0.1954 C   0  0  0  0  0  0  0  0  0  0  0  0
   -2.4138   -1.2006    0.0407 C   0  0  0  0  0  0  0  0  0  0  0  0
   -1.0706   -1.1992   -0.2819 C   0  0  0  0  0  0  0  0  0  0  0  0
   -4.4127    0.0021    0.5076 O   0  0  0  0  0  0  0  0  0  0  0  0
    4.6454    1.0336    1.5138 H   0  0  0  0  0  0  0  0  0  0  0  0
    3.9973   -0.5054    2.1299 H   0  0  0  0  0  0  0  0  0  0  0  0
    5.2934   -0.5103    0.9099 H   0  0  0  0  0  0  0  0  0  0  0  0
    1.6610   -0.8857    1.0887 H   0  0  0  0  0  0  0  0  0  0  0  0
    1.6610    0.8943    1.0817 H   0  0  0  0  0  0  0  0  0  0  0  0
    1.3050    0.8845   -1.3723 H   0  0  0  0  0  0  0  0  0  0  0  0
    1.3050   -0.8954   -1.3652 H   0  0  0  0  0  0  0  0  0  0  0  0
   -0.5422    2.1310   -0.4134 H   0  0  0  0  0  0  0  0  0  0  0  0
   -2.9380    2.1375    0.1514 H   0  0  0  0  0  0  0  0  0  0  0  0
   -2.9381   -2.1362    0.1680 H   0  0  0  0  0  0  0  0  0  0  0  0
   -0.5436   -2.1342   -0.4024 H   0  0  0  0  0  0  0  0  0  0  0  0
   -4.9985   -0.0008   -0.2617 H   0  0  0  0  0  0  0  0  0  0  0  0
  1  2  1  0  0  0  0
  2  3  2  0  0  0  0
  2  4  1  0  0  0  0
  4  5  1  0  0  0  0
  5  6  1  0  0  0  0
  6  7  2  0  0  0  0
  7  8  1  0  0  0  0
  8  9  2  0  0  0  0
  9 10  1  0  0  0  0
 10 11  2  0  0  0  0
  6 11  1  0  0  0  0
  9 12  1  0  0  0  0
  1 13  1  0  0  0  0
  1 14  1  0  0  0  0
  1 15  1  0  0  0  0
  4 16  1  0  0  0  0
  4 17  1  0  0  0  0
  5 18  1  0  0  0  0
  5 19  1  0  0  0  0
  7 20  1  0  0  0  0
  8 21  1  0  0  0  0
 10 22  1  0  0  0  0
 11 23  1  0  0  0  0
 12 24  1  0  0  0  0
M  END
$$$$
