C31H29O14
APtclcactv06291802443D 0   0.00000     0.00000
 
 74 79  0  0  0  0  0  0  0  0999 V2000
    5.2858    2.7467    1.9636 C   0  0  0  0  0  0  0  0  0  0  0  0
    5.7414    1.8373    0.9598 O   0  0  0  0  0  0  0  0  0  0  0  0
    4.8018    1.3180    0.1249 C   0  0  0  0  0  0  0  0  0  0  0  0
    3.4737    1.6767    0.2705 C   0  0  0  0  0  0  0  0  0  0  0  0
    2.5101    1.1439   -0.5867 C   0  0  0  0  0  0  0  0  0  0  0  0
    2.8887    0.2501   -1.5892 C   0  0  0  0  0  0  0  0  0  0  0  0
    4.2179   -0.1059   -1.7313 C   0  0  0  0  0  0  0  0  0  0  0  0
    5.1779    0.4307   -0.8788 C   0  0  0  0  0  0  0  0  0  0  0  0
    6.4841    0.0793   -1.0202 O   0  0  0  0  0  0  0  0  0  0  0  0
    4.5873   -0.9773   -2.7079 O   0  0  0  0  0  0  0  0  0  0  0  0
    3.5649   -1.4206   -3.6025 C   0  0  0  0  0  0  0  0  0  0  0  0
    1.0887    1.5258   -0.4325 C   0  0  0  0  0  0  0  0  0  0  0  0
    0.8301    2.7058   -0.3094 O   0  3  0  0  0  0  0  0  0  0  0  0
   -0.3957    3.1929   -0.1629 C   0  0  0  0  0  0  0  0  0  0  0  0
   -0.6671    4.5572   -0.0225 C   0  0  0  0  0  0  0  0  0  0  0  0
   -1.9757    4.9802    0.1260 C   0  0  0  0  0  0  0  0  0  0  0  0
   -3.0427    4.0817    0.1403 C   0  0  0  0  0  0  0  0  0  0  0  0
   -2.8081    2.7280    0.0039 C   0  0  0  0  0  0  0  0  0  0  0  0
   -1.4838    2.2958   -0.1467 C   0  0  0  0  0  0  0  0  0  0  0  0
   -1.2046    0.8640   -0.2936 C   0  0  0  0  0  0  0  0  0  0  0  0
    0.1340    0.5030   -0.4441 C   0  0  0  0  0  0  0  0  0  0  0  0
    0.4997   -0.7990   -0.5877 O   0  0  0  0  0  0  0  0  0  0  0  0
    0.2512   -1.6685    0.5188 C   0  0  0  0  0  0  0  0  0  0  0  0
    0.3755   -3.1244    0.0621 C   0  0  0  0  0  0  0  0  0  0  0  0
    1.8075   -3.3803   -0.4177 C   0  0  0  0  0  0  0  0  0  0  0  0
    2.7819   -3.0410    0.7145 C   0  0  0  0  0  0  0  0  0  0  0  0
    2.5646   -1.5883    1.1460 C   0  0  0  0  0  0  0  0  0  0  0  0
    1.2056   -1.4112    1.5508 O   0  0  0  0  0  0  0  0  0  0  0  0
    3.4928   -1.2596    2.3171 C   0  0  0  0  0  0  0  0  0  0  0  0
    3.3496    0.1187    2.6660 O   0  0  0  0  0  0  0  0  0  0  0  0
    2.5453   -3.9094    1.8244 O   0  0  0  0  0  0  0  0  0  0  0  0
    1.9526   -4.7557   -0.7771 O   0  0  0  0  0  0  0  0  0  0  0  0
    0.0752   -3.9949    1.1547 O   0  0  0  0  0  0  0  0  0  0  0  0
   -2.3392   -0.0463   -0.2760 C   0  0  0  0  0  0  0  0  0  0  0  0
   -3.5833    0.4889   -0.1247 C   0  0  0  0  0  0  0  0  0  0  0  0
   -3.8017    1.8122    0.0109 O   0  0  0  0  0  0  0  0  0  0  0  0
   -4.7440   -0.4218   -0.1054 C   0  0  0  0  0  0  0  0  0  0  0  0
   -6.0411    0.0972   -0.0796 C   0  0  0  0  0  0  0  0  0  0  0  0
   -7.1248   -0.7603   -0.0616 C   0  0  0  0  0  0  0  0  0  0  0  0
   -6.9226   -2.1390   -0.0687 C   0  0  0  0  0  0  0  0  0  0  0  0
   -5.6344   -2.6547   -0.0943 C   0  0  0  0  0  0  0  0  0  0  0  0
   -4.5489   -1.8054   -0.1187 C   0  0  0  0  0  0  0  0  0  0  0  0
   -7.9894   -2.9807   -0.0500 O   0  0  0  0  0  0  0  0  0  0  0  0
   -8.3885   -0.2585   -0.0364 O   0  0  0  0  0  0  0  0  0  0  0  0
   -2.2288    6.3076    0.2622 O   0  0  0  0  0  0  0  0  0  0  0  0
    6.1337    3.0851    2.5591 H   0  0  0  0  0  0  0  0  0  0  0  0
    4.8103    3.6045    1.4880 H   0  0  0  0  0  0  0  0  0  0  0  0
    4.5658    2.2440    2.6095 H   0  0  0  0  0  0  0  0  0  0  0  0
    3.1827    2.3683    1.0473 H   0  0  0  0  0  0  0  0  0  0  0  0
    2.1444   -0.1637   -2.2535 H   0  0  0  0  0  0  0  0  0  0  0  0
    6.9823    0.6508   -1.6204 H   0  0  0  0  0  0  0  0  0  0  0  0
    2.7446   -1.8542   -3.0306 H   0  0  0  0  0  0  0  0  0  0  0  0
    3.1965   -0.5737   -4.1814 H   0  0  0  0  0  0  0  0  0  0  0  0
    3.9739   -2.1720   -4.2780 H   0  0  0  0  0  0  0  0  0  0  0  0
    0.1392    5.2757   -0.0295 H   0  0  0  0  0  0  0  0  0  0  0  0
   -4.0528    4.4453    0.2585 H   0  0  0  0  0  0  0  0  0  0  0  0
   -0.7542   -1.4920    0.9011 H   0  0  0  0  0  0  0  0  0  0  0  0
   -0.3212   -3.3105   -0.7553 H   0  0  0  0  0  0  0  0  0  0  0  0
    2.0202   -2.7517   -1.2824 H   0  0  0  0  0  0  0  0  0  0  0  0
    3.8061   -3.1675    0.3637 H   0  0  0  0  0  0  0  0  0  0  0  0
    2.7845   -0.9241    0.3102 H   0  0  0  0  0  0  0  0  0  0  0  0
    3.2306   -1.8804    3.1738 H   0  0  0  0  0  0  0  0  0  0  0  0
    4.5254   -1.4561    2.0285 H   0  0  0  0  0  0  0  0  0  0  0  0
    3.9099    0.3981    3.4030 H   0  0  0  0  0  0  0  0  0  0  0  0
    2.6604   -4.8477    1.6212 H   0  0  0  0  0  0  0  0  0  0  0  0
    1.3597   -5.0418   -1.4854 H   0  0  0  0  0  0  0  0  0  0  0  0
   -0.8402   -3.9397    1.4615 H   0  0  0  0  0  0  0  0  0  0  0  0
   -2.2000   -1.1122   -0.3799 H   0  0  0  0  0  0  0  0  0  0  0  0
   -6.1965    1.1659   -0.0733 H   0  0  0  0  0  0  0  0  0  0  0  0
   -5.4822   -3.7239   -0.0998 H   0  0  0  0  0  0  0  0  0  0  0  0
   -3.5475   -2.2093   -0.1386 H   0  0  0  0  0  0  0  0  0  0  0  0
   -8.3152   -3.2222   -0.9279 H   0  0  0  0  0  0  0  0  0  0  0  0
   -8.7706   -0.1110   -0.9124 H   0  0  0  0  0  0  0  0  0  0  0  0
   -2.3771    6.7677   -0.5753 H   0  0  0  0  0  0  0  0  0  0  0  0
  1  2  1  0  0  0  0
  2  3  1  0  0  0  0
  3  4  2  0  0  0  0
  4  5  1  0  0  0  0
  5  6  2  0  0  0  0
  6  7  1  0  0  0  0
  7  8  2  0  0  0  0
  3  8  1  0  0  0  0
  8  9  1  0  0  0  0
  7 10  1  0  0  0  0
 10 11  1  0  0  0  0
  5 12  1  0  0  0  0
 12 13  2  0  0  0  0
 13 14  1  0  0  0  0
 14 15  2  0  0  0  0
 15 16  1  0  0  0  0
 16 17  2  0  0  0  0
 17 18  1  0  0  0  0
 18 19  2  0  0  0  0
 14 19  1  0  0  0  0
 19 20  1  0  0  0  0
 20 21  2  0  0  0  0
 12 21  1  0  0  0  0
 21 22  1  0  0  0  0
 22 23  1  0  0  0  0
 23 24  1  0  0  0  0
 24 25  1  0  0  0  0
 25 26  1  0  0  0  0
 26 27  1  0  0  0  0
 27 28  1  0  0  0  0
 23 28  1  0  0  0  0
 27 29  1  0  0  0  0
 29 30  1  0  0  0  0
 26 31  1  0  0  0  0
 25 32  1  0  0  0  0
 24 33  1  0  0  0  0
 20 34  1  0  0  0  0
 34 35  2  0  0  0  0
 35 36  1  0  0  0  0
 18 36  1  0  0  0  0
 35 37  1  0  0  0  0
 37 38  2  0  0  0  0
 38 39  1  0  0  0  0
 39 40  2  0  0  0  0
 40 41  1  0  0  0  0
 41 42  2  0  0  0  0
 37 42  1  0  0  0  0
 40 43  1  0  0  0  0
 39 44  1  0  0  0  0
 16 45  1  0  0  0  0
  1 46  1  0  0  0  0
  1 47  1  0  0  0  0
  1 48  1  0  0  0  0
  4 49  1  0  0  0  0
  6 50  1  0  0  0  0
  9 51  1  0  0  0  0
 11 52  1  0  0  0  0
 11 53  1  0  0  0  0
 11 54  1  0  0  0  0
 15 55  1  0  0  0  0
 17 56  1  0  0  0  0
 23 57  1  0  0  0  0
 24 58  1  0  0  0  0
 25 59  1  0  0  0  0
 26 60  1  0  0  0  0
 27 61  1  0  0  0  0
 29 62  1  0  0  0  0
 29 63  1  0  0  0  0
 30 64  1  0  0  0  0
 31 65  1  0  0  0  0
 32 66  1  0  0  0  0
 33 67  1  0  0  0  0
 34 68  1  0  0  0  0
 38 69  1  0  0  0  0
 41 70  1  0  0  0  0
 42 71  1  0  0  0  0
 43 72  1  0  0  0  0
 44 73  1  0  0  0  0
 45 74  1  0  0  0  0
M  CHG  1  13   1
M  END
$$$$
