C10H18
APtclcactv06211806123D 0   0.00000     0.00000
 
 28 28  0  0  0  0  0  0  0  0999 V2000
    3.6302    0.0672   -0.2372 C   0  0  0  0  0  0  0  0  0  0  0  0
    2.1329    0.0335   -0.0695 C   0  0  0  0  0  0  0  0  0  0  0  0
    1.5181    1.1566    0.1208 C   0  0  0  0  0  0  0  0  0  0  0  0
    0.0351    1.2811    0.3137 C   0  0  0  0  0  0  0  0  0  0  0  0
   -0.6669    0.0069   -0.1609 C   0  0  0  0  0  0  0  0  0  0  0  0
    0.0430   -1.2001    0.4653 C   0  0  0  0  0  0  0  0  0  0  0  0
    1.4469   -1.2993   -0.1395 C   0  0  0  0  0  0  0  0  0  0  0  0
   -2.1307    0.0302    0.2838 C   0  0  0  0  0  0  0  0  0  0  0  0
   -2.8283    1.2499   -0.3217 C   0  0  0  0  0  0  0  0  0  0  0  0
   -2.8288   -1.2453   -0.1926 C   0  0  0  0  0  0  0  0  0  0  0  0
    3.9806    1.0970   -0.1674 H   0  0  0  0  0  0  0  0  0  0  0  0
    4.0971   -0.5294    0.5464 H   0  0  0  0  0  0  0  0  0  0  0  0
    3.8959   -0.3416   -1.2121 H   0  0  0  0  0  0  0  0  0  0  0  0
    2.1092    2.0602    0.1425 H   0  0  0  0  0  0  0  0  0  0  0  0
   -0.1798    1.4399    1.3704 H   0  0  0  0  0  0  0  0  0  0  0  0
   -0.3337    2.1317   -0.2597 H   0  0  0  0  0  0  0  0  0  0  0  0
   -0.6119   -0.0588   -1.2475 H   0  0  0  0  0  0  0  0  0  0  0  0
    0.1139   -1.0641    1.5445 H   0  0  0  0  0  0  0  0  0  0  0  0
   -0.5155   -2.1094    0.2434 H   0  0  0  0  0  0  0  0  0  0  0  0
    1.3707   -1.6188   -1.1788 H   0  0  0  0  0  0  0  0  0  0  0  0
    2.0302   -2.0310    0.4195 H   0  0  0  0  0  0  0  0  0  0  0  0
   -2.1793    0.0865    1.3712 H   0  0  0  0  0  0  0  0  0  0  0  0
   -2.7798    1.1936   -1.4092 H   0  0  0  0  0  0  0  0  0  0  0  0
   -3.8712    1.2664   -0.0050 H   0  0  0  0  0  0  0  0  0  0  0  0
   -2.3310    2.1585    0.0176 H   0  0  0  0  0  0  0  0  0  0  0  0
   -3.8716   -1.2287    0.1242 H   0  0  0  0  0  0  0  0  0  0  0  0
   -2.7802   -1.3016   -1.2801 H   0  0  0  0  0  0  0  0  0  0  0  0
   -2.3318   -2.1142    0.2388 H   0  0  0  0  0  0  0  0  0  0  0  0
  1  2  1  0  0  0  0
  2  3  2  0  0  0  0
  3  4  1  0  0  0  0
  4  5  1  0  0  0  0
  5  6  1  0  0  0  0
  6  7  1  0  0  0  0
  2  7  1  0  0  0  0
  5  8  1  0  0  0  0
  8  9  1  0  0  0  0
  8 10  1  0  0  0  0
  1 11  1  0  0  0  0
  1 12  1  0  0  0  0
  1 13  1  0  0  0  0
  3 14  1  0  0  0  0
  4 15  1  0  0  0  0
  4 16  1  0  0  0  0
  5 17  1  0  0  0  0
  6 18  1  0  0  0  0
  6 19  1  0  0  0  0
  7 20  1  0  0  0  0
  7 21  1  0  0  0  0
  8 22  1  0  0  0  0
  9 23  1  0  0  0  0
  9 24  1  0  0  0  0
  9 25  1  0  0  0  0
 10 26  1  0  0  0  0
 10 27  1  0  0  0  0
 10 28  1  0  0  0  0
M  END
$$$$
