C26H26O7
APtclcactv06291802443D 0   0.00000     0.00000
 
 59 62  0  0  0  0  0  0  0  0999 V2000
    3.2786   -4.1097   -0.1879 C   0  0  0  0  0  0  0  0  0  0  0  0
    2.4286   -3.6713    0.9767 C   0  0  0  0  0  0  0  0  0  0  0  0
    1.5504   -2.7116    0.8221 C   0  0  0  0  0  0  0  0  0  0  0  0
    1.4866   -1.9508   -0.4771 C   0  0  0  0  0  0  0  0  0  0  0  0
    1.5928   -0.4733   -0.1997 C   0  0  0  0  0  0  0  0  0  0  0  0
    2.8346    0.1231   -0.1130 C   0  0  0  0  0  0  0  0  0  0  0  0
    2.9444    1.5015    0.1466 C   0  0  0  0  0  0  0  0  0  0  0  0
    1.8014    2.2756    0.3164 C   0  0  0  0  0  0  0  0  0  0  0  0
    0.5445    1.6636    0.2262 C   0  0  0  0  0  0  0  0  0  0  0  0
    0.4393    0.2863   -0.0376 C   0  0  0  0  0  0  0  0  0  0  0  0
   -0.7728   -0.2981   -0.1201 O   0  0  0  0  0  0  0  0  0  0  0  0
   -1.9028    0.4047    0.0389 C   0  0  0  0  0  0  0  0  0  0  0  0
   -1.9202    1.7416    0.2959 C   0  0  0  0  0  0  0  0  0  0  0  0
   -0.6916    2.4451    0.3977 C   0  0  0  0  0  0  0  0  0  0  0  0
   -0.6608    3.6434    0.6286 O   0  0  0  0  0  0  0  0  0  0  0  0
   -3.1030    2.3977    0.4471 O   0  0  0  0  0  0  0  0  0  0  0  0
   -3.3629    2.9803    1.7258 C   0  0  0  0  0  0  0  0  0  0  0  0
   -3.1908   -0.3048   -0.0705 C   0  0  0  0  0  0  0  0  0  0  0  0
   -4.2194    0.2270   -0.8534 C   0  0  0  0  0  0  0  0  0  0  0  0
   -5.4243   -0.4421   -0.9524 C   0  0  0  0  0  0  0  0  0  0  0  0
   -5.6120   -1.6441   -0.2724 C   0  0  0  0  0  0  0  0  0  0  0  0
   -4.5909   -2.1724    0.5051 C   0  0  0  0  0  0  0  0  0  0  0  0
   -3.3842   -1.5137    0.6040 C   0  0  0  0  0  0  0  0  0  0  0  0
   -6.7978   -2.3002   -0.3706 O   0  0  0  0  0  0  0  0  0  0  0  0
   -6.4274    0.0727   -1.7129 O   0  0  0  0  0  0  0  0  0  0  0  0
    1.9023    3.6049    0.5664 O   0  0  0  0  0  0  0  0  0  0  0  0
    4.2947    2.0965    0.2337 C   0  0  0  0  0  0  0  0  0  0  0  0
    5.3182    1.4012   -0.2592 C   0  0  0  0  0  0  0  0  0  0  0  0
    5.0785    0.0566   -0.8935 C   0  0  0  0  0  0  0  0  0  0  0  0
    3.9717   -0.6005   -0.2754 O   0  0  0  0  0  0  0  0  0  0  0  0
    4.7846    0.2467   -2.3829 C   0  0  0  0  0  0  0  0  0  0  0  0
    6.3313   -0.8071   -0.7337 C   0  0  0  0  0  0  0  0  0  0  0  0
    2.5888   -4.3370    2.3192 C   0  0  0  0  0  0  0  0  0  0  0  0
    4.1537   -3.4640   -0.2624 H   0  0  0  0  0  0  0  0  0  0  0  0
    3.5994   -5.1403   -0.0361 H   0  0  0  0  0  0  0  0  0  0  0  0
    2.6976   -4.0417   -1.1077 H   0  0  0  0  0  0  0  0  0  0  0  0
    0.8722   -2.4657    1.6258 H   0  0  0  0  0  0  0  0  0  0  0  0
    2.3107   -2.2599   -1.1201 H   0  0  0  0  0  0  0  0  0  0  0  0
    0.5396   -2.1599   -0.9745 H   0  0  0  0  0  0  0  0  0  0  0  0
   -2.6478    3.7816    1.9121 H   0  0  0  0  0  0  0  0  0  0  0  0
   -4.3747    3.3852    1.7417 H   0  0  0  0  0  0  0  0  0  0  0  0
   -3.2643    2.2183    2.4990 H   0  0  0  0  0  0  0  0  0  0  0  0
   -4.0728    1.1587   -1.3795 H   0  0  0  0  0  0  0  0  0  0  0  0
   -4.7408   -3.1039    1.0305 H   0  0  0  0  0  0  0  0  0  0  0  0
   -2.5913   -1.9270    1.2097 H   0  0  0  0  0  0  0  0  0  0  0  0
   -6.8374   -2.9340   -1.0999 H   0  0  0  0  0  0  0  0  0  0  0  0
   -6.4136   -0.2220   -2.6338 H   0  0  0  0  0  0  0  0  0  0  0  0
    1.9141    4.1549   -0.2288 H   0  0  0  0  0  0  0  0  0  0  0  0
    4.4469    3.0663    0.6840 H   0  0  0  0  0  0  0  0  0  0  0  0
    6.3197    1.8017   -0.2042 H   0  0  0  0  0  0  0  0  0  0  0  0
    5.6356    0.7304   -2.8624 H   0  0  0  0  0  0  0  0  0  0  0  0
    4.6105   -0.7246   -2.8458 H   0  0  0  0  0  0  0  0  0  0  0  0
    3.8982    0.8699   -2.5017 H   0  0  0  0  0  0  0  0  0  0  0  0
    6.5503   -0.9370    0.3261 H   0  0  0  0  0  0  0  0  0  0  0  0
    6.1617   -1.7815   -1.1918 H   0  0  0  0  0  0  0  0  0  0  0  0
    7.1744   -0.3180   -1.2217 H   0  0  0  0  0  0  0  0  0  0  0  0
    3.3400   -3.8038    2.9018 H   0  0  0  0  0  0  0  0  0  0  0  0
    1.6369   -4.3185    2.8498 H   0  0  0  0  0  0  0  0  0  0  0  0
    2.9055   -5.3703    2.1769 H   0  0  0  0  0  0  0  0  0  0  0  0
  1  2  1  0  0  0  0
  2  3  2  0  0  0  0
  3  4  1  0  0  0  0
  4  5  1  0  0  0  0
  5  6  2  0  0  0  0
  6  7  1  0  0  0  0
  7  8  2  0  0  0  0
  8  9  1  0  0  0  0
  9 10  2  0  0  0  0
  5 10  1  0  0  0  0
 10 11  1  0  0  0  0
 11 12  1  0  0  0  0
 12 13  2  0  0  0  0
 13 14  1  0  0  0  0
  9 14  1  0  0  0  0
 14 15  2  0  0  0  0
 13 16  1  0  0  0  0
 16 17  1  0  0  0  0
 12 18  1  0  0  0  0
 18 19  2  0  0  0  0
 19 20  1  0  0  0  0
 20 21  2  0  0  0  0
 21 22  1  0  0  0  0
 22 23  2  0  0  0  0
 18 23  1  0  0  0  0
 21 24  1  0  0  0  0
 20 25  1  0  0  0  0
  8 26  1  0  0  0  0
  7 27  1  0  0  0  0
 27 28  2  0  0  0  0
 28 29  1  0  0  0  0
 29 30  1  0  0  0  0
  6 30  1  0  0  0  0
 29 31  1  0  0  0  0
 29 32  1  0  0  0  0
  2 33  1  0  0  0  0
  1 34  1  0  0  0  0
  1 35  1  0  0  0  0
  1 36  1  0  0  0  0
  3 37  1  0  0  0  0
  4 38  1  0  0  0  0
  4 39  1  0  0  0  0
 17 40  1  0  0  0  0
 17 41  1  0  0  0  0
 17 42  1  0  0  0  0
 19 43  1  0  0  0  0
 22 44  1  0  0  0  0
 23 45  1  0  0  0  0
 24 46  1  0  0  0  0
 25 47  1  0  0  0  0
 26 48  1  0  0  0  0
 27 49  1  0  0  0  0
 28 50  1  0  0  0  0
 31 51  1  0  0  0  0
 31 52  1  0  0  0  0
 31 53  1  0  0  0  0
 32 54  1  0  0  0  0
 32 55  1  0  0  0  0
 32 56  1  0  0  0  0
 33 57  1  0  0  0  0
 33 58  1  0  0  0  0
 33 59  1  0  0  0  0
M  END
$$$$
