C28H30O6
APtclcactv06291802443D 0   0.00000     0.00000
 
 64 68  0  0  0  0  0  0  0  0999 V2000
   -3.4526   -5.0192   -0.3879 C   0  0  0  0  0  0  0  0  0  0  0  0
   -2.4953   -4.5159    0.6614 C   0  0  0  0  0  0  0  0  0  0  0  0
   -1.6841   -3.5247    0.3865 C   0  0  0  0  0  0  0  0  0  0  0  0
   -1.7872   -2.8115   -0.9371 C   0  0  0  0  0  0  0  0  0  0  0  0
   -1.9358   -1.3308   -0.6997 C   0  0  0  0  0  0  0  0  0  0  0  0
   -0.8076   -0.5244   -0.6166 C   0  0  0  0  0  0  0  0  0  0  0  0
   -0.9707    0.8498   -0.3837 C   0  0  0  0  0  0  0  0  0  0  0  0
   -2.2462    1.4092   -0.2538 C   0  0  0  0  0  0  0  0  0  0  0  0
   -2.3732    2.8912   -0.0087 C   0  0  0  0  0  0  0  0  0  0  0  0
   -3.7980    3.3486   -0.3304 C   0  0  0  0  0  0  0  0  0  0  0  0
   -4.7771    2.3861    0.3544 C   0  0  0  0  0  0  0  0  0  0  0  0
   -4.6163    1.0925   -0.2291 O   0  0  0  0  0  0  0  0  0  0  0  0
   -3.3546    0.5985   -0.3453 C   0  0  0  0  0  0  0  0  0  0  0  0
   -3.1945   -0.7750   -0.5704 C   0  0  0  0  0  0  0  0  0  0  0  0
   -4.2907   -1.5719   -0.6570 O   0  0  0  0  0  0  0  0  0  0  0  0
   -4.4710    2.3180    1.8519 C   0  0  0  0  0  0  0  0  0  0  0  0
   -6.2121    2.8727    0.1422 C   0  0  0  0  0  0  0  0  0  0  0  0
    0.2380    1.6921   -0.2692 C   0  0  0  0  0  0  0  0  0  0  0  0
    0.1828    2.9087   -0.2919 O   0  0  0  0  0  0  0  0  0  0  0  0
    1.5150    0.9690   -0.1254 C   0  0  0  0  0  0  0  0  0  0  0  0
    2.6816    1.6421    0.2574 C   0  0  0  0  0  0  0  0  0  0  0  0
    3.8638    0.9205    0.3971 C   0  0  0  0  0  0  0  0  0  0  0  0
    3.8793   -0.4640    0.1529 C   0  0  0  0  0  0  0  0  0  0  0  0
    2.7250   -1.1189   -0.2312 C   0  0  0  0  0  0  0  0  0  0  0  0
    1.5353   -0.4152   -0.3781 C   0  0  0  0  0  0  0  0  0  0  0  0
    0.4190   -1.0655   -0.7658 O   0  0  0  0  0  0  0  0  0  0  0  0
    5.0483   -1.1377    0.3031 O   0  0  0  0  0  0  0  0  0  0  0  0
    6.2482   -0.4412   -0.0342 C   0  0  0  0  0  0  0  0  0  0  0  0
    6.2655    0.9238    0.6015 C   0  0  0  0  0  0  0  0  0  0  0  0
    5.1233    1.5790    0.8025 C   0  0  0  0  0  0  0  0  0  0  0  0
    7.4532   -1.2435    0.4609 C   0  0  0  0  0  0  0  0  0  0  0  0
    6.3337   -0.2907   -1.5544 C   0  0  0  0  0  0  0  0  0  0  0  0
    2.6602    2.9781    0.4883 O   0  0  0  0  0  0  0  0  0  0  0  0
   -2.4711   -5.1528    2.0270 C   0  0  0  0  0  0  0  0  0  0  0  0
   -2.8980   -5.2874   -1.2871 H   0  0  0  0  0  0  0  0  0  0  0  0
   -3.9778   -5.8964   -0.0099 H   0  0  0  0  0  0  0  0  0  0  0  0
   -4.1746   -4.2380   -0.6258 H   0  0  0  0  0  0  0  0  0  0  0  0
   -0.9414   -3.2185    1.1084 H   0  0  0  0  0  0  0  0  0  0  0  0
   -0.8857   -2.9972   -1.5210 H   0  0  0  0  0  0  0  0  0  0  0  0
   -2.6557   -3.1811   -1.4822 H   0  0  0  0  0  0  0  0  0  0  0  0
   -2.1509    3.1061    1.0365 H   0  0  0  0  0  0  0  0  0  0  0  0
   -1.6684    3.4256   -0.6456 H   0  0  0  0  0  0  0  0  0  0  0  0
   -3.9532    4.3599    0.0454 H   0  0  0  0  0  0  0  0  0  0  0  0
   -3.9560    3.3282   -1.4087 H   0  0  0  0  0  0  0  0  0  0  0  0
   -4.6404   -1.6636   -1.5538 H   0  0  0  0  0  0  0  0  0  0  0  0
   -4.5749    3.3109    2.2894 H   0  0  0  0  0  0  0  0  0  0  0  0
   -5.1685    1.6335    2.3346 H   0  0  0  0  0  0  0  0  0  0  0  0
   -3.4516    1.9612    1.9985 H   0  0  0  0  0  0  0  0  0  0  0  0
   -6.4290    2.9099   -0.9254 H   0  0  0  0  0  0  0  0  0  0  0  0
   -6.9044    2.1865    0.6300 H   0  0  0  0  0  0  0  0  0  0  0  0
   -6.3251    3.8686    0.5707 H   0  0  0  0  0  0  0  0  0  0  0  0
    2.7472   -2.1823   -0.4187 H   0  0  0  0  0  0  0  0  0  0  0  0
    7.2037    1.3713    0.8948 H   0  0  0  0  0  0  0  0  0  0  0  0
    5.1177    2.5627    1.2482 H   0  0  0  0  0  0  0  0  0  0  0  0
    7.4553   -2.2253   -0.0124 H   0  0  0  0  0  0  0  0  0  0  0  0
    8.3716   -0.7149    0.2052 H   0  0  0  0  0  0  0  0  0  0  0  0
    7.3913   -1.3618    1.5427 H   0  0  0  0  0  0  0  0  0  0  0  0
    5.4717    0.2718   -1.9129 H   0  0  0  0  0  0  0  0  0  0  0  0
    7.2488    0.2407   -1.8160 H   0  0  0  0  0  0  0  0  0  0  0  0
    6.3417   -1.2775   -2.0173 H   0  0  0  0  0  0  0  0  0  0  0  0
    2.4618    3.2158    1.4044 H   0  0  0  0  0  0  0  0  0  0  0  0
   -3.2096   -5.9534    2.0676 H   0  0  0  0  0  0  0  0  0  0  0  0
   -1.4796   -5.5628    2.2191 H   0  0  0  0  0  0  0  0  0  0  0  0
   -2.7066   -4.4026    2.7820 H   0  0  0  0  0  0  0  0  0  0  0  0
  1  2  1  0  0  0  0
  2  3  2  0  0  0  0
  3  4  1  0  0  0  0
  4  5  1  0  0  0  0
  5  6  2  0  0  0  0
  6  7  1  0  0  0  0
  7  8  2  0  0  0  0
  8  9  1  0  0  0  0
  9 10  1  0  0  0  0
 10 11  1  0  0  0  0
 11 12  1  0  0  0  0
 12 13  1  0  0  0  0
  8 13  1  0  0  0  0
 13 14  2  0  0  0  0
  5 14  1  0  0  0  0
 14 15  1  0  0  0  0
 11 16  1  0  0  0  0
 11 17  1  0  0  0  0
  7 18  1  0  0  0  0
 18 19  2  0  0  0  0
 18 20  1  0  0  0  0
 20 21  2  0  0  0  0
 21 22  1  0  0  0  0
 22 23  2  0  0  0  0
 23 24  1  0  0  0  0
 24 25  2  0  0  0  0
 20 25  1  0  0  0  0
 25 26  1  0  0  0  0
  6 26  1  0  0  0  0
 23 27  1  0  0  0  0
 27 28  1  0  0  0  0
 28 29  1  0  0  0  0
 29 30  2  0  0  0  0
 22 30  1  0  0  0  0
 28 31  1  0  0  0  0
 28 32  1  0  0  0  0
 21 33  1  0  0  0  0
  2 34  1  0  0  0  0
  1 35  1  0  0  0  0
  1 36  1  0  0  0  0
  1 37  1  0  0  0  0
  3 38  1  0  0  0  0
  4 39  1  0  0  0  0
  4 40  1  0  0  0  0
  9 41  1  0  0  0  0
  9 42  1  0  0  0  0
 10 43  1  0  0  0  0
 10 44  1  0  0  0  0
 15 45  1  0  0  0  0
 16 46  1  0  0  0  0
 16 47  1  0  0  0  0
 16 48  1  0  0  0  0
 17 49  1  0  0  0  0
 17 50  1  0  0  0  0
 17 51  1  0  0  0  0
 24 52  1  0  0  0  0
 29 53  1  0  0  0  0
 30 54  1  0  0  0  0
 31 55  1  0  0  0  0
 31 56  1  0  0  0  0
 31 57  1  0  0  0  0
 32 58  1  0  0  0  0
 32 59  1  0  0  0  0
 32 60  1  0  0  0  0
 33 61  1  0  0  0  0
 34 62  1  0  0  0  0
 34 63  1  0  0  0  0
 34 64  1  0  0  0  0
M  END
$$$$
