C20H16O4
APtclcactv06291802443D 0   0.00000     0.00000
 
 40 44  0  0  0  0  0  0  0  0999 V2000
    5.1785   -0.5130   -1.7711 C   0  0  0  0  0  0  0  0  0  0  0  0
    5.3034   -0.3747   -0.2524 C   0  0  0  0  0  0  0  0  0  0  0  0
    5.2518    1.0837    0.1187 C   0  0  0  0  0  0  0  0  0  0  0  0
    4.0860    1.6670    0.3757 C   0  0  0  0  0  0  0  0  0  0  0  0
    2.8578    0.8420    0.3220 C   0  0  0  0  0  0  0  0  0  0  0  0
    2.9925   -0.5562    0.2971 C   0  0  0  0  0  0  0  0  0  0  0  0
    4.2414   -1.0926    0.3735 O   0  0  0  0  0  0  0  0  0  0  0  0
    1.8902   -1.3937    0.2146 C   0  0  0  0  0  0  0  0  0  0  0  0
    0.6339   -0.7981    0.1781 C   0  0  0  0  0  0  0  0  0  0  0  0
    0.4937    0.6168    0.2235 C   0  0  0  0  0  0  0  0  0  0  0  0
    1.6072    1.4569    0.2944 C   0  0  0  0  0  0  0  0  0  0  0  0
   -0.9243    0.8643    0.1793 C   0  0  0  0  0  0  0  0  0  0  0  0
   -1.5255   -0.3685    0.1036 C   0  0  0  0  0  0  0  0  0  0  0  0
   -0.5956   -1.3296    0.1037 O   0  0  0  0  0  0  0  0  0  0  0  0
   -2.9989   -0.4363    0.0343 C   0  0  0  0  0  0  0  0  0  0  0  0
   -3.6747    0.7705   -0.2286 C   0  0  0  0  0  0  0  0  0  0  0  0
   -5.0577    0.7656   -0.2805 C   0  0  0  0  0  0  0  0  0  0  0  0
   -5.7562   -0.4175   -0.0898 C   0  0  0  0  0  0  0  0  0  0  0  0
   -5.0814   -1.6073    0.1549 C   0  0  0  0  0  0  0  0  0  0  0  0
   -3.7016   -1.6177    0.2182 C   0  0  0  0  0  0  0  0  0  0  0  0
   -7.1138   -0.4130   -0.1424 O   0  0  0  0  0  0  0  0  0  0  0  0
   -2.9799    1.9122   -0.4536 O   0  0  0  0  0  0  0  0  0  0  0  0
   -1.7304    2.1331    0.2064 C   0  0  0  0  0  0  0  0  0  0  0  0
    6.6421   -0.9624    0.1985 C   0  0  0  0  0  0  0  0  0  0  0  0
    6.0007    0.0161   -2.2529 H   0  0  0  0  0  0  0  0  0  0  0  0
    5.2154   -1.5676   -2.0441 H   0  0  0  0  0  0  0  0  0  0  0  0
    4.2304   -0.0860   -2.0980 H   0  0  0  0  0  0  0  0  0  0  0  0
    6.1651    1.6572    0.1764 H   0  0  0  0  0  0  0  0  0  0  0  0
    4.0356    2.7183    0.6178 H   0  0  0  0  0  0  0  0  0  0  0  0
    2.0030   -2.4672    0.1804 H   0  0  0  0  0  0  0  0  0  0  0  0
    1.5041    2.5315    0.3265 H   0  0  0  0  0  0  0  0  0  0  0  0
   -5.5937    1.6840   -0.4692 H   0  0  0  0  0  0  0  0  0  0  0  0
   -5.6355   -2.5236    0.2955 H   0  0  0  0  0  0  0  0  0  0  0  0
   -3.1733   -2.5401    0.4093 H   0  0  0  0  0  0  0  0  0  0  0  0
   -7.4737   -0.5711   -1.0259 H   0  0  0  0  0  0  0  0  0  0  0  0
   -1.9118    2.4271    1.2402 H   0  0  0  0  0  0  0  0  0  0  0  0
   -1.1825    2.9235   -0.3067 H   0  0  0  0  0  0  0  0  0  0  0  0
    7.4568   -0.4240   -0.2857 H   0  0  0  0  0  0  0  0  0  0  0  0
    6.7353   -0.8659    1.2803 H   0  0  0  0  0  0  0  0  0  0  0  0
    6.6880   -2.0158   -0.0776 H   0  0  0  0  0  0  0  0  0  0  0  0
  1  2  1  0  0  0  0
  2  3  1  0  0  0  0
  3  4  2  0  0  0  0
  4  5  1  0  0  0  0
  5  6  2  0  0  0  0
  6  7  1  0  0  0  0
  2  7  1  0  0  0  0
  6  8  1  0  0  0  0
  8  9  2  0  0  0  0
  9 10  1  0  0  0  0
 10 11  2  0  0  0  0
  5 11  1  0  0  0  0
 10 12  1  0  0  0  0
 12 13  2  0  0  0  0
 13 14  1  0  0  0  0
  9 14  1  0  0  0  0
 13 15  1  0  0  0  0
 15 16  2  0  0  0  0
 16 17  1  0  0  0  0
 17 18  2  0  0  0  0
 18 19  1  0  0  0  0
 19 20  2  0  0  0  0
 15 20  1  0  0  0  0
 18 21  1  0  0  0  0
 16 22  1  0  0  0  0
 22 23  1  0  0  0  0
 12 23  1  0  0  0  0
  2 24  1  0  0  0  0
  1 25  1  0  0  0  0
  1 26  1  0  0  0  0
  1 27  1  0  0  0  0
  3 28  1  0  0  0  0
  4 29  1  0  0  0  0
  8 30  1  0  0  0  0
 11 31  1  0  0  0  0
 17 32  1  0  0  0  0
 19 33  1  0  0  0  0
 20 34  1  0  0  0  0
 21 35  1  0  0  0  0
 23 36  1  0  0  0  0
 23 37  1  0  0  0  0
 24 38  1  0  0  0  0
 24 39  1  0  0  0  0
 24 40  1  0  0  0  0
M  END
$$$$
