C17H18O4
APtclcactv06291802453D 0   0.00000     0.00000
 
 39 41  0  0  0  0  0  0  0  0999 V2000
    6.4410    2.2820    0.4922 C   0  0  0  0  0  0  0  0  0  0  0  0
    5.9345    1.0629    1.0391 O   0  0  0  0  0  0  0  0  0  0  0  0
    4.8314    0.5330    0.4482 C   0  0  0  0  0  0  0  0  0  0  0  0
    4.2872   -0.6481    0.9279 C   0  0  0  0  0  0  0  0  0  0  0  0
    3.1617   -1.1863    0.3228 C   0  0  0  0  0  0  0  0  0  0  0  0
    2.5829   -0.5417   -0.7610 C   0  0  0  0  0  0  0  0  0  0  0  0
    3.1276    0.6356   -1.2378 C   0  0  0  0  0  0  0  0  0  0  0  0
    4.2454    1.1770   -0.6327 C   0  0  0  0  0  0  0  0  0  0  0  0
    1.3597   -1.1260   -1.4192 C   0  0  0  0  0  0  0  0  0  0  0  0
    0.1083   -0.6697   -0.6663 C   0  0  0  0  0  0  0  0  0  0  0  0
   -1.1336   -1.2630   -1.3345 C   0  0  0  0  0  0  0  0  0  0  0  0
   -2.3662   -0.8135   -0.5929 C   0  0  0  0  0  0  0  0  0  0  0  0
   -3.0072    0.3536   -0.9642 C   0  0  0  0  0  0  0  0  0  0  0  0
   -4.1407    0.7686   -0.2842 C   0  0  0  0  0  0  0  0  0  0  0  0
   -4.6317    0.0070    0.7733 C   0  0  0  0  0  0  0  0  0  0  0  0
   -3.9836   -1.1612    1.1404 C   0  0  0  0  0  0  0  0  0  0  0  0
   -2.8566   -1.5723    0.4535 C   0  0  0  0  0  0  0  0  0  0  0  0
   -5.7441    0.6203    1.2731 O   0  0  0  0  0  0  0  0  0  0  0  0
   -6.1641    1.5454    0.2528 C   0  0  0  0  0  0  0  0  0  0  0  0
   -4.9455    1.8590   -0.4471 O   0  0  0  0  0  0  0  0  0  0  0  0
    2.6262   -2.3444    0.7906 O   0  0  0  0  0  0  0  0  0  0  0  0
    6.7142    2.1262   -0.5515 H   0  0  0  0  0  0  0  0  0  0  0  0
    5.6749    3.0548    0.5558 H   0  0  0  0  0  0  0  0  0  0  0  0
    7.3204    2.5950    1.0551 H   0  0  0  0  0  0  0  0  0  0  0  0
    4.7393   -1.1486    1.7714 H   0  0  0  0  0  0  0  0  0  0  0  0
    2.6759    1.1356   -2.0817 H   0  0  0  0  0  0  0  0  0  0  0  0
    4.6692    2.0971   -1.0071 H   0  0  0  0  0  0  0  0  0  0  0  0
    1.3058   -0.7857   -2.4533 H   0  0  0  0  0  0  0  0  0  0  0  0
    1.4202   -2.2141   -1.3975 H   0  0  0  0  0  0  0  0  0  0  0  0
    0.1621   -1.0100    0.3678 H   0  0  0  0  0  0  0  0  0  0  0  0
    0.0478    0.4184   -0.6880 H   0  0  0  0  0  0  0  0  0  0  0  0
   -1.1874   -0.9226   -2.3686 H   0  0  0  0  0  0  0  0  0  0  0  0
   -1.0731   -2.3511   -1.3128 H   0  0  0  0  0  0  0  0  0  0  0  0
   -2.6240    0.9425   -1.7845 H   0  0  0  0  0  0  0  0  0  0  0  0
   -4.3622   -1.7538    1.9601 H   0  0  0  0  0  0  0  0  0  0  0  0
   -2.3529   -2.4834    0.7408 H   0  0  0  0  0  0  0  0  0  0  0  0
   -6.8815    1.0745   -0.4193 H   0  0  0  0  0  0  0  0  0  0  0  0
   -6.5900    2.4429    0.7013 H   0  0  0  0  0  0  0  0  0  0  0  0
    1.9554   -2.2190    1.4757 H   0  0  0  0  0  0  0  0  0  0  0  0
  1  2  1  0  0  0  0
  2  3  1  0  0  0  0
  3  4  2  0  0  0  0
  4  5  1  0  0  0  0
  5  6  2  0  0  0  0
  6  7  1  0  0  0  0
  7  8  2  0  0  0  0
  3  8  1  0  0  0  0
  6  9  1  0  0  0  0
  9 10  1  0  0  0  0
 10 11  1  0  0  0  0
 11 12  1  0  0  0  0
 12 13  2  0  0  0  0
 13 14  1  0  0  0  0
 14 15  2  0  0  0  0
 15 16  1  0  0  0  0
 16 17  2  0  0  0  0
 12 17  1  0  0  0  0
 15 18  1  0  0  0  0
 18 19  1  0  0  0  0
 19 20  1  0  0  0  0
 14 20  1  0  0  0  0
  5 21  1  0  0  0  0
  1 22  1  0  0  0  0
  1 23  1  0  0  0  0
  1 24  1  0  0  0  0
  4 25  1  0  0  0  0
  7 26  1  0  0  0  0
  8 27  1  0  0  0  0
  9 28  1  0  0  0  0
  9 29  1  0  0  0  0
 10 30  1  0  0  0  0
 10 31  1  0  0  0  0
 11 32  1  0  0  0  0
 11 33  1  0  0  0  0
 13 34  1  0  0  0  0
 16 35  1  0  0  0  0
 17 36  1  0  0  0  0
 19 37  1  0  0  0  0
 19 38  1  0  0  0  0
 21 39  1  0  0  0  0
M  END
$$$$
