C24H24O14
APtclcactv06291802453D 0   0.00000     0.00000
 
 62 65  0  0  0  0  0  0  0  0999 V2000
    1.2906    3.4531    2.4193 C   0  0  0  0  0  0  0  0  0  0  0  0
    2.1204    2.7048    1.5284 O   0  0  0  0  0  0  0  0  0  0  0  0
    1.5004    1.8149    0.7079 C   0  0  0  0  0  0  0  0  0  0  0  0
    2.2497    1.0521   -0.1859 C   0  0  0  0  0  0  0  0  0  0  0  0
    1.6205    0.1433   -1.0252 C   0  0  0  0  0  0  0  0  0  0  0  0
    0.2514   -0.0093   -0.9787 C   0  0  0  0  0  0  0  0  0  0  0  0
   -0.5065    0.7520   -0.0846 C   0  0  0  0  0  0  0  0  0  0  0  0
    0.1281    1.6632    0.7645 C   0  0  0  0  0  0  0  0  0  0  0  0
   -1.9713    0.5908   -0.0335 C   0  0  0  0  0  0  0  0  0  0  0  0
   -2.7546    1.7058   -0.0397 C   0  0  0  0  0  0  0  0  0  0  0  0
   -4.1657    1.5678    0.0089 C   0  0  0  0  0  0  0  0  0  0  0  0
   -4.8988    2.5439    0.0046 O   0  0  0  0  0  0  0  0  0  0  0  0
   -4.7114    0.2022    0.0642 C   0  0  0  0  0  0  0  0  0  0  0  0
   -6.0921   -0.0264    0.1138 C   0  0  0  0  0  0  0  0  0  0  0  0
   -6.5666   -1.3271    0.1646 C   0  0  0  0  0  0  0  0  0  0  0  0
   -5.6736   -2.3970    0.1666 C   0  0  0  0  0  0  0  0  0  0  0  0
   -4.3065   -2.1753    0.1180 C   0  0  0  0  0  0  0  0  0  0  0  0
   -3.8137   -0.8804    0.0659 C   0  0  0  0  0  0  0  0  0  0  0  0
   -2.4844   -0.6504    0.0118 O   0  0  0  0  0  0  0  0  0  0  0  0
   -6.1476   -3.6690    0.2170 O   0  0  0  0  0  0  0  0  0  0  0  0
   -7.9071   -1.5603    0.2131 O   0  0  0  0  0  0  0  0  0  0  0  0
   -8.5858   -1.7065   -1.0359 C   0  0  0  0  0  0  0  0  0  0  0  0
   -6.9594    1.0191    0.1126 O   0  0  0  0  0  0  0  0  0  0  0  0
   -2.1877    2.9420   -0.0917 O   0  0  0  0  0  0  0  0  0  0  0  0
   -2.4322    3.7190   -1.2658 C   0  0  0  0  0  0  0  0  0  0  0  0
    3.5996    1.1988   -0.2361 O   0  0  0  0  0  0  0  0  0  0  0  0
    4.3061    0.3857   -1.1751 C   0  0  0  0  0  0  0  0  0  0  0  0
    5.7865    0.7759   -1.1762 C   0  0  0  0  0  0  0  0  0  0  0  0
    6.3786    0.5059    0.2105 C   0  0  0  0  0  0  0  0  0  0  0  0
    6.1664   -0.9689    0.5659 C   0  0  0  0  0  0  0  0  0  0  0  0
    4.6714   -1.2917    0.4997 C   0  0  0  0  0  0  0  0  0  0  0  0
    4.1775   -0.9890   -0.8067 O   0  0  0  0  0  0  0  0  0  0  0  0
    4.4599   -2.7552    0.7903 C   0  0  0  0  0  0  0  0  0  0  0  0
    4.0221   -3.4844   -0.0678 O   0  0  0  0  0  0  0  0  0  0  0  0
    4.7578   -3.2485    2.0026 O   0  0  0  0  0  0  0  0  0  0  0  0
    6.8741   -1.7909   -0.3644 O   0  0  0  0  0  0  0  0  0  0  0  0
    7.7774    0.7982    0.1982 O   0  0  0  0  0  0  0  0  0  0  0  0
    6.4841    0.0001   -2.1526 O   0  0  0  0  0  0  0  0  0  0  0  0
    1.9095    4.1238    3.0152 H   0  0  0  0  0  0  0  0  0  0  0  0
    0.5728    4.0369    1.8431 H   0  0  0  0  0  0  0  0  0  0  0  0
    0.7565    2.7692    3.0790 H   0  0  0  0  0  0  0  0  0  0  0  0
    2.2050   -0.4456   -1.7165 H   0  0  0  0  0  0  0  0  0  0  0  0
   -0.2357   -0.7167   -1.6334 H   0  0  0  0  0  0  0  0  0  0  0  0
   -0.4536    2.2532    1.4572 H   0  0  0  0  0  0  0  0  0  0  0  0
   -3.6241   -3.0123    0.1208 H   0  0  0  0  0  0  0  0  0  0  0  0
   -6.3124   -4.0620   -0.6510 H   0  0  0  0  0  0  0  0  0  0  0  0
   -8.1617   -2.5482   -1.5835 H   0  0  0  0  0  0  0  0  0  0  0  0
   -9.6452   -1.8877   -0.8547 H   0  0  0  0  0  0  0  0  0  0  0  0
   -8.4681   -0.7952   -1.6223 H   0  0  0  0  0  0  0  0  0  0  0  0
   -7.2382    1.2978   -0.7703 H   0  0  0  0  0  0  0  0  0  0  0  0
   -1.8448    4.6362   -1.2233 H   0  0  0  0  0  0  0  0  0  0  0  0
   -2.1465    3.1450   -2.1473 H   0  0  0  0  0  0  0  0  0  0  0  0
   -3.4918    3.9685   -1.3223 H   0  0  0  0  0  0  0  0  0  0  0  0
    3.8899    0.5357   -2.1713 H   0  0  0  0  0  0  0  0  0  0  0  0
    5.8838    1.8352   -1.4139 H   0  0  0  0  0  0  0  0  0  0  0  0
    5.8800    1.1342    0.9485 H   0  0  0  0  0  0  0  0  0  0  0  0
    6.5354   -1.1573    1.5740 H   0  0  0  0  0  0  0  0  0  0  0  0
    4.1373   -0.6934    1.2378 H   0  0  0  0  0  0  0  0  0  0  0  0
    4.6052   -4.1932    2.1417 H   0  0  0  0  0  0  0  0  0  0  0  0
    6.7839   -2.7394   -0.1991 H   0  0  0  0  0  0  0  0  0  0  0  0
    7.9856    1.7154   -0.0267 H   0  0  0  0  0  0  0  0  0  0  0  0
    6.1577    0.1182   -3.0552 H   0  0  0  0  0  0  0  0  0  0  0  0
  1  2  1  0  0  0  0
  2  3  1  0  0  0  0
  3  4  2  0  0  0  0
  4  5  1  0  0  0  0
  5  6  2  0  0  0  0
  6  7  1  0  0  0  0
  7  8  2  0  0  0  0
  3  8  1  0  0  0  0
  7  9  1  0  0  0  0
  9 10  2  0  0  0  0
 10 11  1  0  0  0  0
 11 12  2  0  0  0  0
 11 13  1  0  0  0  0
 13 14  2  0  0  0  0
 14 15  1  0  0  0  0
 15 16  2  0  0  0  0
 16 17  1  0  0  0  0
 17 18  2  0  0  0  0
 13 18  1  0  0  0  0
 18 19  1  0  0  0  0
  9 19  1  0  0  0  0
 16 20  1  0  0  0  0
 15 21  1  0  0  0  0
 21 22  1  0  0  0  0
 14 23  1  0  0  0  0
 10 24  1  0  0  0  0
 24 25  1  0  0  0  0
  4 26  1  0  0  0  0
 26 27  1  0  0  0  0
 27 28  1  0  0  0  0
 28 29  1  0  0  0  0
 29 30  1  0  0  0  0
 30 31  1  0  0  0  0
 31 32  1  0  0  0  0
 27 32  1  0  0  0  0
 31 33  1  0  0  0  0
 33 34  2  0  0  0  0
 33 35  1  0  0  0  0
 30 36  1  0  0  0  0
 29 37  1  0  0  0  0
 28 38  1  0  0  0  0
  1 39  1  0  0  0  0
  1 40  1  0  0  0  0
  1 41  1  0  0  0  0
  5 42  1  0  0  0  0
  6 43  1  0  0  0  0
  8 44  1  0  0  0  0
 17 45  1  0  0  0  0
 20 46  1  0  0  0  0
 22 47  1  0  0  0  0
 22 48  1  0  0  0  0
 22 49  1  0  0  0  0
 23 50  1  0  0  0  0
 25 51  1  0  0  0  0
 25 52  1  0  0  0  0
 25 53  1  0  0  0  0
 27 54  1  0  0  0  0
 28 55  1  0  0  0  0
 29 56  1  0  0  0  0
 30 57  1  0  0  0  0
 31 58  1  0  0  0  0
 35 59  1  0  0  0  0
 36 60  1  0  0  0  0
 37 61  1  0  0  0  0
 38 62  1  0  0  0  0
M  END
$$$$
