C25H26O5
APtclcactv06291802453D 0   0.00000     0.00000
 
 56 58  0  0  0  0  0  0  0  0999 V2000
   -4.7374   -1.7513   -1.9930 C   0  0  0  0  0  0  0  0  0  0  0  0
   -5.8618   -0.9540   -1.3838 C   0  0  0  0  0  0  0  0  0  0  0  0
   -5.7144   -0.4125   -0.2001 C   0  0  0  0  0  0  0  0  0  0  0  0
   -4.3796   -0.4758    0.4966 C   0  0  0  0  0  0  0  0  0  0  0  0
   -3.9285    0.9392    0.8641 C   0  0  0  0  0  0  0  0  0  0  0  0
   -2.5937    0.8759    1.5608 C   0  0  0  0  0  0  0  0  0  0  0  0
   -1.4890    1.0385    0.8758 C   0  0  0  0  0  0  0  0  0  0  0  0
   -0.1550    0.9919    1.5753 C   0  0  0  0  0  0  0  0  0  0  0  0
    0.7301   -0.0251    0.9019 C   0  0  0  0  0  0  0  0  0  0  0  0
    1.6250    0.3664   -0.0481 C   0  0  0  0  0  0  0  0  0  0  0  0
    2.4350   -0.5004   -0.6766 O   0  0  0  0  0  0  0  0  0  0  0  0
    2.4199   -1.8234   -0.4105 C   0  0  0  0  0  0  0  0  0  0  0  0
    1.5339   -2.3322    0.5537 C   0  0  0  0  0  0  0  0  0  0  0  0
    0.6416   -1.3897    1.2554 C   0  0  0  0  0  0  0  0  0  0  0  0
   -0.1481   -1.7753    2.1022 O   0  0  0  0  0  0  0  0  0  0  0  0
    1.5103   -3.6981    0.8357 C   0  0  0  0  0  0  0  0  0  0  0  0
    2.3532   -4.5425    0.1702 C   0  0  0  0  0  0  0  0  0  0  0  0
    3.2353   -4.0468   -0.7871 C   0  0  0  0  0  0  0  0  0  0  0  0
    3.2699   -2.6931   -1.0782 C   0  0  0  0  0  0  0  0  0  0  0  0
    4.0679   -4.8973   -1.4400 O   0  0  0  0  0  0  0  0  0  0  0  0
    1.7064    1.7942   -0.3991 C   0  0  0  0  0  0  0  0  0  0  0  0
    2.1599    2.7273    0.5459 C   0  0  0  0  0  0  0  0  0  0  0  0
    2.2333    4.0674    0.2077 C   0  0  0  0  0  0  0  0  0  0  0  0
    1.8594    4.4848   -1.0612 C   0  0  0  0  0  0  0  0  0  0  0  0
    1.4095    3.5611   -1.9995 C   0  0  0  0  0  0  0  0  0  0  0  0
    1.3375    2.2252   -1.6774 C   0  0  0  0  0  0  0  0  0  0  0  0
    1.9324    5.8002   -1.3889 O   0  0  0  0  0  0  0  0  0  0  0  0
    2.5248    2.3172    1.7870 O   0  0  0  0  0  0  0  0  0  0  0  0
   -2.5298    0.6255    3.0455 C   0  0  0  0  0  0  0  0  0  0  0  0
   -7.1557   -0.7796   -2.1364 C   0  0  0  0  0  0  0  0  0  0  0  0
   -4.4369   -2.5406   -1.3040 H   0  0  0  0  0  0  0  0  0  0  0  0
   -5.0730   -2.1953   -2.9301 H   0  0  0  0  0  0  0  0  0  0  0  0
   -3.8890   -1.0945   -2.1854 H   0  0  0  0  0  0  0  0  0  0  0  0
   -6.5495    0.0792    0.2765 H   0  0  0  0  0  0  0  0  0  0  0  0
   -4.4707   -1.0750    1.4026 H   0  0  0  0  0  0  0  0  0  0  0  0
   -3.6445   -0.9306   -0.1673 H   0  0  0  0  0  0  0  0  0  0  0  0
   -3.8374    1.5383   -0.0419 H   0  0  0  0  0  0  0  0  0  0  0  0
   -4.6637    1.3940    1.5280 H   0  0  0  0  0  0  0  0  0  0  0  0
   -1.5343    1.2059   -0.1902 H   0  0  0  0  0  0  0  0  0  0  0  0
    0.3161    1.9736    1.5250 H   0  0  0  0  0  0  0  0  0  0  0  0
   -0.3013    0.7121    2.6185 H   0  0  0  0  0  0  0  0  0  0  0  0
    0.8285   -4.0866    1.5776 H   0  0  0  0  0  0  0  0  0  0  0  0
    2.3357   -5.6002    0.3878 H   0  0  0  0  0  0  0  0  0  0  0  0
    3.9565   -2.3160   -1.8216 H   0  0  0  0  0  0  0  0  0  0  0  0
    3.6969   -5.2627   -2.2549 H   0  0  0  0  0  0  0  0  0  0  0  0
    2.5815    4.7886    0.9323 H   0  0  0  0  0  0  0  0  0  0  0  0
    1.1201    3.8932   -2.9856 H   0  0  0  0  0  0  0  0  0  0  0  0
    0.9880    1.5112   -2.4085 H   0  0  0  0  0  0  0  0  0  0  0  0
    2.7825    6.0649   -1.7663 H   0  0  0  0  0  0  0  0  0  0  0  0
    3.4595    2.0814    1.8643 H   0  0  0  0  0  0  0  0  0  0  0  0
   -2.3929   -0.4402    3.2287 H   0  0  0  0  0  0  0  0  0  0  0  0
   -1.6922    1.1779    3.4714 H   0  0  0  0  0  0  0  0  0  0  0  0
   -3.4581    0.9578    3.5103 H   0  0  0  0  0  0  0  0  0  0  0  0
   -7.8367   -1.5915   -1.8813 H   0  0  0  0  0  0  0  0  0  0  0  0
   -7.6087    0.1737   -1.8641 H   0  0  0  0  0  0  0  0  0  0  0  0
   -6.9576   -0.7947   -3.2081 H   0  0  0  0  0  0  0  0  0  0  0  0
  1  2  1  0  0  0  0
  2  3  2  0  0  0  0
  3  4  1  0  0  0  0
  4  5  1  0  0  0  0
  5  6  1  0  0  0  0
  6  7  2  0  0  0  0
  7  8  1  0  0  0  0
  8  9  1  0  0  0  0
  9 10  2  0  0  0  0
 10 11  1  0  0  0  0
 11 12  1  0  0  0  0
 12 13  2  0  0  0  0
 13 14  1  0  0  0  0
  9 14  1  0  0  0  0
 14 15  2  0  0  0  0
 13 16  1  0  0  0  0
 16 17  2  0  0  0  0
 17 18  1  0  0  0  0
 18 19  2  0  0  0  0
 12 19  1  0  0  0  0
 18 20  1  0  0  0  0
 10 21  1  0  0  0  0
 21 22  2  0  0  0  0
 22 23  1  0  0  0  0
 23 24  2  0  0  0  0
 24 25  1  0  0  0  0
 25 26  2  0  0  0  0
 21 26  1  0  0  0  0
 24 27  1  0  0  0  0
 22 28  1  0  0  0  0
  6 29  1  0  0  0  0
  2 30  1  0  0  0  0
  1 31  1  0  0  0  0
  1 32  1  0  0  0  0
  1 33  1  0  0  0  0
  3 34  1  0  0  0  0
  4 35  1  0  0  0  0
  4 36  1  0  0  0  0
  5 37  1  0  0  0  0
  5 38  1  0  0  0  0
  7 39  1  0  0  0  0
  8 40  1  0  0  0  0
  8 41  1  0  0  0  0
 16 42  1  0  0  0  0
 17 43  1  0  0  0  0
 19 44  1  0  0  0  0
 20 45  1  0  0  0  0
 23 46  1  0  0  0  0
 25 47  1  0  0  0  0
 26 48  1  0  0  0  0
 27 49  1  0  0  0  0
 28 50  1  0  0  0  0
 29 51  1  0  0  0  0
 29 52  1  0  0  0  0
 29 53  1  0  0  0  0
 30 54  1  0  0  0  0
 30 55  1  0  0  0  0
 30 56  1  0  0  0  0
M  END
$$$$
