C23H22O14
APtclcactv06291802453D 0   0.00000     0.00000
 
 59 62  0  0  0  0  0  0  0  0999 V2000
   -8.9028   -0.6458    0.6687 C   0  0  0  0  0  0  0  0  0  0  0  0
   -8.0264   -1.1504   -0.3409 O   0  0  0  0  0  0  0  0  0  0  0  0
   -6.6894   -1.0103   -0.1252 C   0  0  0  0  0  0  0  0  0  0  0  0
   -5.9833   -2.0106    0.5405 C   0  0  0  0  0  0  0  0  0  0  0  0
   -4.6224   -1.8820    0.7677 C   0  0  0  0  0  0  0  0  0  0  0  0
   -3.9487   -0.7511    0.3323 C   0  0  0  0  0  0  0  0  0  0  0  0
   -4.6574    0.2604   -0.3402 C   0  0  0  0  0  0  0  0  0  0  0  0
   -6.0315    0.1239   -0.5728 C   0  0  0  0  0  0  0  0  0  0  0  0
   -6.7162    1.1008   -1.2224 O   0  0  0  0  0  0  0  0  0  0  0  0
   -3.9219    1.4520   -0.7933 C   0  0  0  0  0  0  0  0  0  0  0  0
   -4.4870    2.3603   -1.3814 O   0  0  0  0  0  0  0  0  0  0  0  0
   -2.5309    1.5041   -0.5196 C   0  0  0  0  0  0  0  0  0  0  0  0
   -1.9381    0.4693    0.1398 C   0  0  0  0  0  0  0  0  0  0  0  0
   -2.6231   -0.6125    0.5478 O   0  0  0  0  0  0  0  0  0  0  0  0
   -0.4914    0.5395    0.4163 C   0  0  0  0  0  0  0  0  0  0  0  0
   -0.0074    0.2470    1.6945 C   0  0  0  0  0  0  0  0  0  0  0  0
    1.3492    0.3138    1.9480 C   0  0  0  0  0  0  0  0  0  0  0  0
    2.2315    0.6725    0.9306 C   0  0  0  0  0  0  0  0  0  0  0  0
    1.7513    0.9634   -0.3387 C   0  0  0  0  0  0  0  0  0  0  0  0
    0.3999    0.8929   -0.6007 C   0  0  0  0  0  0  0  0  0  0  0  0
    3.5653    0.7381    1.1820 O   0  0  0  0  0  0  0  0  0  0  0  0
    4.4129    1.1122    0.0940 C   0  0  0  0  0  0  0  0  0  0  0  0
    5.8531    1.2529    0.5939 C   0  0  0  0  0  0  0  0  0  0  0  0
    6.3386   -0.1026    1.1166 C   0  0  0  0  0  0  0  0  0  0  0  0
    6.2097   -1.1438    0.0005 C   0  0  0  0  0  0  0  0  0  0  0  0
    4.7558   -1.1919   -0.4764 C   0  0  0  0  0  0  0  0  0  0  0  0
    4.3582    0.1069   -0.9202 O   0  0  0  0  0  0  0  0  0  0  0  0
    4.6325   -2.1716   -1.6149 C   0  0  0  0  0  0  0  0  0  0  0  0
    4.3302   -1.7813   -2.7177 O   0  0  0  0  0  0  0  0  0  0  0  0
    4.8585   -3.4778   -1.4038 O   0  0  0  0  0  0  0  0  0  0  0  0
    7.0585   -0.7817   -1.0906 O   0  0  0  0  0  0  0  0  0  0  0  0
    7.7062    0.0017    1.5175 O   0  0  0  0  0  0  0  0  0  0  0  0
    6.6924    1.6784   -0.4816 O   0  0  0  0  0  0  0  0  0  0  0  0
    1.8235    0.0299    3.1905 O   0  0  0  0  0  0  0  0  0  0  0  0
   -1.7943    2.5788   -0.9129 O   0  0  0  0  0  0  0  0  0  0  0  0
   -2.0877    3.8301   -0.2882 C   0  0  0  0  0  0  0  0  0  0  0  0
   -6.6353   -3.1218    0.9710 O   0  0  0  0  0  0  0  0  0  0  0  0
   -8.7366    0.4244    0.7924 H   0  0  0  0  0  0  0  0  0  0  0  0
   -9.9371   -0.8210    0.3728 H   0  0  0  0  0  0  0  0  0  0  0  0
   -8.7032   -1.1557    1.6112 H   0  0  0  0  0  0  0  0  0  0  0  0
   -4.0858   -2.6636    1.2850 H   0  0  0  0  0  0  0  0  0  0  0  0
   -6.7446    0.9893   -2.1825 H   0  0  0  0  0  0  0  0  0  0  0  0
   -0.6923   -0.0302    2.4823 H   0  0  0  0  0  0  0  0  0  0  0  0
    2.4385    1.2417   -1.1240 H   0  0  0  0  0  0  0  0  0  0  0  0
    0.0288    1.1198   -1.5893 H   0  0  0  0  0  0  0  0  0  0  0  0
    4.0767    2.0635   -0.3183 H   0  0  0  0  0  0  0  0  0  0  0  0
    5.8893    1.9877    1.3981 H   0  0  0  0  0  0  0  0  0  0  0  0
    5.7295   -0.4042    1.9687 H   0  0  0  0  0  0  0  0  0  0  0  0
    6.5011   -2.1230    0.3804 H   0  0  0  0  0  0  0  0  0  0  0  0
    4.1137   -1.5074    0.3460 H   0  0  0  0  0  0  0  0  0  0  0  0
    4.7673   -4.0676   -2.1646 H   0  0  0  0  0  0  0  0  0  0  0  0
    7.0272   -1.3985   -1.8347 H   0  0  0  0  0  0  0  0  0  0  0  0
    7.8624    0.6495    2.2182 H   0  0  0  0  0  0  0  0  0  0  0  0
    6.4394    2.5294   -0.8649 H   0  0  0  0  0  0  0  0  0  0  0  0
    2.0448   -0.9020    3.3236 H   0  0  0  0  0  0  0  0  0  0  0  0
   -3.0934    4.1471   -0.5645 H   0  0  0  0  0  0  0  0  0  0  0  0
   -2.0264    3.7190    0.7943 H   0  0  0  0  0  0  0  0  0  0  0  0
   -1.3673    4.5786   -0.6181 H   0  0  0  0  0  0  0  0  0  0  0  0
   -6.6581   -3.8400    0.3239 H   0  0  0  0  0  0  0  0  0  0  0  0
  1  2  1  0  0  0  0
  2  3  1  0  0  0  0
  3  4  2  0  0  0  0
  4  5  1  0  0  0  0
  5  6  2  0  0  0  0
  6  7  1  0  0  0  0
  7  8  2  0  0  0  0
  3  8  1  0  0  0  0
  8  9  1  0  0  0  0
  7 10  1  0  0  0  0
 10 11  2  0  0  0  0
 10 12  1  0  0  0  0
 12 13  2  0  0  0  0
 13 14  1  0  0  0  0
  6 14  1  0  0  0  0
 13 15  1  0  0  0  0
 15 16  2  0  0  0  0
 16 17  1  0  0  0  0
 17 18  2  0  0  0  0
 18 19  1  0  0  0  0
 19 20  2  0  0  0  0
 15 20  1  0  0  0  0
 18 21  1  0  0  0  0
 21 22  1  0  0  0  0
 22 23  1  0  0  0  0
 23 24  1  0  0  0  0
 24 25  1  0  0  0  0
 25 26  1  0  0  0  0
 26 27  1  0  0  0  0
 22 27  1  0  0  0  0
 26 28  1  0  0  0  0
 28 29  2  0  0  0  0
 28 30  1  0  0  0  0
 25 31  1  0  0  0  0
 24 32  1  0  0  0  0
 23 33  1  0  0  0  0
 17 34  1  0  0  0  0
 12 35  1  0  0  0  0
 35 36  1  0  0  0  0
  4 37  1  0  0  0  0
  1 38  1  0  0  0  0
  1 39  1  0  0  0  0
  1 40  1  0  0  0  0
  5 41  1  0  0  0  0
  9 42  1  0  0  0  0
 16 43  1  0  0  0  0
 19 44  1  0  0  0  0
 20 45  1  0  0  0  0
 22 46  1  0  0  0  0
 23 47  1  0  0  0  0
 24 48  1  0  0  0  0
 25 49  1  0  0  0  0
 26 50  1  0  0  0  0
 30 51  1  0  0  0  0
 31 52  1  0  0  0  0
 32 53  1  0  0  0  0
 33 54  1  0  0  0  0
 34 55  1  0  0  0  0
 36 56  1  0  0  0  0
 36 57  1  0  0  0  0
 36 58  1  0  0  0  0
 37 59  1  0  0  0  0
M  END
$$$$
