C25H24O12
APtclcactv06291802453D 0   0.00000     0.00000
 
 61 64  0  0  0  0  0  0  0  0999 V2000
    6.5724    0.3577   -2.9818 C   0  0  0  0  0  0  0  0  0  0  0  0
    6.3419   -0.1725   -1.5901 C   0  0  0  0  0  0  0  0  0  0  0  0
    7.2740   -0.5741   -0.9345 O   0  0  0  0  0  0  0  0  0  0  0  0
    5.1010   -0.1986   -1.0789 O   0  0  0  0  0  0  0  0  0  0  0  0
    4.9536   -0.7225    0.2673 C   0  0  0  0  0  0  0  0  0  0  0  0
    5.0950    0.4185    1.2795 C   0  0  0  0  0  0  0  0  0  0  0  0
    3.9652    1.4279    1.0600 C   0  0  0  0  0  0  0  0  0  0  0  0
    2.7052    0.7656    1.1865 O   0  0  0  0  0  0  0  0  0  0  0  0
    2.4975   -0.2799    0.2347 C   0  0  0  0  0  0  0  0  0  0  0  0
    3.5684   -1.3579    0.4210 C   0  0  0  0  0  0  0  0  0  0  0  0
    3.3951   -2.3926   -0.5828 O   0  0  0  0  0  0  0  0  0  0  0  0
    2.5945   -3.4221   -0.2649 C   0  0  0  0  0  0  0  0  0  0  0  0
    2.0564   -3.4575    0.8163 O   0  0  0  0  0  0  0  0  0  0  0  0
    2.3669   -4.5338   -1.2566 C   0  0  0  0  0  0  0  0  0  0  0  0
    1.2039   -0.8540    0.4322 O   0  0  0  0  0  0  0  0  0  0  0  0
    0.1328   -0.0882    0.1018 C   0  0  0  0  0  0  0  0  0  0  0  0
    0.3312    1.1920   -0.4028 C   0  0  0  0  0  0  0  0  0  0  0  0
   -0.7529    1.9807   -0.7426 C   0  0  0  0  0  0  0  0  0  0  0  0
   -2.0496    1.4797   -0.5747 C   0  0  0  0  0  0  0  0  0  0  0  0
   -2.2473    0.1847   -0.0647 C   0  0  0  0  0  0  0  0  0  0  0  0
   -1.1484   -0.5925    0.2656 C   0  0  0  0  0  0  0  0  0  0  0  0
   -3.5014   -0.2889    0.0942 O   0  0  0  0  0  0  0  0  0  0  0  0
   -4.5868    0.4364   -0.2193 C   0  0  0  0  0  0  0  0  0  0  0  0
   -4.5032    1.6986   -0.7194 C   0  0  0  0  0  0  0  0  0  0  0  0
   -3.2320    2.2856   -0.9231 C   0  0  0  0  0  0  0  0  0  0  0  0
   -3.1197    3.4157   -1.3700 O   0  0  0  0  0  0  0  0  0  0  0  0
   -5.9209   -0.1584   -0.0139 C   0  0  0  0  0  0  0  0  0  0  0  0
   -6.0396   -1.4536    0.4980 C   0  0  0  0  0  0  0  0  0  0  0  0
   -7.2873   -2.0050    0.6881 C   0  0  0  0  0  0  0  0  0  0  0  0
   -8.4271   -1.2757    0.3718 C   0  0  0  0  0  0  0  0  0  0  0  0
   -8.3137    0.0124   -0.1375 C   0  0  0  0  0  0  0  0  0  0  0  0
   -7.0701    0.5737   -0.3253 C   0  0  0  0  0  0  0  0  0  0  0  0
   -9.6550   -1.8233    0.5603 O   0  0  0  0  0  0  0  0  0  0  0  0
   -0.5613    3.2309   -1.2345 O   0  0  0  0  0  0  0  0  0  0  0  0
    4.0643    2.5401    2.1060 C   0  0  0  0  0  0  0  0  0  0  0  0
    3.0828    3.5416    1.8308 O   0  0  0  0  0  0  0  0  0  0  0  0
    5.0148   -0.1072    2.6059 O   0  0  0  0  0  0  0  0  0  0  0  0
    7.6342    0.2998   -3.2214 H   0  0  0  0  0  0  0  0  0  0  0  0
    6.0056   -0.2391   -3.6965 H   0  0  0  0  0  0  0  0  0  0  0  0
    6.2442    1.3958   -3.0342 H   0  0  0  0  0  0  0  0  0  0  0  0
    5.7228   -1.4721    0.4531 H   0  0  0  0  0  0  0  0  0  0  0  0
    6.0568    0.9121    1.1399 H   0  0  0  0  0  0  0  0  0  0  0  0
    4.0510    1.8583    0.0623 H   0  0  0  0  0  0  0  0  0  0  0  0
    2.5641    0.1282   -0.7738 H   0  0  0  0  0  0  0  0  0  0  0  0
    3.4763   -1.7947    1.4154 H   0  0  0  0  0  0  0  0  0  0  0  0
    2.9301   -4.3294   -2.1671 H   0  0  0  0  0  0  0  0  0  0  0  0
    2.7012   -5.4781   -0.8268 H   0  0  0  0  0  0  0  0  0  0  0  0
    1.3048   -4.5979   -1.4930 H   0  0  0  0  0  0  0  0  0  0  0  0
    1.3343    1.5717   -0.5295 H   0  0  0  0  0  0  0  0  0  0  0  0
   -1.2903   -1.5886    0.6581 H   0  0  0  0  0  0  0  0  0  0  0  0
   -5.4010    2.2489   -0.9593 H   0  0  0  0  0  0  0  0  0  0  0  0
   -5.1543   -2.0212    0.7438 H   0  0  0  0  0  0  0  0  0  0  0  0
   -7.3799   -3.0059    1.0833 H   0  0  0  0  0  0  0  0  0  0  0  0
   -9.2021    0.5757   -0.3820 H   0  0  0  0  0  0  0  0  0  0  0  0
   -6.9829    1.5749   -0.7208 H   0  0  0  0  0  0  0  0  0  0  0  0
  -10.0301   -1.6560    1.4358 H   0  0  0  0  0  0  0  0  0  0  0  0
   -0.4858    3.2672   -2.1979 H   0  0  0  0  0  0  0  0  0  0  0  0
    3.8895    2.1228    3.0977 H   0  0  0  0  0  0  0  0  0  0  0  0
    5.0583    2.9858    2.0694 H   0  0  0  0  0  0  0  0  0  0  0  0
    3.0879    4.2795    2.4558 H   0  0  0  0  0  0  0  0  0  0  0  0
    5.0968    0.5615    3.2996 H   0  0  0  0  0  0  0  0  0  0  0  0
  1  2  1  0  0  0  0
  2  3  2  0  0  0  0
  2  4  1  0  0  0  0
  4  5  1  0  0  0  0
  5  6  1  0  0  0  0
  6  7  1  0  0  0  0
  7  8  1  0  0  0  0
  8  9  1  0  0  0  0
  9 10  1  0  0  0  0
  5 10  1  0  0  0  0
 10 11  1  0  0  0  0
 11 12  1  0  0  0  0
 12 13  2  0  0  0  0
 12 14  1  0  0  0  0
  9 15  1  0  0  0  0
 15 16  1  0  0  0  0
 16 17  2  0  0  0  0
 17 18  1  0  0  0  0
 18 19  2  0  0  0  0
 19 20  1  0  0  0  0
 20 21  2  0  0  0  0
 16 21  1  0  0  0  0
 20 22  1  0  0  0  0
 22 23  1  0  0  0  0
 23 24  2  0  0  0  0
 24 25  1  0  0  0  0
 19 25  1  0  0  0  0
 25 26  2  0  0  0  0
 23 27  1  0  0  0  0
 27 28  2  0  0  0  0
 28 29  1  0  0  0  0
 29 30  2  0  0  0  0
 30 31  1  0  0  0  0
 31 32  2  0  0  0  0
 27 32  1  0  0  0  0
 30 33  1  0  0  0  0
 18 34  1  0  0  0  0
  7 35  1  0  0  0  0
 35 36  1  0  0  0  0
  6 37  1  0  0  0  0
  1 38  1  0  0  0  0
  1 39  1  0  0  0  0
  1 40  1  0  0  0  0
  5 41  1  0  0  0  0
  6 42  1  0  0  0  0
  7 43  1  0  0  0  0
  9 44  1  0  0  0  0
 10 45  1  0  0  0  0
 14 46  1  0  0  0  0
 14 47  1  0  0  0  0
 14 48  1  0  0  0  0
 17 49  1  0  0  0  0
 21 50  1  0  0  0  0
 24 51  1  0  0  0  0
 28 52  1  0  0  0  0
 29 53  1  0  0  0  0
 31 54  1  0  0  0  0
 32 55  1  0  0  0  0
 33 56  1  0  0  0  0
 34 57  1  0  0  0  0
 35 58  1  0  0  0  0
 35 59  1  0  0  0  0
 36 60  1  0  0  0  0
 37 61  1  0  0  0  0
M  END
$$$$
