C4H4O4
APtclcactv06291802453D 0   0.00000     0.00000
 
 12  9  0  0  0  0  0  0  0  0999 V2000
  -18.0633   -7.4560   -1.9485 H   0  3  0  0  0  0  0  0  0  0  0  0
  -10.4266   -3.6394   -0.4945 H   0  3  0  0  0  0  0  0  0  0  0  0
    0.5287   -0.4799    0.2213 C   0  0  0  0  0  0  0  0  0  0  0  0
   -0.0252    0.6759   -0.1782 C   0  0  0  0  0  0  0  0  0  0  0  0
   -1.4407    0.9632    0.1332 C   0  0  0  0  0  0  0  0  0  0  0  0
   -2.1074    0.1485    0.7545 O   0  0  0  0  0  0  0  0  0  0  0  0
   -1.9451    2.0156   -0.2305 O   0  5  0  0  0  0  0  0  0  0  0  0
    1.9443   -0.7672   -0.0901 C   0  0  0  0  0  0  0  0  0  0  0  0
    2.6109    0.0475   -0.7114 O   0  0  0  0  0  0  0  0  0  0  0  0
    2.4486   -1.8196    0.2736 O   0  5  0  0  0  0  0  0  0  0  0  0
   -0.0590   -1.1977    0.7741 H   0  0  0  0  0  0  0  0  0  0  0  0
    0.5638    1.3957   -0.7271 H   0  0  0  0  0  0  0  0  0  0  0  0
  3  4  2  0  0  0  0
  4  5  1  0  0  0  0
  5  6  2  0  0  0  0
  5  7  1  0  0  0  0
  3  8  1  0  0  0  0
  8  9  2  0  0  0  0
  8 10  1  0  0  0  0
  3 11  1  0  0  0  0
  4 12  1  0  0  0  0
M  CHG  4   1   1   2   1   7  -1  10  -1
M  END
$$$$
