C8H16O2
APtclcactv06211806453D 0   0.00000     0.00000
 
 26 25  0  0  0  0  0  0  0  0999 V2000
    3.7457    1.5941   -0.4273 C   0  0  0  0  0  0  0  0  0  0  0  0
    2.9367    0.5480    0.3422 C   0  0  0  0  0  0  0  0  0  0  0  0
    1.5308    0.4510   -0.2535 C   0  0  0  0  0  0  0  0  0  0  0  0
    0.7219   -0.5952    0.5160 C   0  0  0  0  0  0  0  0  0  0  0  0
   -0.6977   -0.6039    0.0105 C   0  0  0  0  0  0  0  0  0  0  0  0
   -1.0793   -1.5009   -0.7025 O   0  0  0  0  0  0  0  0  0  0  0  0
   -1.6412    0.5066    0.3946 C   0  0  0  0  0  0  0  0  0  0  0  0
   -3.0082    0.2590   -0.2464 C   0  0  0  0  0  0  0  0  0  0  0  0
   -3.9661    1.3865    0.1437 C   0  0  0  0  0  0  0  0  0  0  0  0
    1.3047   -1.8854    0.3216 O   0  0  0  0  0  0  0  0  0  0  0  0
    4.7472    1.6632   -0.0028 H   0  0  0  0  0  0  0  0  0  0  0  0
    3.8144    1.3016   -1.4750 H   0  0  0  0  0  0  0  0  0  0  0  0
    3.2516    2.5628   -0.3521 H   0  0  0  0  0  0  0  0  0  0  0  0
    3.4308   -0.4207    0.2671 H   0  0  0  0  0  0  0  0  0  0  0  0
    2.8680    0.8404    1.3900 H   0  0  0  0  0  0  0  0  0  0  0  0
    1.0368    1.4196   -0.1784 H   0  0  0  0  0  0  0  0  0  0  0  0
    1.5996    0.1585   -1.3013 H   0  0  0  0  0  0  0  0  0  0  0  0
    0.7279   -0.3500    1.5780 H   0  0  0  0  0  0  0  0  0  0  0  0
   -1.7480    0.5338    1.4790 H   0  0  0  0  0  0  0  0  0  0  0  0
   -1.2430    1.4590    0.0447 H   0  0  0  0  0  0  0  0  0  0  0  0
   -2.9015    0.2318   -1.3308 H   0  0  0  0  0  0  0  0  0  0  0  0
   -3.4065   -0.6934    0.1035 H   0  0  0  0  0  0  0  0  0  0  0  0
   -4.9400    1.2102   -0.3130 H   0  0  0  0  0  0  0  0  0  0  0  0
   -4.0729    1.4137    1.2281 H   0  0  0  0  0  0  0  0  0  0  0  0
   -3.5679    2.3389   -0.2062 H   0  0  0  0  0  0  0  0  0  0  0  0
    1.3326   -2.1693   -0.6023 H   0  0  0  0  0  0  0  0  0  0  0  0
  1  2  1  0  0  0  0
  2  3  1  0  0  0  0
  3  4  1  0  0  0  0
  4  5  1  0  0  0  0
  5  6  2  0  0  0  0
  5  7  1  0  0  0  0
  7  8  1  0  0  0  0
  8  9  1  0  0  0  0
  4 10  1  0  0  0  0
  1 11  1  0  0  0  0
  1 12  1  0  0  0  0
  1 13  1  0  0  0  0
  2 14  1  0  0  0  0
  2 15  1  0  0  0  0
  3 16  1  0  0  0  0
  3 17  1  0  0  0  0
  4 18  1  0  0  0  0
  7 19  1  0  0  0  0
  7 20  1  0  0  0  0
  8 21  1  0  0  0  0
  8 22  1  0  0  0  0
  9 23  1  0  0  0  0
  9 24  1  0  0  0  0
  9 25  1  0  0  0  0
 10 26  1  0  0  0  0
M  END
$$$$
