C11H9NO4
APtclcactv06291802453D 0   0.00000     0.00000
 
 25 26  0  0  0  0  0  0  0  0999 V2000
   -5.1270    0.7001    0.0018 C   0  0  0  0  0  0  0  0  0  0  0  0
   -4.1746   -0.3652    0.0011 O   0  0  0  0  0  0  0  0  0  0  0  0
   -2.8602   -0.0179    0.0009 C   0  0  0  0  0  0  0  0  0  0  0  0
   -1.8898   -1.0002    0.0003 C   0  0  0  0  0  0  0  0  0  0  0  0
   -0.5423   -0.6365   -0.0004 C   0  0  0  0  0  0  0  0  0  0  0  0
   -0.1784    0.7231   -0.0003 C   0  0  0  0  0  0  0  0  0  0  0  0
   -1.1730    1.6984   -0.0001 C   0  0  0  0  0  0  0  0  0  0  0  0
   -2.4983    1.3280   -0.0044 C   0  0  0  0  0  0  0  0  0  0  0  0
    1.1527    1.0715   -0.0001 N   0  0  0  0  0  0  0  0  0  0  0  0
    2.1393    0.1291    0.0002 C   0  0  0  0  0  0  0  0  0  0  0  0
    1.8704   -1.2015   -0.0003 C   0  0  0  0  0  0  0  0  0  0  0  0
    0.5235   -1.6520   -0.0006 C   0  0  0  0  0  0  0  0  0  0  0  0
    0.2583   -2.8423   -0.0009 O   0  0  0  0  0  0  0  0  0  0  0  0
    3.5530    0.5733    0.0005 C   0  0  0  0  0  0  0  0  0  0  0  0
    3.8169    1.7583    0.0006 O   0  0  0  0  0  0  0  0  0  0  0  0
    4.5451   -0.3376    0.0008 O   0  0  0  0  0  0  0  0  0  0  0  0
   -4.9864    1.3138   -0.8879 H   0  0  0  0  0  0  0  0  0  0  0  0
   -6.1353    0.2860    0.0019 H   0  0  0  0  0  0  0  0  0  0  0  0
   -4.9859    1.3130    0.8920 H   0  0  0  0  0  0  0  0  0  0  0  0
   -2.1716   -2.0428    0.0006 H   0  0  0  0  0  0  0  0  0  0  0  0
   -0.9042    2.7444   -0.0001 H   0  0  0  0  0  0  0  0  0  0  0  0
   -3.2657    2.0879   -0.0045 H   0  0  0  0  0  0  0  0  0  0  0  0
    1.3957    2.0105   -0.0004 H   0  0  0  0  0  0  0  0  0  0  0  0
    2.6797   -1.9166   -0.0008 H   0  0  0  0  0  0  0  0  0  0  0  0
    5.4512    0.0002    0.0010 H   0  0  0  0  0  0  0  0  0  0  0  0
  1  2  1  0  0  0  0
  2  3  1  0  0  0  0
  3  4  2  0  0  0  0
  4  5  1  0  0  0  0
  5  6  2  0  0  0  0
  6  7  1  0  0  0  0
  7  8  2  0  0  0  0
  3  8  1  0  0  0  0
  6  9  1  0  0  0  0
  9 10  1  0  0  0  0
 10 11  2  0  0  0  0
 11 12  1  0  0  0  0
  5 12  1  0  0  0  0
 12 13  2  0  0  0  0
 10 14  1  0  0  0  0
 14 15  2  0  0  0  0
 14 16  1  0  0  0  0
  1 17  1  0  0  0  0
  1 18  1  0  0  0  0
  1 19  1  0  0  0  0
  4 20  1  0  0  0  0
  7 21  1  0  0  0  0
  8 22  1  0  0  0  0
  9 23  1  0  0  0  0
 11 24  1  0  0  0  0
 16 25  1  0  0  0  0
M  END
$$$$
