C6H8O4
APtclcactv06291802453D 0   0.00000     0.00000
 
 18 17  0  0  0  0  0  0  0  0999 V2000
   -1.2582    1.7336    0.6891 C   0  0  0  0  0  0  0  0  0  0  0  0
   -1.1495    0.5672   -0.2950 C   0  0  0  0  0  0  0  0  0  0  0  0
    0.1363   -0.2147   -0.0190 C   0  0  0  0  0  0  0  0  0  0  0  0
    1.3467    0.6747   -0.3103 C   0  0  0  0  0  0  0  0  0  0  0  0
    2.6131   -0.0955   -0.0384 C   0  0  0  0  0  0  0  0  0  0  0  0
    2.5532   -1.2489    0.3520 O   0  0  0  0  0  0  0  0  0  0  0  0
    3.6976    0.4348   -0.2089 O   0  5  0  0  0  0  0  0  0  0  0  0
   -2.3377   -0.3443   -0.1269 C   0  0  0  0  0  0  0  0  0  0  0  0
   -3.4651    0.0851   -0.3026 O   0  0  0  0  0  0  0  0  0  0  0  0
   -2.1715   -1.5113    0.1848 O   0  5  0  0  0  0  0  0  0  0  0  0
   -0.3988    2.3930    0.5675 H   0  0  0  0  0  0  0  0  0  0  0  0
   -2.1742    2.2907    0.4925 H   0  0  0  0  0  0  0  0  0  0  0  0
   -1.2791    1.3482    1.7085 H   0  0  0  0  0  0  0  0  0  0  0  0
   -1.1286    0.9527   -1.3144 H   0  0  0  0  0  0  0  0  0  0  0  0
    0.1560   -0.5244    1.0259 H   0  0  0  0  0  0  0  0  0  0  0  0
    0.1704   -1.0958   -0.6598 H   0  0  0  0  0  0  0  0  0  0  0  0
    1.3270    0.9844   -1.3551 H   0  0  0  0  0  0  0  0  0  0  0  0
    1.3126    1.5558    0.3306 H   0  0  0  0  0  0  0  0  0  0  0  0
  1  2  1  0  0  0  0
  2  3  1  0  0  0  0
  3  4  1  0  0  0  0
  4  5  1  0  0  0  0
  5  6  2  0  0  0  0
  5  7  1  0  0  0  0
  2  8  1  0  0  0  0
  8  9  2  0  0  0  0
  8 10  1  0  0  0  0
  1 11  1  0  0  0  0
  1 12  1  0  0  0  0
  1 13  1  0  0  0  0
  2 14  1  0  0  0  0
  3 15  1  0  0  0  0
  3 16  1  0  0  0  0
  4 17  1  0  0  0  0
  4 18  1  0  0  0  0
M  CHG  2   7  -1  10  -1
M  END
$$$$
