C24H48O2
APtclcactv06211806123D 0   0.00000     0.00000
 
 74 73  0  0  0  0  0  0  0  0999 V2000
   15.4715   -0.2950   -0.0000 C   0  0  0  0  0  0  0  0  0  0  0  0
   14.2089    0.5693    0.0000 C   0  0  0  0  0  0  0  0  0  0  0  0
   12.9733   -0.3329   -0.0000 C   0  0  0  0  0  0  0  0  0  0  0  0
   11.7108    0.5313    0.0000 C   0  0  0  0  0  0  0  0  0  0  0  0
   10.4751   -0.3709   -0.0000 C   0  0  0  0  0  0  0  0  0  0  0  0
    9.2126    0.4934    0.0000 C   0  0  0  0  0  0  0  0  0  0  0  0
    7.9769   -0.4088   -0.0000 C   0  0  0  0  0  0  0  0  0  0  0  0
    6.7144    0.4555    0.0000 C   0  0  0  0  0  0  0  0  0  0  0  0
    5.4787   -0.4467   -0.0000 C   0  0  0  0  0  0  0  0  0  0  0  0
    4.2162    0.4176    0.0000 C   0  0  0  0  0  0  0  0  0  0  0  0
    2.9805   -0.4847   -0.0000 C   0  0  0  0  0  0  0  0  0  0  0  0
    1.7180    0.3796    0.0000 C   0  0  0  0  0  0  0  0  0  0  0  0
    0.4823   -0.5226   -0.0000 C   0  0  0  0  0  0  0  0  0  0  0  0
   -0.7802    0.3417    0.0000 C   0  0  0  0  0  0  0  0  0  0  0  0
   -2.0159   -0.5605    0.0000 C   0  0  0  0  0  0  0  0  0  0  0  0
   -3.2784    0.3038    0.0000 C   0  0  0  0  0  0  0  0  0  0  0  0
   -4.5141   -0.5984    0.0000 C   0  0  0  0  0  0  0  0  0  0  0  0
   -5.7766    0.2658    0.0000 C   0  0  0  0  0  0  0  0  0  0  0  0
   -7.0123   -0.6364    0.0000 C   0  0  0  0  0  0  0  0  0  0  0  0
   -8.2748    0.2279   -0.0000 C   0  0  0  0  0  0  0  0  0  0  0  0
   -9.5105   -0.6743    0.0000 C   0  0  0  0  0  0  0  0  0  0  0  0
  -10.7540    0.1770   -0.0000 C   0  0  0  0  0  0  0  0  0  0  0  0
  -10.6614    1.3817   -0.0000 O   0  0  0  0  0  0  0  0  0  0  0  0
  -11.9645   -0.4031    0.0000 O   0  0  0  0  0  0  0  0  0  0  0  0
  -13.1180    0.4787   -0.0000 C   0  0  0  0  0  0  0  0  0  0  0  0
  -14.3992   -0.3576    0.0000 C   0  0  0  0  0  0  0  0  0  0  0  0
   15.4810   -0.9243    0.8900 H   0  0  0  0  0  0  0  0  0  0  0  0
   15.4810   -0.9242   -0.8900 H   0  0  0  0  0  0  0  0  0  0  0  0
   16.3518    0.3477    0.0000 H   0  0  0  0  0  0  0  0  0  0  0  0
   14.1994    1.1985    0.8900 H   0  0  0  0  0  0  0  0  0  0  0  0
   14.1994    1.1985   -0.8900 H   0  0  0  0  0  0  0  0  0  0  0  0
   12.9828   -0.9622   -0.8900 H   0  0  0  0  0  0  0  0  0  0  0  0
   12.9828   -0.9622    0.8900 H   0  0  0  0  0  0  0  0  0  0  0  0
   11.7012    1.1606    0.8900 H   0  0  0  0  0  0  0  0  0  0  0  0
   11.7012    1.1606   -0.8900 H   0  0  0  0  0  0  0  0  0  0  0  0
   10.4846   -1.0001   -0.8900 H   0  0  0  0  0  0  0  0  0  0  0  0
   10.4846   -1.0001    0.8900 H   0  0  0  0  0  0  0  0  0  0  0  0
    9.2030    1.1226    0.8900 H   0  0  0  0  0  0  0  0  0  0  0  0
    9.2030    1.1227   -0.8900 H   0  0  0  0  0  0  0  0  0  0  0  0
    7.9864   -1.0380   -0.8900 H   0  0  0  0  0  0  0  0  0  0  0  0
    7.9864   -1.0380    0.8900 H   0  0  0  0  0  0  0  0  0  0  0  0
    6.7048    1.0847    0.8900 H   0  0  0  0  0  0  0  0  0  0  0  0
    6.7048    1.0847   -0.8900 H   0  0  0  0  0  0  0  0  0  0  0  0
    5.4882   -1.0760   -0.8900 H   0  0  0  0  0  0  0  0  0  0  0  0
    5.4882   -1.0760    0.8900 H   0  0  0  0  0  0  0  0  0  0  0  0
    4.2066    1.0468    0.8900 H   0  0  0  0  0  0  0  0  0  0  0  0
    4.2066    1.0468   -0.8900 H   0  0  0  0  0  0  0  0  0  0  0  0
    2.9900   -1.1139   -0.8900 H   0  0  0  0  0  0  0  0  0  0  0  0
    2.9900   -1.1139    0.8900 H   0  0  0  0  0  0  0  0  0  0  0  0
    1.7084    1.0089    0.8900 H   0  0  0  0  0  0  0  0  0  0  0  0
    1.7084    1.0089   -0.8900 H   0  0  0  0  0  0  0  0  0  0  0  0
    0.4919   -1.1518   -0.8900 H   0  0  0  0  0  0  0  0  0  0  0  0
    0.4919   -1.1518    0.8900 H   0  0  0  0  0  0  0  0  0  0  0  0
   -0.7898    0.9709    0.8900 H   0  0  0  0  0  0  0  0  0  0  0  0
   -0.7898    0.9709   -0.8900 H   0  0  0  0  0  0  0  0  0  0  0  0
   -2.0063   -1.1898   -0.8900 H   0  0  0  0  0  0  0  0  0  0  0  0
   -2.0063   -1.1898    0.8900 H   0  0  0  0  0  0  0  0  0  0  0  0
   -3.2879    0.9330    0.8900 H   0  0  0  0  0  0  0  0  0  0  0  0
   -3.2879    0.9330   -0.8900 H   0  0  0  0  0  0  0  0  0  0  0  0
   -4.5045   -1.2277   -0.8900 H   0  0  0  0  0  0  0  0  0  0  0  0
   -4.5045   -1.2277    0.8900 H   0  0  0  0  0  0  0  0  0  0  0  0
   -5.7861    0.8951    0.8900 H   0  0  0  0  0  0  0  0  0  0  0  0
   -5.7861    0.8951   -0.8900 H   0  0  0  0  0  0  0  0  0  0  0  0
   -7.0027   -1.2656   -0.8900 H   0  0  0  0  0  0  0  0  0  0  0  0
   -7.0027   -1.2656    0.8900 H   0  0  0  0  0  0  0  0  0  0  0  0
   -8.2843    0.8571    0.8900 H   0  0  0  0  0  0  0  0  0  0  0  0
   -8.2843    0.8571   -0.8900 H   0  0  0  0  0  0  0  0  0  0  0  0
   -9.5009   -1.3035   -0.8900 H   0  0  0  0  0  0  0  0  0  0  0  0
   -9.5009   -1.3035    0.8900 H   0  0  0  0  0  0  0  0  0  0  0  0
  -13.0946    1.1076    0.8900 H   0  0  0  0  0  0  0  0  0  0  0  0
  -13.0946    1.1076   -0.8900 H   0  0  0  0  0  0  0  0  0  0  0  0
  -14.4226   -0.9865   -0.8900 H   0  0  0  0  0  0  0  0  0  0  0  0
  -14.4226   -0.9865    0.8900 H   0  0  0  0  0  0  0  0  0  0  0  0
  -15.2652    0.3043   -0.0000 H   0  0  0  0  0  0  0  0  0  0  0  0
  1  2  1  0  0  0  0
  2  3  1  0  0  0  0
  3  4  1  0  0  0  0
  4  5  1  0  0  0  0
  5  6  1  0  0  0  0
  6  7  1  0  0  0  0
  7  8  1  0  0  0  0
  8  9  1  0  0  0  0
  9 10  1  0  0  0  0
 10 11  1  0  0  0  0
 11 12  1  0  0  0  0
 12 13  1  0  0  0  0
 13 14  1  0  0  0  0
 14 15  1  0  0  0  0
 15 16  1  0  0  0  0
 16 17  1  0  0  0  0
 17 18  1  0  0  0  0
 18 19  1  0  0  0  0
 19 20  1  0  0  0  0
 20 21  1  0  0  0  0
 21 22  1  0  0  0  0
 22 23  2  0  0  0  0
 22 24  1  0  0  0  0
 24 25  1  0  0  0  0
 25 26  1  0  0  0  0
  1 27  1  0  0  0  0
  1 28  1  0  0  0  0
  1 29  1  0  0  0  0
  2 30  1  0  0  0  0
  2 31  1  0  0  0  0
  3 32  1  0  0  0  0
  3 33  1  0  0  0  0
  4 34  1  0  0  0  0
  4 35  1  0  0  0  0
  5 36  1  0  0  0  0
  5 37  1  0  0  0  0
  6 38  1  0  0  0  0
  6 39  1  0  0  0  0
  7 40  1  0  0  0  0
  7 41  1  0  0  0  0
  8 42  1  0  0  0  0
  8 43  1  0  0  0  0
  9 44  1  0  0  0  0
  9 45  1  0  0  0  0
 10 46  1  0  0  0  0
 10 47  1  0  0  0  0
 11 48  1  0  0  0  0
 11 49  1  0  0  0  0
 12 50  1  0  0  0  0
 12 51  1  0  0  0  0
 13 52  1  0  0  0  0
 13 53  1  0  0  0  0
 14 54  1  0  0  0  0
 14 55  1  0  0  0  0
 15 56  1  0  0  0  0
 15 57  1  0  0  0  0
 16 58  1  0  0  0  0
 16 59  1  0  0  0  0
 17 60  1  0  0  0  0
 17 61  1  0  0  0  0
 18 62  1  0  0  0  0
 18 63  1  0  0  0  0
 19 64  1  0  0  0  0
 19 65  1  0  0  0  0
 20 66  1  0  0  0  0
 20 67  1  0  0  0  0
 21 68  1  0  0  0  0
 21 69  1  0  0  0  0
 25 70  1  0  0  0  0
 25 71  1  0  0  0  0
 26 72  1  0  0  0  0
 26 73  1  0  0  0  0
 26 74  1  0  0  0  0
M  END
$$$$
