C21H20O11
APtclcactv06281817063D 0   0.00000     0.00000
 
 52 55  0  0  0  0  0  0  0  0999 V2000
    6.6038    0.5481    0.2546 C   0  0  0  0  0  0  0  0  0  0  0  0
    7.4000   -0.5754    0.2827 C   0  0  0  0  0  0  0  0  0  0  0  0
    6.8268   -1.8391    0.2263 C   0  0  0  0  0  0  0  0  0  0  0  0
    5.4418   -1.9781    0.1403 C   0  0  0  0  0  0  0  0  0  0  0  0
    4.6354   -0.8578    0.1110 C   0  0  0  0  0  0  0  0  0  0  0  0
    5.2121    0.4171    0.1688 C   0  0  0  0  0  0  0  0  0  0  0  0
    4.3605    1.6127    0.1386 C   0  0  0  0  0  0  0  0  0  0  0  0
    3.0253    1.4895   -0.0707 C   0  0  0  0  0  0  0  0  0  0  0  0
    2.0657    2.5923   -0.2325 C   0  0  0  0  0  0  0  0  0  0  0  0
    2.2943    3.7896   -0.2085 O   0  0  0  0  0  0  0  0  0  0  0  0
    0.7681    1.9272   -0.4307 C   0  0  0  0  0  0  0  0  0  0  0  0
   -0.5315    2.4060   -0.6401 C   0  0  0  0  0  0  0  0  0  0  0  0
   -1.5738    1.5096   -0.7958 C   0  0  0  0  0  0  0  0  0  0  0  0
   -1.3271    0.1432   -0.7439 C   0  0  0  0  0  0  0  0  0  0  0  0
   -0.0423   -0.3365   -0.5368 C   0  0  0  0  0  0  0  0  0  0  0  0
    1.0175    0.5458   -0.3782 C   0  0  0  0  0  0  0  0  0  0  0  0
    2.3355    0.3291   -0.1743 O   0  0  0  0  0  0  0  0  0  0  0  0
   -2.3541   -0.7311   -0.8970 O   0  0  0  0  0  0  0  0  0  0  0  0
   -3.6537   -0.1750   -1.1067 C   0  0  0  0  0  0  0  0  0  0  0  0
   -4.6531   -1.3020   -1.3803 C   0  0  0  0  0  0  0  0  0  0  0  0
   -4.7305   -2.2145   -0.1524 C   0  0  0  0  0  0  0  0  0  0  0  0
   -5.1196   -1.3764    1.0692 C   0  0  0  0  0  0  0  0  0  0  0  0
   -4.1022   -0.2465    1.2482 C   0  0  0  0  0  0  0  0  0  0  0  0
   -4.0577    0.5454    0.0595 O   0  0  0  0  0  0  0  0  0  0  0  0
   -4.5172    0.6312    2.4307 C   0  0  0  0  0  0  0  0  0  0  0  0
   -3.5088    1.6148    2.6708 O   0  0  0  0  0  0  0  0  0  0  0  0
   -6.4211   -0.8202    0.8718 O   0  0  0  0  0  0  0  0  0  0  0  0
   -5.7149   -3.2271   -0.3707 O   0  0  0  0  0  0  0  0  0  0  0  0
   -5.9422   -0.7439   -1.6425 O   0  0  0  0  0  0  0  0  0  0  0  0
   -0.7669    3.7413   -0.6895 O   0  0  0  0  0  0  0  0  0  0  0  0
    4.8854   -3.2178    0.0848 O   0  0  0  0  0  0  0  0  0  0  0  0
    7.6176   -2.9431    0.2545 O   0  0  0  0  0  0  0  0  0  0  0  0
    7.0521    1.5294    0.3031 H   0  0  0  0  0  0  0  0  0  0  0  0
    8.4732   -0.4733    0.3486 H   0  0  0  0  0  0  0  0  0  0  0  0
    3.5628   -0.9643    0.0438 H   0  0  0  0  0  0  0  0  0  0  0  0
    4.7965    2.5901    0.2830 H   0  0  0  0  0  0  0  0  0  0  0  0
   -2.5784    1.8717   -0.9573 H   0  0  0  0  0  0  0  0  0  0  0  0
    0.1344   -1.4013   -0.4984 H   0  0  0  0  0  0  0  0  0  0  0  0
   -3.6260    0.5016   -1.9607 H   0  0  0  0  0  0  0  0  0  0  0  0
   -4.3229   -1.8800   -2.2435 H   0  0  0  0  0  0  0  0  0  0  0  0
   -3.7594   -2.6791    0.0184 H   0  0  0  0  0  0  0  0  0  0  0  0
   -5.1232   -2.0075    1.9578 H   0  0  0  0  0  0  0  0  0  0  0  0
   -3.1168   -0.6716    1.4390 H   0  0  0  0  0  0  0  0  0  0  0  0
   -5.4608    1.1265    2.2020 H   0  0  0  0  0  0  0  0  0  0  0  0
   -4.6384    0.0108    3.3188 H   0  0  0  0  0  0  0  0  0  0  0  0
   -3.7058    2.2080    3.4086 H   0  0  0  0  0  0  0  0  0  0  0  0
   -7.1162   -1.4807    0.7464 H   0  0  0  0  0  0  0  0  0  0  0  0
   -5.5353   -3.7922   -1.1345 H   0  0  0  0  0  0  0  0  0  0  0  0
   -5.9660   -0.1504   -2.4057 H   0  0  0  0  0  0  0  0  0  0  0  0
   -0.6975    4.1203   -1.5764 H   0  0  0  0  0  0  0  0  0  0  0  0
    4.6713   -3.5919    0.9505 H   0  0  0  0  0  0  0  0  0  0  0  0
    7.7937   -3.2782    1.1443 H   0  0  0  0  0  0  0  0  0  0  0  0
  1  2  2  0  0  0  0
  2  3  1  0  0  0  0
  3  4  2  0  0  0  0
  4  5  1  0  0  0  0
  5  6  2  0  0  0  0
  1  6  1  0  0  0  0
  6  7  1  0  0  0  0
  7  8  2  0  0  0  0
  8  9  1  0  0  0  0
  9 10  2  0  0  0  0
  9 11  1  0  0  0  0
 11 12  2  0  0  0  0
 12 13  1  0  0  0  0
 13 14  2  0  0  0  0
 14 15  1  0  0  0  0
 15 16  2  0  0  0  0
 11 16  1  0  0  0  0
 16 17  1  0  0  0  0
  8 17  1  0  0  0  0
 14 18  1  0  0  0  0
 18 19  1  0  0  0  0
 19 20  1  0  0  0  0
 20 21  1  0  0  0  0
 21 22  1  0  0  0  0
 22 23  1  0  0  0  0
 23 24  1  0  0  0  0
 19 24  1  0  0  0  0
 23 25  1  0  0  0  0
 25 26  1  0  0  0  0
 22 27  1  0  0  0  0
 21 28  1  0  0  0  0
 20 29  1  0  0  0  0
 12 30  1  0  0  0  0
  4 31  1  0  0  0  0
  3 32  1  0  0  0  0
  1 33  1  0  0  0  0
  2 34  1  0  0  0  0
  5 35  1  0  0  0  0
  7 36  1  0  0  0  0
 13 37  1  0  0  0  0
 15 38  1  0  0  0  0
 19 39  1  0  0  0  0
 20 40  1  0  0  0  0
 21 41  1  0  0  0  0
 22 42  1  0  0  0  0
 23 43  1  0  0  0  0
 25 44  1  0  0  0  0
 25 45  1  0  0  0  0
 26 46  1  0  0  0  0
 27 47  1  0  0  0  0
 28 48  1  0  0  0  0
 29 49  1  0  0  0  0
 30 50  1  0  0  0  0
 31 51  1  0  0  0  0
 32 52  1  0  0  0  0
M  END
$$$$
