C6H13N3O8P2
APtclcactv06291802453D 0   0.00000     0.00000
 
 32 31  0  0  0  0  0  0  0  0999 V2000
   -6.7875   -2.0631   -0.6750 C   0  0  0  0  0  0  0  0  0  0  0  0
   -7.9817   -1.1796   -0.4207 C   0  0  0  0  0  0  0  0  0  0  0  0
   -7.9716    0.0572   -0.8748 N   0  0  0  0  0  0  0  0  0  0  0  0
   -9.0017    0.8672   -0.6734 C   0  0  0  0  0  0  0  0  0  0  0  0
  -10.0987    0.4013    0.0236 C   0  0  0  0  0  0  0  0  0  0  0  0
  -10.0771   -0.9145    0.4912 C   0  0  0  0  0  0  0  0  0  0  0  0
   -9.0091   -1.6673    0.2449 N   0  0  0  0  0  0  0  0  0  0  0  0
  -11.1534   -1.4289    1.1958 N   0  0  0  0  0  0  0  0  0  0  0  0
  -11.2894    1.2906    0.2740 C   0  0  0  0  0  0  0  0  0  0  0  0
  -11.0544    2.5756   -0.3053 O   0  0  0  0  0  0  0  0  0  0  0  0
    6.9933    2.5205   -0.1137 O   0  0  0  0  0  0  0  0  0  0  0  0
    6.3138    1.0954    0.2019 P   0  0  0  0  0  0  0  0  0  0  0  0
    6.3009    0.8680    1.6642 O   0  0  0  0  0  0  0  0  0  0  0  0
    4.8036    1.0857   -0.3561 O   0  0  0  0  0  0  0  0  0  0  0  0
    7.1585   -0.0725   -0.5155 O   0  0  0  0  0  0  0  0  0  0  0  0
    8.5217   -0.8497   -0.1551 P   0  0  0  0  0  0  0  0  0  0  0  0
    9.5044    0.1086    0.3984 O   0  0  0  0  0  0  0  0  0  0  0  0
    8.2150   -1.9938    0.9353 O   0  0  0  0  0  0  0  0  0  0  0  0
    9.1225   -1.5252   -1.4873 O   0  0  0  0  0  0  0  0  0  0  0  0
   -6.0758   -1.9564    0.1437 H   0  0  0  0  0  0  0  0  0  0  0  0
   -7.1116   -3.1016   -0.7418 H   0  0  0  0  0  0  0  0  0  0  0  0
   -6.3115   -1.7701   -1.6107 H   0  0  0  0  0  0  0  0  0  0  0  0
   -8.9827    1.8794   -1.0497 H   0  0  0  0  0  0  0  0  0  0  0  0
  -11.9302   -0.8740    1.3679 H   0  0  0  0  0  0  0  0  0  0  0  0
  -11.1302   -2.3439    1.5169 H   0  0  0  0  0  0  0  0  0  0  0  0
  -12.1764    0.8455   -0.1767 H   0  0  0  0  0  0  0  0  0  0  0  0
  -11.4427    1.3986    1.3478 H   0  0  0  0  0  0  0  0  0  0  0  0
  -11.7814    3.2013   -0.1824 H   0  0  0  0  0  0  0  0  0  0  0  0
    7.0357    2.7362   -1.0553 H   0  0  0  0  0  0  0  0  0  0  0  0
    4.2361    1.7649    0.0333 H   0  0  0  0  0  0  0  0  0  0  0  0
    7.5774   -2.6580    0.6397 H   0  0  0  0  0  0  0  0  0  0  0  0
    9.9461   -2.0115   -1.3446 H   0  0  0  0  0  0  0  0  0  0  0  0
  1  2  1  0  0  0  0
  2  3  2  0  0  0  0
  3  4  1  0  0  0  0
  4  5  2  0  0  0  0
  5  6  1  0  0  0  0
  6  7  2  0  0  0  0
  2  7  1  0  0  0  0
  6  8  1  0  0  0  0
  5  9  1  0  0  0  0
  9 10  1  0  0  0  0
 11 12  1  0  0  0  0
 12 13  2  0  0  0  0
 12 14  1  0  0  0  0
 12 15  1  0  0  0  0
 15 16  1  0  0  0  0
 16 17  2  0  0  0  0
 16 18  1  0  0  0  0
 16 19  1  0  0  0  0
  1 20  1  0  0  0  0
  1 21  1  0  0  0  0
  1 22  1  0  0  0  0
  4 23  1  0  0  0  0
  8 24  1  0  0  0  0
  8 25  1  0  0  0  0
  9 26  1  0  0  0  0
  9 27  1  0  0  0  0
 10 28  1  0  0  0  0
 11 29  1  0  0  0  0
 14 30  1  0  0  0  0
 18 31  1  0  0  0  0
 19 32  1  0  0  0  0
M  END
$$$$
