C16H20N4O2
APtclcactv06291802453D 0   0.00000     0.00000
 
 42 44  0  0  0  0  0  0  0  0999 V2000
    4.5829    2.9953   -1.5646 C   0  0  0  0  0  0  0  0  0  0  0  0
    3.9431    2.5490   -0.2484 C   0  0  0  0  0  0  0  0  0  0  0  0
    2.7185    1.8206   -0.5281 O   0  0  0  0  0  0  0  0  0  0  0  0
    2.0275    1.3548    0.5321 C   0  0  0  0  0  0  0  0  0  0  0  0
    2.4378    1.5524    1.6597 O   0  0  0  0  0  0  0  0  0  0  0  0
    0.7818    0.6103    0.3253 C   0  0  0  0  0  0  0  0  0  0  0  0
   -0.5025    1.1467    0.2509 C   0  0  0  0  0  0  0  0  0  0  0  0
   -1.3525    0.1140    0.0534 N   0  0  0  0  0  0  0  0  0  0  0  0
   -0.6081   -1.0694    0.0034 N   0  0  0  0  0  0  0  0  0  0  0  0
    0.6550   -0.7899    0.1570 C   0  0  0  0  0  0  0  0  0  0  0  0
    1.7855   -1.7863    0.1645 C   0  0  0  0  0  0  0  0  0  0  0  0
    1.5864   -2.8008    1.3043 C   0  0  0  0  0  0  0  0  0  0  0  0
    1.4733   -4.1899    0.6430 C   0  0  0  0  0  0  0  0  0  0  0  0
    2.1970   -4.0236   -0.7163 C   0  0  0  0  0  0  0  0  0  0  0  0
    1.7864   -2.5944   -1.1495 C   0  0  0  0  0  0  0  0  0  0  0  0
   -2.7413    0.2121   -0.0778 C   0  0  0  0  0  0  0  0  0  0  0  0
   -3.4286   -0.5694   -1.0044 C   0  0  0  0  0  0  0  0  0  0  0  0
   -4.7992   -0.4432   -1.1027 C   0  0  0  0  0  0  0  0  0  0  0  0
   -5.4573    0.4037   -0.3340 N   0  0  0  0  0  0  0  0  0  0  0  0
   -4.8425    1.1606    0.5549 C   0  0  0  0  0  0  0  0  0  0  0  0
   -3.4742    1.0897    0.7188 C   0  0  0  0  0  0  0  0  0  0  0  0
   -0.8421    2.4786    0.3587 N   0  0  0  0  0  0  0  0  0  0  0  0
    5.5022    3.5421   -1.3546 H   0  0  0  0  0  0  0  0  0  0  0  0
    4.8116    2.1201   -2.1726 H   0  0  0  0  0  0  0  0  0  0  0  0
    3.8908    3.6418   -2.1042 H   0  0  0  0  0  0  0  0  0  0  0  0
    4.6352    1.9025    0.2912 H   0  0  0  0  0  0  0  0  0  0  0  0
    3.7144    3.4243    0.3596 H   0  0  0  0  0  0  0  0  0  0  0  0
    2.7375   -1.2696    0.2867 H   0  0  0  0  0  0  0  0  0  0  0  0
    2.4421   -2.7770    1.9790 H   0  0  0  0  0  0  0  0  0  0  0  0
    0.6721   -2.5724    1.8519 H   0  0  0  0  0  0  0  0  0  0  0  0
    1.9728   -4.9439    1.2514 H   0  0  0  0  0  0  0  0  0  0  0  0
    0.4273   -4.4548    0.4884 H   0  0  0  0  0  0  0  0  0  0  0  0
    3.2774   -4.0935   -0.5898 H   0  0  0  0  0  0  0  0  0  0  0  0
    1.8427   -4.7621   -1.4355 H   0  0  0  0  0  0  0  0  0  0  0  0
    0.7910   -2.6016   -1.5937 H   0  0  0  0  0  0  0  0  0  0  0  0
    2.5144   -2.1839   -1.8493 H   0  0  0  0  0  0  0  0  0  0  0  0
   -2.8960   -1.2639   -1.6371 H   0  0  0  0  0  0  0  0  0  0  0  0
   -5.3401   -1.0449   -1.8182 H   0  0  0  0  0  0  0  0  0  0  0  0
   -5.4180    1.8411    1.1648 H   0  0  0  0  0  0  0  0  0  0  0  0
   -2.9772    1.7120    1.4482 H   0  0  0  0  0  0  0  0  0  0  0  0
   -0.1518    3.1451    0.5009 H   0  0  0  0  0  0  0  0  0  0  0  0
   -1.7712    2.7492    0.2922 H   0  0  0  0  0  0  0  0  0  0  0  0
  1  2  1  0  0  0  0
  2  3  1  0  0  0  0
  3  4  1  0  0  0  0
  4  5  2  0  0  0  0
  4  6  1  0  0  0  0
  6  7  2  0  0  0  0
  7  8  1  0  0  0  0
  8  9  1  0  0  0  0
  9 10  2  0  0  0  0
  6 10  1  0  0  0  0
 10 11  1  0  0  0  0
 11 12  1  0  0  0  0
 12 13  1  0  0  0  0
 13 14  1  0  0  0  0
 14 15  1  0  0  0  0
 11 15  1  0  0  0  0
  8 16  1  0  0  0  0
 16 17  2  0  0  0  0
 17 18  1  0  0  0  0
 18 19  2  0  0  0  0
 19 20  1  0  0  0  0
 20 21  2  0  0  0  0
 16 21  1  0  0  0  0
  7 22  1  0  0  0  0
  1 23  1  0  0  0  0
  1 24  1  0  0  0  0
  1 25  1  0  0  0  0
  2 26  1  0  0  0  0
  2 27  1  0  0  0  0
 11 28  1  0  0  0  0
 12 29  1  0  0  0  0
 12 30  1  0  0  0  0
 13 31  1  0  0  0  0
 13 32  1  0  0  0  0
 14 33  1  0  0  0  0
 14 34  1  0  0  0  0
 15 35  1  0  0  0  0
 15 36  1  0  0  0  0
 17 37  1  0  0  0  0
 18 38  1  0  0  0  0
 20 39  1  0  0  0  0
 21 40  1  0  0  0  0
 22 41  1  0  0  0  0
 22 42  1  0  0  0  0
M  END
$$$$
