C10H16
APtclcactv06211806123D 0   0.00000     0.00000
 
 26 26  0  0  0  0  0  0  0  0999 V2000
    3.5981    0.0783   -0.0398 C   0  0  0  0  0  0  0  0  0  0  0  0
    2.0918    0.0351   -0.0301 C   0  0  0  0  0  0  0  0  0  0  0  0
    1.4522    1.1603   -0.0519 C   0  0  0  0  0  0  0  0  0  0  0  0
   -0.0438    1.2775   -0.0362 C   0  0  0  0  0  0  0  0  0  0  0  0
   -0.6813   -0.0607   -0.4160 C   0  0  0  0  0  0  0  0  0  0  0  0
   -0.0353   -1.1639    0.4317 C   0  0  0  0  0  0  0  0  0  0  0  0
    1.4266   -1.3098   -0.0018 C   0  0  0  0  0  0  0  0  0  0  0  0
   -2.1623   -0.0125   -0.1413 C   0  0  0  0  0  0  0  0  0  0  0  0
   -3.0160   -0.1910   -1.1187 C   0  0  0  0  0  0  0  0  0  0  0  0
   -2.6612    0.2412    1.2580 C   0  0  0  0  0  0  0  0  0  0  0  0
    3.9317    1.1157   -0.0652 H   0  0  0  0  0  0  0  0  0  0  0  0
    3.9812   -0.4046    0.8592 H   0  0  0  0  0  0  0  0  0  0  0  0
    3.9710   -0.4450   -0.9203 H   0  0  0  0  0  0  0  0  0  0  0  0
    2.0312    2.0714   -0.0829 H   0  0  0  0  0  0  0  0  0  0  0  0
   -0.3733    1.5642    0.9625 H   0  0  0  0  0  0  0  0  0  0  0  0
   -0.3539    2.0409   -0.7497 H   0  0  0  0  0  0  0  0  0  0  0  0
   -0.5081   -0.2622   -1.4731 H   0  0  0  0  0  0  0  0  0  0  0  0
   -0.0831   -0.8911    1.4860 H   0  0  0  0  0  0  0  0  0  0  0  0
   -0.5602   -2.1053    0.2696 H   0  0  0  0  0  0  0  0  0  0  0  0
    1.4660   -1.7596   -0.9939 H   0  0  0  0  0  0  0  0  0  0  0  0
    1.9507   -1.9526    0.7053 H   0  0  0  0  0  0  0  0  0  0  0  0
   -2.6585   -0.3728   -2.1215 H   0  0  0  0  0  0  0  0  0  0  0  0
   -4.0773   -0.1564   -0.9218 H   0  0  0  0  0  0  0  0  0  0  0  0
   -2.7826    1.3135    1.4116 H   0  0  0  0  0  0  0  0  0  0  0  0
   -3.6207   -0.2568    1.3974 H   0  0  0  0  0  0  0  0  0  0  0  0
   -1.9411   -0.1496    1.9769 H   0  0  0  0  0  0  0  0  0  0  0  0
  1  2  1  0  0  0  0
  2  3  2  0  0  0  0
  3  4  1  0  0  0  0
  4  5  1  0  0  0  0
  5  6  1  0  0  0  0
  6  7  1  0  0  0  0
  2  7  1  0  0  0  0
  5  8  1  0  0  0  0
  8  9  2  0  0  0  0
  8 10  1  0  0  0  0
  1 11  1  0  0  0  0
  1 12  1  0  0  0  0
  1 13  1  0  0  0  0
  3 14  1  0  0  0  0
  4 15  1  0  0  0  0
  4 16  1  0  0  0  0
  5 17  1  0  0  0  0
  6 18  1  0  0  0  0
  6 19  1  0  0  0  0
  7 20  1  0  0  0  0
  7 21  1  0  0  0  0
  9 22  1  0  0  0  0
  9 23  1  0  0  0  0
 10 24  1  0  0  0  0
 10 25  1  0  0  0  0
 10 26  1  0  0  0  0
M  END
$$$$
