C8H14O4
APtclcactv06291802453D 0   0.00000     0.00000
 
 26 23  0  0  0  0  0  0  0  0999 V2000
  -17.2697  -13.2038   -2.0793 H   0  3  0  0  0  0  0  0  0  0  0  0
  -11.3491   -6.9849   -0.9512 H   0  3  0  0  0  0  0  0  0  0  0  0
    0.6895   -0.3674    0.2953 C   0  0  0  0  0  0  0  0  0  0  0  0
   -0.3544    0.6037   -0.2598 C   0  0  0  0  0  0  0  0  0  0  0  0
   -1.7484    0.1707    0.1984 C   0  0  0  0  0  0  0  0  0  0  0  0
   -2.7923    1.1418   -0.3568 C   0  0  0  0  0  0  0  0  0  0  0  0
   -4.1654    0.7152    0.0945 C   0  0  0  0  0  0  0  0  0  0  0  0
   -4.2969   -0.2739    0.7952 O   0  0  0  0  0  0  0  0  0  0  0  0
   -5.1448    1.3591   -0.2410 O   0  5  0  0  0  0  0  0  0  0  0  0
    2.0835    0.0657   -0.1629 C   0  0  0  0  0  0  0  0  0  0  0  0
    3.1274   -0.9054    0.3922 C   0  0  0  0  0  0  0  0  0  0  0  0
    4.5005   -0.4788   -0.0591 C   0  0  0  0  0  0  0  0  0  0  0  0
    4.6320    0.5103   -0.7598 O   0  0  0  0  0  0  0  0  0  0  0  0
    5.4799   -1.1227    0.2765 O   0  5  0  0  0  0  0  0  0  0  0  0
    0.6472   -0.3626    1.3845 H   0  0  0  0  0  0  0  0  0  0  0  0
    0.4823   -1.3725   -0.0720 H   0  0  0  0  0  0  0  0  0  0  0  0
   -0.1472    1.6089    0.1074 H   0  0  0  0  0  0  0  0  0  0  0  0
   -0.3121    0.5990   -1.3490 H   0  0  0  0  0  0  0  0  0  0  0  0
   -1.9557   -0.8345   -0.1689 H   0  0  0  0  0  0  0  0  0  0  0  0
   -1.7907    0.1754    1.2875 H   0  0  0  0  0  0  0  0  0  0  0  0
   -2.5851    2.1469    0.0105 H   0  0  0  0  0  0  0  0  0  0  0  0
   -2.7501    1.1370   -1.4459 H   0  0  0  0  0  0  0  0  0  0  0  0
    2.1258    0.0610   -1.2521 H   0  0  0  0  0  0  0  0  0  0  0  0
    2.2908    1.0709    0.2044 H   0  0  0  0  0  0  0  0  0  0  0  0
    3.0852   -0.9006    1.4814 H   0  0  0  0  0  0  0  0  0  0  0  0
    2.9202   -1.9105    0.0250 H   0  0  0  0  0  0  0  0  0  0  0  0
  3  4  1  0  0  0  0
  4  5  1  0  0  0  0
  5  6  1  0  0  0  0
  6  7  1  0  0  0  0
  7  8  2  0  0  0  0
  7  9  1  0  0  0  0
  3 10  1  0  0  0  0
 10 11  1  0  0  0  0
 11 12  1  0  0  0  0
 12 13  2  0  0  0  0
 12 14  1  0  0  0  0
  3 15  1  0  0  0  0
  3 16  1  0  0  0  0
  4 17  1  0  0  0  0
  4 18  1  0  0  0  0
  5 19  1  0  0  0  0
  5 20  1  0  0  0  0
  6 21  1  0  0  0  0
  6 22  1  0  0  0  0
 10 23  1  0  0  0  0
 10 24  1  0  0  0  0
 11 25  1  0  0  0  0
 11 26  1  0  0  0  0
M  CHG  4   1   1   2   1   9  -1  14  -1
M  END
$$$$
