C10H13ClN2
APtclcactv06211805583D 0   0.00000     0.00000
 
 26 26  0  0  0  0  0  0  0  0999 V2000
   -0.0448    2.5818   -0.3242 C   0  0  0  0  0  0  0  0  0  0  0  0
   -0.6302    1.2126   -0.0920 C   0  0  0  0  0  0  0  0  0  0  0  0
    0.2045    0.1396    0.2215 C   0  0  0  0  0  0  0  0  0  0  0  0
   -0.3447   -1.1254    0.4351 C   0  0  0  0  0  0  0  0  0  0  0  0
   -1.7083   -1.3081    0.3352 C   0  0  0  0  0  0  0  0  0  0  0  0
   -2.5318   -0.2394    0.0232 C   0  0  0  0  0  0  0  0  0  0  0  0
   -1.9933    1.0190   -0.1836 C   0  0  0  0  0  0  0  0  0  0  0  0
   -4.2469   -0.4771   -0.1013 Cl  0  0  0  0  0  0  0  0  0  0  0  0
    1.5602    0.3273    0.3190 N   0  0  0  0  0  0  0  0  0  0  0  0
    2.3756   -0.4897   -0.2836 C   0  0  0  0  0  0  0  0  0  0  0  0
    3.7257   -0.3701   -0.0971 N   0  0  0  0  0  0  0  0  0  0  0  0
    4.2540    0.6770    0.7807 C   0  0  0  0  0  0  0  0  0  0  0  0
    4.6431   -1.2893   -0.7752 C   0  0  0  0  0  0  0  0  0  0  0  0
    0.1981    2.6988   -1.3803 H   0  0  0  0  0  0  0  0  0  0  0  0
   -0.7700    3.3413   -0.0318 H   0  0  0  0  0  0  0  0  0  0  0  0
    0.8608    2.6955    0.2717 H   0  0  0  0  0  0  0  0  0  0  0  0
    0.2967   -1.9597    0.6777 H   0  0  0  0  0  0  0  0  0  0  0  0
   -2.1345   -2.2866    0.5003 H   0  0  0  0  0  0  0  0  0  0  0  0
   -2.6404    1.8488   -0.4267 H   0  0  0  0  0  0  0  0  0  0  0  0
    1.9861   -1.2617   -0.9308 H   0  0  0  0  0  0  0  0  0  0  0  0
    4.3315    0.2935    1.7980 H   0  0  0  0  0  0  0  0  0  0  0  0
    5.2406    0.9809    0.4308 H   0  0  0  0  0  0  0  0  0  0  0  0
    3.5830    1.5359    0.7664 H   0  0  0  0  0  0  0  0  0  0  0  0
    4.0712   -1.9932   -1.3797 H   0  0  0  0  0  0  0  0  0  0  0  0
    5.3167   -0.7222   -1.4176 H   0  0  0  0  0  0  0  0  0  0  0  0
    5.2240   -1.8364   -0.0326 H   0  0  0  0  0  0  0  0  0  0  0  0
  1  2  1  0  0  0  0
  2  3  2  0  0  0  0
  3  4  1  0  0  0  0
  4  5  2  0  0  0  0
  5  6  1  0  0  0  0
  6  7  2  0  0  0  0
  2  7  1  0  0  0  0
  6  8  1  0  0  0  0
  3  9  1  0  0  0  0
  9 10  2  0  0  0  0
 10 11  1  0  0  0  0
 11 12  1  0  0  0  0
 11 13  1  0  0  0  0
  1 14  1  0  0  0  0
  1 15  1  0  0  0  0
  1 16  1  0  0  0  0
  4 17  1  0  0  0  0
  5 18  1  0  0  0  0
  7 19  1  0  0  0  0
 10 20  1  0  0  0  0
 12 21  1  0  0  0  0
 12 22  1  0  0  0  0
 12 23  1  0  0  0  0
 13 24  1  0  0  0  0
 13 25  1  0  0  0  0
 13 26  1  0  0  0  0
M  END
$$$$
