C12H24O
APtclcactv06211806123D 0   0.00000     0.00000
 
 37 36  0  0  0  0  0  0  0  0999 V2000
    7.2838   -0.4783   -0.0000 C   0  0  0  0  0  0  0  0  0  0  0  0
    6.0575    0.4366    0.0000 C   0  0  0  0  0  0  0  0  0  0  0  0
    4.7861   -0.4145   -0.0000 C   0  0  0  0  0  0  0  0  0  0  0  0
    3.5598    0.5004    0.0000 C   0  0  0  0  0  0  0  0  0  0  0  0
    2.2885   -0.3507   -0.0000 C   0  0  0  0  0  0  0  0  0  0  0  0
    1.0622    0.5642    0.0000 C   0  0  0  0  0  0  0  0  0  0  0  0
   -0.2092   -0.2869   -0.0000 C   0  0  0  0  0  0  0  0  0  0  0  0
   -1.4355    0.6280   -0.0000 C   0  0  0  0  0  0  0  0  0  0  0  0
   -2.7069   -0.2231   -0.0000 C   0  0  0  0  0  0  0  0  0  0  0  0
   -3.9332    0.6918   -0.0000 C   0  0  0  0  0  0  0  0  0  0  0  0
   -5.1854   -0.1466    0.0000 C   0  0  0  0  0  0  0  0  0  0  0  0
   -5.1054   -1.3515    0.0000 O   0  0  0  0  0  0  0  0  0  0  0  0
   -6.5376    0.5188   -0.0000 C   0  0  0  0  0  0  0  0  0  0  0  0
    7.2677   -1.1074    0.8900 H   0  0  0  0  0  0  0  0  0  0  0  0
    7.2677   -1.1074   -0.8900 H   0  0  0  0  0  0  0  0  0  0  0  0
    8.1895    0.1280    0.0000 H   0  0  0  0  0  0  0  0  0  0  0  0
    6.0736    1.0657    0.8900 H   0  0  0  0  0  0  0  0  0  0  0  0
    6.0736    1.0657   -0.8900 H   0  0  0  0  0  0  0  0  0  0  0  0
    4.7701   -1.0436   -0.8900 H   0  0  0  0  0  0  0  0  0  0  0  0
    4.7701   -1.0436    0.8900 H   0  0  0  0  0  0  0  0  0  0  0  0
    3.5759    1.1295    0.8900 H   0  0  0  0  0  0  0  0  0  0  0  0
    3.5759    1.1295   -0.8900 H   0  0  0  0  0  0  0  0  0  0  0  0
    2.2724   -0.9798   -0.8900 H   0  0  0  0  0  0  0  0  0  0  0  0
    2.2724   -0.9798    0.8900 H   0  0  0  0  0  0  0  0  0  0  0  0
    1.0782    1.1933    0.8900 H   0  0  0  0  0  0  0  0  0  0  0  0
    1.0782    1.1933   -0.8900 H   0  0  0  0  0  0  0  0  0  0  0  0
   -0.2253   -0.9161   -0.8900 H   0  0  0  0  0  0  0  0  0  0  0  0
   -0.2253   -0.9161    0.8900 H   0  0  0  0  0  0  0  0  0  0  0  0
   -1.4194    1.2571    0.8900 H   0  0  0  0  0  0  0  0  0  0  0  0
   -1.4194    1.2571   -0.8900 H   0  0  0  0  0  0  0  0  0  0  0  0
   -2.7229   -0.8523   -0.8900 H   0  0  0  0  0  0  0  0  0  0  0  0
   -2.7229   -0.8523    0.8900 H   0  0  0  0  0  0  0  0  0  0  0  0
   -3.9171    1.3209    0.8900 H   0  0  0  0  0  0  0  0  0  0  0  0
   -3.9171    1.3209   -0.8900 H   0  0  0  0  0  0  0  0  0  0  0  0
   -6.8636    0.6792   -1.0277 H   0  0  0  0  0  0  0  0  0  0  0  0
   -7.2565   -0.1194    0.5138 H   0  0  0  0  0  0  0  0  0  0  0  0
   -6.4707    1.4777    0.5138 H   0  0  0  0  0  0  0  0  0  0  0  0
  1  2  1  0  0  0  0
  2  3  1  0  0  0  0
  3  4  1  0  0  0  0
  4  5  1  0  0  0  0
  5  6  1  0  0  0  0
  6  7  1  0  0  0  0
  7  8  1  0  0  0  0
  8  9  1  0  0  0  0
  9 10  1  0  0  0  0
 10 11  1  0  0  0  0
 11 12  2  0  0  0  0
 11 13  1  0  0  0  0
  1 14  1  0  0  0  0
  1 15  1  0  0  0  0
  1 16  1  0  0  0  0
  2 17  1  0  0  0  0
  2 18  1  0  0  0  0
  3 19  1  0  0  0  0
  3 20  1  0  0  0  0
  4 21  1  0  0  0  0
  4 22  1  0  0  0  0
  5 23  1  0  0  0  0
  5 24  1  0  0  0  0
  6 25  1  0  0  0  0
  6 26  1  0  0  0  0
  7 27  1  0  0  0  0
  7 28  1  0  0  0  0
  8 29  1  0  0  0  0
  8 30  1  0  0  0  0
  9 31  1  0  0  0  0
  9 32  1  0  0  0  0
 10 33  1  0  0  0  0
 10 34  1  0  0  0  0
 13 35  1  0  0  0  0
 13 36  1  0  0  0  0
 13 37  1  0  0  0  0
M  END
$$$$
