C30H50O
APtclcactv06211806273D 0   0.00000     0.00000
 
 81 85  0  0  0  0  0  0  0  0999 V2000
    6.4217   -1.9901   -0.5669 C   0  0  0  0  0  0  0  0  0  0  0  0
    5.4019   -1.3171    0.3615 C   0  0  0  0  0  0  0  0  0  0  0  0
    5.9028    0.0686    0.7302 C   0  0  0  0  0  0  0  0  0  0  0  0
    4.8697    0.9099    1.4815 C   0  0  0  0  0  0  0  0  0  0  0  0
    3.6125    1.0283    0.6031 C   0  0  0  0  0  0  0  0  0  0  0  0
    2.5107    1.8323    1.2833 C   0  0  0  0  0  0  0  0  0  0  0  0
    1.3020    2.0215    0.3640 C   0  0  0  0  0  0  0  0  0  0  0  0
    0.9400    0.7853   -0.4309 C   0  0  0  0  0  0  0  0  0  0  0  0
    1.6344   -0.4334    0.0981 C   0  0  0  0  0  0  0  0  0  0  0  0
    1.0165   -1.5339    0.4417 C   0  0  0  0  0  0  0  0  0  0  0  0
   -0.4797   -1.6716    0.4810 C   0  0  0  0  0  0  0  0  0  0  0  0
   -1.0540   -0.2605    0.6213 C   0  0  0  0  0  0  0  0  0  0  0  0
   -0.5875    0.5853   -0.5487 C   0  0  0  0  0  0  0  0  0  0  0  0
   -1.2852    1.9352   -0.5673 C   0  0  0  0  0  0  0  0  0  0  0  0
   -2.8076    1.8372   -0.4800 C   0  0  0  0  0  0  0  0  0  0  0  0
   -3.2987    0.4121   -0.2889 C   0  0  0  0  0  0  0  0  0  0  0  0
   -2.5614   -0.2679    0.8491 C   0  0  0  0  0  0  0  0  0  0  0  0
   -3.0541   -1.7100    1.0041 C   0  0  0  0  0  0  0  0  0  0  0  0
   -4.5613   -1.7182    1.2531 C   0  0  0  0  0  0  0  0  0  0  0  0
   -5.2963   -1.0887    0.0775 C   0  0  0  0  0  0  0  0  0  0  0  0
   -4.8167    0.3338   -0.2070 C   0  0  0  0  0  0  0  0  0  0  0  0
   -5.4245    1.3045    0.7996 C   0  0  0  0  0  0  0  0  0  0  0  0
   -5.3813    0.7138   -1.5990 C   0  0  0  0  0  0  0  0  0  0  0  0
   -5.1142   -1.8936   -1.0924 O   0  0  0  0  0  0  0  0  0  0  0  0
   -2.7918    0.4658    2.1834 C   0  0  0  0  0  0  0  0  0  0  0  0
   -0.7855   -0.1198   -1.9004 C   0  0  0  0  0  0  0  0  0  0  0  0
    3.1046   -0.3883    0.4051 C   0  0  0  0  0  0  0  0  0  0  0  0
    4.0304   -1.3158   -0.3257 C   0  0  0  0  0  0  0  0  0  0  0  0
    4.1550   -1.0865   -1.8223 C   0  0  0  0  0  0  0  0  0  0  0  0
    1.3655    0.9867   -1.8953 C   0  0  0  0  0  0  0  0  0  0  0  0
    4.0393    1.7675   -0.6576 C   0  0  0  0  0  0  0  0  0  0  0  0
    7.3806   -2.0714   -0.0551 H   0  0  0  0  0  0  0  0  0  0  0  0
    6.0674   -2.9855   -0.8350 H   0  0  0  0  0  0  0  0  0  0  0  0
    6.5413   -1.3916   -1.4699 H   0  0  0  0  0  0  0  0  0  0  0  0
    5.3293   -1.9194    1.2770 H   0  0  0  0  0  0  0  0  0  0  0  0
    6.7784   -0.0530    1.3934 H   0  0  0  0  0  0  0  0  0  0  0  0
    6.2615    0.5881   -0.1555 H   0  0  0  0  0  0  0  0  0  0  0  0
    4.6009    0.4282    2.4201 H   0  0  0  0  0  0  0  0  0  0  0  0
    5.2611    1.9075    1.6696 H   0  0  0  0  0  0  0  0  0  0  0  0
    2.1979    1.3103    2.1919 H   0  0  0  0  0  0  0  0  0  0  0  0
    2.9087    2.8114    1.5636 H   0  0  0  0  0  0  0  0  0  0  0  0
    0.4565    2.2912    1.0162 H   0  0  0  0  0  0  0  0  0  0  0  0
    1.4795    2.8612   -0.3112 H   0  0  0  0  0  0  0  0  0  0  0  0
    1.6199   -2.3851    0.7129 H   0  0  0  0  0  0  0  0  0  0  0  0
   -0.8396   -2.1811   -0.3986 H   0  0  0  0  0  0  0  0  0  0  0  0
   -0.7414   -2.2596    1.3673 H   0  0  0  0  0  0  0  0  0  0  0  0
   -0.5974    0.1776    1.5442 H   0  0  0  0  0  0  0  0  0  0  0  0
   -0.9516    2.5607    0.2632 H   0  0  0  0  0  0  0  0  0  0  0  0
   -1.0340    2.4623   -1.4973 H   0  0  0  0  0  0  0  0  0  0  0  0
   -3.1403    2.4761    0.3438 H   0  0  0  0  0  0  0  0  0  0  0  0
   -3.2244    2.2550   -1.4054 H   0  0  0  0  0  0  0  0  0  0  0  0
   -3.0678   -0.1556   -1.2198 H   0  0  0  0  0  0  0  0  0  0  0  0
   -2.8298   -2.2742    0.0995 H   0  0  0  0  0  0  0  0  0  0  0  0
   -2.5507   -2.1725    1.8561 H   0  0  0  0  0  0  0  0  0  0  0  0
   -4.8885   -2.7638    1.3533 H   0  0  0  0  0  0  0  0  0  0  0  0
   -4.8067   -1.2069    2.1799 H   0  0  0  0  0  0  0  0  0  0  0  0
   -6.3699   -1.0546    0.3068 H   0  0  0  0  0  0  0  0  0  0  0  0
   -5.1805    0.9792    1.8109 H   0  0  0  0  0  0  0  0  0  0  0  0
   -5.0202    2.3027    0.6315 H   0  0  0  0  0  0  0  0  0  0  0  0
   -6.5073    1.3255    0.6760 H   0  0  0  0  0  0  0  0  0  0  0  0
   -6.4700    0.6658   -1.5750 H   0  0  0  0  0  0  0  0  0  0  0  0
   -5.0678    1.7261   -1.8543 H   0  0  0  0  0  0  0  0  0  0  0  0
   -5.0033    0.0169   -2.3470 H   0  0  0  0  0  0  0  0  0  0  0  0
   -5.4448   -2.7979   -1.0030 H   0  0  0  0  0  0  0  0  0  0  0  0
   -3.8298    0.3417    2.4917 H   0  0  0  0  0  0  0  0  0  0  0  0
   -2.1339    0.0486    2.9457 H   0  0  0  0  0  0  0  0  0  0  0  0
   -2.5746    1.5265    2.0570 H   0  0  0  0  0  0  0  0  0  0  0  0
   -1.8130   -0.4754   -1.9776 H   0  0  0  0  0  0  0  0  0  0  0  0
   -0.5821    0.5817   -2.7094 H   0  0  0  0  0  0  0  0  0  0  0  0
   -0.1019   -0.9657   -1.9725 H   0  0  0  0  0  0  0  0  0  0  0  0
    3.1286   -0.8154    1.4755 H   0  0  0  0  0  0  0  0  0  0  0  0
    3.6269   -2.3533   -0.2022 H   0  0  0  0  0  0  0  0  0  0  0  0
    4.8412   -0.2600   -2.0074 H   0  0  0  0  0  0  0  0  0  0  0  0
    4.5374   -1.9897   -2.2977 H   0  0  0  0  0  0  0  0  0  0  0  0
    3.1757   -0.8451   -2.2357 H   0  0  0  0  0  0  0  0  0  0  0  0
    2.4396    1.1666   -1.9401 H   0  0  0  0  0  0  0  0  0  0  0  0
    1.1225    0.0932   -2.4704 H   0  0  0  0  0  0  0  0  0  0  0  0
    0.8359    1.8429   -2.3132 H   0  0  0  0  0  0  0  0  0  0  0  0
    4.4842    1.0621   -1.3594 H   0  0  0  0  0  0  0  0  0  0  0  0
    3.1686    2.2361   -1.1163 H   0  0  0  0  0  0  0  0  0  0  0  0
    4.7706    2.5335   -0.3997 H   0  0  0  0  0  0  0  0  0  0  0  0
  1  2  1  0  0  0  0
  2  3  1  0  0  0  0
  3  4  1  0  0  0  0
  4  5  1  0  0  0  0
  5  6  1  0  0  0  0
  6  7  1  0  0  0  0
  7  8  1  0  0  0  0
  8  9  1  0  0  0  0
  9 10  2  0  0  0  0
 10 11  1  0  0  0  0
 11 12  1  0  0  0  0
 12 13  1  0  0  0  0
  8 13  1  0  0  0  0
 13 14  1  0  0  0  0
 14 15  1  0  0  0  0
 15 16  1  0  0  0  0
 16 17  1  0  0  0  0
 12 17  1  0  0  0  0
 17 18  1  0  0  0  0
 18 19  1  0  0  0  0
 19 20  1  0  0  0  0
 20 21  1  0  0  0  0
 16 21  1  0  0  0  0
 21 22  1  0  0  0  0
 21 23  1  0  0  0  0
 20 24  1  0  0  0  0
 17 25  1  0  0  0  0
 13 26  1  0  0  0  0
  9 27  1  0  0  0  0
  5 27  1  0  0  0  0
 27 28  1  0  0  0  0
  2 28  1  0  0  0  0
 28 29  1  0  0  0  0
  8 30  1  0  0  0  0
  5 31  1  0  0  0  0
  1 32  1  0  0  0  0
  1 33  1  0  0  0  0
  1 34  1  0  0  0  0
  2 35  1  0  0  0  0
  3 36  1  0  0  0  0
  3 37  1  0  0  0  0
  4 38  1  0  0  0  0
  4 39  1  0  0  0  0
  6 40  1  0  0  0  0
  6 41  1  0  0  0  0
  7 42  1  0  0  0  0
  7 43  1  0  0  0  0
 10 44  1  0  0  0  0
 11 45  1  0  0  0  0
 11 46  1  0  0  0  0
 12 47  1  0  0  0  0
 14 48  1  0  0  0  0
 14 49  1  0  0  0  0
 15 50  1  0  0  0  0
 15 51  1  0  0  0  0
 16 52  1  0  0  0  0
 18 53  1  0  0  0  0
 18 54  1  0  0  0  0
 19 55  1  0  0  0  0
 19 56  1  0  0  0  0
 20 57  1  0  0  0  0
 22 58  1  0  0  0  0
 22 59  1  0  0  0  0
 22 60  1  0  0  0  0
 23 61  1  0  0  0  0
 23 62  1  0  0  0  0
 23 63  1  0  0  0  0
 24 64  1  0  0  0  0
 25 65  1  0  0  0  0
 25 66  1  0  0  0  0
 25 67  1  0  0  0  0
 26 68  1  0  0  0  0
 26 69  1  0  0  0  0
 26 70  1  0  0  0  0
 27 71  1  0  0  0  0
 28 72  1  0  0  0  0
 29 73  1  0  0  0  0
 29 74  1  0  0  0  0
 29 75  1  0  0  0  0
 30 76  1  0  0  0  0
 30 77  1  0  0  0  0
 30 78  1  0  0  0  0
 31 79  1  0  0  0  0
 31 80  1  0  0  0  0
 31 81  1  0  0  0  0
M  END
$$$$
