C9H16O4
APtclcactv06211804343D 0   0.00000     0.00000
 
 29 28  0  0  0  0  0  0  0  0999 V2000
   -0.0000   -0.1669   -0.0000 C   0  0  0  0  0  0  0  0  0  0  0  0
   -1.2492    0.7164   -0.0000 C   0  0  0  0  0  0  0  0  0  0  0  0
   -2.4985   -0.1669    0.0000 C   0  0  0  0  0  0  0  0  0  0  0  0
   -3.7477    0.7164   -0.0000 C   0  0  0  0  0  0  0  0  0  0  0  0
   -4.9782   -0.1537    0.0000 C   0  0  0  0  0  0  0  0  0  0  0  0
   -4.8673   -1.3568    0.0000 O   0  0  0  0  0  0  0  0  0  0  0  0
   -6.1973    0.4080   -0.0000 O   0  0  0  0  0  0  0  0  0  0  0  0
    1.2492    0.7164    0.0000 C   0  0  0  0  0  0  0  0  0  0  0  0
    2.4985   -0.1669   -0.0000 C   0  0  0  0  0  0  0  0  0  0  0  0
    3.7477    0.7164    0.0000 C   0  0  0  0  0  0  0  0  0  0  0  0
    4.9782   -0.1537   -0.0000 C   0  0  0  0  0  0  0  0  0  0  0  0
    4.8673   -1.3568   -0.0000 O   0  0  0  0  0  0  0  0  0  0  0  0
    6.1973    0.4080    0.0000 O   0  0  0  0  0  0  0  0  0  0  0  0
   -0.0000   -0.7962    0.8900 H   0  0  0  0  0  0  0  0  0  0  0  0
    0.0000   -0.7962   -0.8900 H   0  0  0  0  0  0  0  0  0  0  0  0
   -1.2492    1.3457    0.8900 H   0  0  0  0  0  0  0  0  0  0  0  0
   -1.2492    1.3457   -0.8900 H   0  0  0  0  0  0  0  0  0  0  0  0
   -2.4985   -0.7962   -0.8900 H   0  0  0  0  0  0  0  0  0  0  0  0
   -2.4985   -0.7962    0.8900 H   0  0  0  0  0  0  0  0  0  0  0  0
   -3.7477    1.3457    0.8900 H   0  0  0  0  0  0  0  0  0  0  0  0
   -3.7477    1.3457   -0.8900 H   0  0  0  0  0  0  0  0  0  0  0  0
   -6.9566   -0.1909    0.0000 H   0  0  0  0  0  0  0  0  0  0  0  0
    1.2492    1.3457   -0.8900 H   0  0  0  0  0  0  0  0  0  0  0  0
    1.2492    1.3457    0.8900 H   0  0  0  0  0  0  0  0  0  0  0  0
    2.4985   -0.7962    0.8900 H   0  0  0  0  0  0  0  0  0  0  0  0
    2.4985   -0.7962   -0.8900 H   0  0  0  0  0  0  0  0  0  0  0  0
    3.7477    1.3457   -0.8900 H   0  0  0  0  0  0  0  0  0  0  0  0
    3.7477    1.3457    0.8900 H   0  0  0  0  0  0  0  0  0  0  0  0
    6.9566   -0.1909   -0.0000 H   0  0  0  0  0  0  0  0  0  0  0  0
  1  2  1  0  0  0  0
  2  3  1  0  0  0  0
  3  4  1  0  0  0  0
  4  5  1  0  0  0  0
  5  6  2  0  0  0  0
  5  7  1  0  0  0  0
  1  8  1  0  0  0  0
  8  9  1  0  0  0  0
  9 10  1  0  0  0  0
 10 11  1  0  0  0  0
 11 12  2  0  0  0  0
 11 13  1  0  0  0  0
  1 14  1  0  0  0  0
  1 15  1  0  0  0  0
  2 16  1  0  0  0  0
  2 17  1  0  0  0  0
  3 18  1  0  0  0  0
  3 19  1  0  0  0  0
  4 20  1  0  0  0  0
  4 21  1  0  0  0  0
  7 22  1  0  0  0  0
  8 23  1  0  0  0  0
  8 24  1  0  0  0  0
  9 25  1  0  0  0  0
  9 26  1  0  0  0  0
 10 27  1  0  0  0  0
 10 28  1  0  0  0  0
 13 29  1  0  0  0  0
M  END
$$$$
