C7H7NO2
APtclcactv06211802133D 0   0.00000     0.00000
 
 17 17  0  0  0  0  0  0  0  0999 V2000
   -1.9036    1.4824   -0.0269 C   0  0  0  0  0  0  0  0  0  0  0  0
   -2.6166    0.2942   -0.0022 C   0  0  0  0  0  0  0  0  0  0  0  0
   -1.9559   -0.9171    0.0198 C   0  0  0  0  0  0  0  0  0  0  0  0
   -0.5672   -0.9527    0.0173 C   0  0  0  0  0  0  0  0  0  0  0  0
    0.1584    0.2495   -0.0077 C   0  0  0  0  0  0  0  0  0  0  0  0
   -0.5260    1.4679   -0.0297 C   0  0  0  0  0  0  0  0  0  0  0  0
    1.6311    0.2265   -0.0101 C   0  0  0  0  0  0  0  0  0  0  0  0
    2.2221   -0.8316   -0.0989 O   0  0  0  0  0  0  0  0  0  0  0  0
    2.3232    1.3789    0.0862 O   0  0  0  0  0  0  0  0  0  0  0  0
    0.0998   -2.1701    0.0399 N   0  0  0  0  0  0  0  0  0  0  0  0
   -2.4308    2.4247   -0.0484 H   0  0  0  0  0  0  0  0  0  0  0  0
   -3.6963    0.3165    0.0002 H   0  0  0  0  0  0  0  0  0  0  0  0
   -2.5191   -1.8384    0.0393 H   0  0  0  0  0  0  0  0  0  0  0  0
    0.0243    2.3969   -0.0494 H   0  0  0  0  0  0  0  0  0  0  0  0
    3.2879    1.3134    0.0803 H   0  0  0  0  0  0  0  0  0  0  0  0
   -0.4003   -2.9954    0.1387 H   0  0  0  0  0  0  0  0  0  0  0  0
    1.0659   -2.1954   -0.0432 H   0  0  0  0  0  0  0  0  0  0  0  0
  1  2  2  0  0  0  0
  2  3  1  0  0  0  0
  3  4  2  0  0  0  0
  4  5  1  0  0  0  0
  5  6  2  0  0  0  0
  1  6  1  0  0  0  0
  5  7  1  0  0  0  0
  7  8  2  0  0  0  0
  7  9  1  0  0  0  0
  4 10  1  0  0  0  0
  1 11  1  0  0  0  0
  2 12  1  0  0  0  0
  3 13  1  0  0  0  0
  6 14  1  0  0  0  0
  9 15  1  0  0  0  0
 10 16  1  0  0  0  0
 10 17  1  0  0  0  0
M  END
$$$$
