C15H26O
APtclcactv06211806463D 0   0.00000     0.00000
 
 42 43  0  0  0  0  0  0  0  0999 V2000
    2.3928    2.8021    0.4157 C   0  0  0  0  0  0  0  0  0  0  0  0
    1.2359    1.8062    0.5189 C   0  0  0  0  0  0  0  0  0  0  0  0
    0.1112    2.2135   -0.4396 C   0  0  0  0  0  0  0  0  0  0  0  0
   -1.2008    1.5795   -0.0406 C   0  0  0  0  0  0  0  0  0  0  0  0
   -1.3141    0.0919   -0.2785 C   0  0  0  0  0  0  0  0  0  0  0  0
   -0.4437   -0.6940    0.7087 C   0  0  0  0  0  0  0  0  0  0  0  0
    0.9868   -0.6566    0.1870 C   0  0  0  0  0  0  0  0  0  0  0  0
    1.7092    0.4188    0.1054 C   0  0  0  0  0  0  0  0  0  0  0  0
    3.0809    0.1161   -0.4540 C   0  0  0  0  0  0  0  0  0  0  0  0
    2.9398   -1.2826   -1.0988 C   0  0  0  0  0  0  0  0  0  0  0  0
    1.7489   -1.8669   -0.3036 C   0  0  0  0  0  0  0  0  0  0  0  0
    2.2528   -2.6957    0.8796 C   0  0  0  0  0  0  0  0  0  0  0  0
   -2.7740   -0.3335   -0.1091 C   0  0  0  0  0  0  0  0  0  0  0  0
   -3.6405    0.3965   -1.1372 C   0  0  0  0  0  0  0  0  0  0  0  0
   -2.8931   -1.8439   -0.3222 C   0  0  0  0  0  0  0  0  0  0  0  0
   -3.2169   -0.0020    1.2085 O   0  0  0  0  0  0  0  0  0  0  0  0
    2.0388    3.7988    0.6791 H   0  0  0  0  0  0  0  0  0  0  0  0
    3.1886    2.5068    1.0995 H   0  0  0  0  0  0  0  0  0  0  0  0
    2.7752    2.8104   -0.6050 H   0  0  0  0  0  0  0  0  0  0  0  0
    0.8597    1.7806    1.5416 H   0  0  0  0  0  0  0  0  0  0  0  0
    0.0035    3.2980   -0.4242 H   0  0  0  0  0  0  0  0  0  0  0  0
    0.3695    1.8952   -1.4496 H   0  0  0  0  0  0  0  0  0  0  0  0
   -1.3607    1.7676    1.0211 H   0  0  0  0  0  0  0  0  0  0  0  0
   -1.9998    2.0744   -0.5927 H   0  0  0  0  0  0  0  0  0  0  0  0
   -0.9930   -0.1329   -1.2956 H   0  0  0  0  0  0  0  0  0  0  0  0
   -0.4907   -0.2304    1.6941 H   0  0  0  0  0  0  0  0  0  0  0  0
   -0.7897   -1.7260    0.7672 H   0  0  0  0  0  0  0  0  0  0  0  0
    3.3563    0.8553   -1.2062 H   0  0  0  0  0  0  0  0  0  0  0  0
    3.8209    0.0928    0.3460 H   0  0  0  0  0  0  0  0  0  0  0  0
    2.7005   -1.2023   -2.1592 H   0  0  0  0  0  0  0  0  0  0  0  0
    3.8410   -1.8765   -0.9466 H   0  0  0  0  0  0  0  0  0  0  0  0
    1.1194   -2.4745   -0.9537 H   0  0  0  0  0  0  0  0  0  0  0  0
    2.8660   -2.0690    1.5272 H   0  0  0  0  0  0  0  0  0  0  0  0
    1.4022   -3.0783    1.4437 H   0  0  0  0  0  0  0  0  0  0  0  0
    2.8492   -3.5302    0.5109 H   0  0  0  0  0  0  0  0  0  0  0  0
   -3.3027    0.1436   -2.1422 H   0  0  0  0  0  0  0  0  0  0  0  0
   -4.6806    0.0934   -1.0165 H   0  0  0  0  0  0  0  0  0  0  0  0
   -3.5557    1.4725   -0.9854 H   0  0  0  0  0  0  0  0  0  0  0  0
   -2.3775   -2.3663    0.4836 H   0  0  0  0  0  0  0  0  0  0  0  0
   -3.9453   -2.1286   -0.3249 H   0  0  0  0  0  0  0  0  0  0  0  0
   -2.4415   -2.1128   -1.2771 H   0  0  0  0  0  0  0  0  0  0  0  0
   -4.1361   -0.2437    1.3869 H   0  0  0  0  0  0  0  0  0  0  0  0
  1  2  1  0  0  0  0
  2  3  1  0  0  0  0
  3  4  1  0  0  0  0
  4  5  1  0  0  0  0
  5  6  1  0  0  0  0
  6  7  1  0  0  0  0
  7  8  2  0  0  0  0
  2  8  1  0  0  0  0
  8  9  1  0  0  0  0
  9 10  1  0  0  0  0
 10 11  1  0  0  0  0
  7 11  1  0  0  0  0
 11 12  1  0  0  0  0
  5 13  1  0  0  0  0
 13 14  1  0  0  0  0
 13 15  1  0  0  0  0
 13 16  1  0  0  0  0
  1 17  1  0  0  0  0
  1 18  1  0  0  0  0
  1 19  1  0  0  0  0
  2 20  1  0  0  0  0
  3 21  1  0  0  0  0
  3 22  1  0  0  0  0
  4 23  1  0  0  0  0
  4 24  1  0  0  0  0
  5 25  1  0  0  0  0
  6 26  1  0  0  0  0
  6 27  1  0  0  0  0
  9 28  1  0  0  0  0
  9 29  1  0  0  0  0
 10 30  1  0  0  0  0
 10 31  1  0  0  0  0
 11 32  1  0  0  0  0
 12 33  1  0  0  0  0
 12 34  1  0  0  0  0
 12 35  1  0  0  0  0
 14 36  1  0  0  0  0
 14 37  1  0  0  0  0
 14 38  1  0  0  0  0
 15 39  1  0  0  0  0
 15 40  1  0  0  0  0
 15 41  1  0  0  0  0
 16 42  1  0  0  0  0
M  END
$$$$
