C32H44O14
APtclcactv06291802453D 0   0.00000     0.00000
 
 90 91  0  0  0  0  0  0  0  0999 V2000
   -2.9927   -0.8039    1.8529 C   0  0  0  0  0  0  0  0  0  0  0  0
   -3.0001   -0.8039    0.3459 C   0  0  0  0  0  0  0  0  0  0  0  0
   -1.8119   -0.8039   -0.3480 C   0  0  0  0  0  0  0  0  0  0  0  0
   -0.5942   -0.8039    0.3470 C   0  0  0  0  0  0  0  0  0  0  0  0
    0.5942   -0.8039   -0.3470 C   0  0  0  0  0  0  0  0  0  0  0  0
    1.8119   -0.8039    0.3480 C   0  0  0  0  0  0  0  0  0  0  0  0
    3.0001   -0.8039   -0.3459 C   0  0  0  0  0  0  0  0  0  0  0  0
    2.9927   -0.8039   -1.8529 C   0  0  0  0  0  0  0  0  0  0  0  0
    4.2183   -0.8039    0.3494 C   0  0  0  0  0  0  0  0  0  0  0  0
    5.3975   -0.8039   -0.3392 C   0  0  0  0  0  0  0  0  0  0  0  0
    6.6173   -0.8039    0.3570 C   0  0  0  0  0  0  0  0  0  0  0  0
    7.7939   -0.8039   -0.3301 C   0  0  0  0  0  0  0  0  0  0  0  0
    7.7864   -0.8039   -1.8371 C   0  0  0  0  0  0  0  0  0  0  0  0
    9.0205   -0.8039    0.3700 C   0  0  0  0  0  0  0  0  0  0  0  0
    9.0266   -0.8039    1.5872 O   0  0  0  0  0  0  0  0  0  0  0  0
   10.1865   -0.8039   -0.3109 O   0  0  0  0  0  0  0  0  0  0  0  0
   11.3888   -0.8039    0.4615 C   0  0  0  0  0  0  0  0  0  0  0  0
   12.5955   -0.9297   -0.4723 C   0  0  0  0  0  0  0  0  0  0  0  0
   12.6405    0.2865   -1.4024 C   0  0  0  0  0  0  0  0  0  0  0  0
   12.6914    1.5617   -0.5552 C   0  0  0  0  0  0  0  0  0  0  0  0
   11.4811    1.5913    0.3817 C   0  0  0  0  0  0  0  0  0  0  0  0
   11.4827    0.4176    1.1970 O   0  0  0  0  0  0  0  0  0  0  0  0
   11.5564    2.8322    1.2736 C   0  0  0  0  0  0  0  0  0  0  0  0
   10.3705    2.9221    2.0658 O   0  0  0  0  0  0  0  0  0  0  0  0
   13.8936    1.5742    0.2171 O   0  0  0  0  0  0  0  0  0  0  0  0
   13.8046    0.2142   -2.2279 O   0  0  0  0  0  0  0  0  0  0  0  0
   13.7951   -0.9832    0.3023 O   0  0  0  0  0  0  0  0  0  0  0  0
   -4.2183   -0.8039   -0.3494 C   0  0  0  0  0  0  0  0  0  0  0  0
   -5.3975   -0.8039    0.3392 C   0  0  0  0  0  0  0  0  0  0  0  0
   -6.6173   -0.8039   -0.3570 C   0  0  0  0  0  0  0  0  0  0  0  0
   -7.7939   -0.8039    0.3301 C   0  0  0  0  0  0  0  0  0  0  0  0
   -7.7864   -0.8039    1.8371 C   0  0  0  0  0  0  0  0  0  0  0  0
   -9.0205   -0.8039   -0.3700 C   0  0  0  0  0  0  0  0  0  0  0  0
   -9.0266   -0.8039   -1.5872 O   0  0  0  0  0  0  0  0  0  0  0  0
  -10.1865   -0.8039    0.3109 O   0  0  0  0  0  0  0  0  0  0  0  0
  -11.3888   -0.8039   -0.4615 C   0  0  0  0  0  0  0  0  0  0  0  0
  -12.5955   -0.9297    0.4723 C   0  0  0  0  0  0  0  0  0  0  0  0
  -12.6405    0.2865    1.4024 C   0  0  0  0  0  0  0  0  0  0  0  0
  -12.6914    1.5617    0.5552 C   0  0  0  0  0  0  0  0  0  0  0  0
  -11.4811    1.5913   -0.3817 C   0  0  0  0  0  0  0  0  0  0  0  0
  -11.4827    0.4176   -1.1970 O   0  0  0  0  0  0  0  0  0  0  0  0
  -11.5564    2.8322   -1.2736 C   0  0  0  0  0  0  0  0  0  0  0  0
  -10.3705    2.9221   -2.0658 O   0  0  0  0  0  0  0  0  0  0  0  0
  -13.8936    1.5742   -0.2171 O   0  0  0  0  0  0  0  0  0  0  0  0
  -13.8046    0.2142    2.2279 O   0  0  0  0  0  0  0  0  0  0  0  0
  -13.7951   -0.9832   -0.3023 O   0  0  0  0  0  0  0  0  0  0  0  0
   -2.9909    0.2237    2.2162 H   0  0  0  0  0  0  0  0  0  0  0  0
   -3.8808   -1.3178    2.2206 H   0  0  0  0  0  0  0  0  0  0  0  0
   -2.1009   -1.3178    2.2118 H   0  0  0  0  0  0  0  0  0  0  0  0
   -1.8173   -0.8039   -1.4280 H   0  0  0  0  0  0  0  0  0  0  0  0
   -0.5889   -0.8039    1.4270 H   0  0  0  0  0  0  0  0  0  0  0  0
    0.5889   -0.8039   -1.4270 H   0  0  0  0  0  0  0  0  0  0  0  0
    1.8173   -0.8039    1.4280 H   0  0  0  0  0  0  0  0  0  0  0  0
    2.9909    0.2237   -2.2162 H   0  0  0  0  0  0  0  0  0  0  0  0
    3.8808   -1.3178   -2.2206 H   0  0  0  0  0  0  0  0  0  0  0  0
    2.1009   -1.3178   -2.2118 H   0  0  0  0  0  0  0  0  0  0  0  0
    4.2237   -0.8039    1.4294 H   0  0  0  0  0  0  0  0  0  0  0  0
    5.3922   -0.8039   -1.4192 H   0  0  0  0  0  0  0  0  0  0  0  0
    6.6227   -0.8039    1.4370 H   0  0  0  0  0  0  0  0  0  0  0  0
    7.7846    0.2237   -2.2004 H   0  0  0  0  0  0  0  0  0  0  0  0
    8.6746   -1.3178   -2.2048 H   0  0  0  0  0  0  0  0  0  0  0  0
    6.8947   -1.3178   -2.1960 H   0  0  0  0  0  0  0  0  0  0  0  0
   11.3759   -1.6455    1.1541 H   0  0  0  0  0  0  0  0  0  0  0  0
   12.5033   -1.8391   -1.0661 H   0  0  0  0  0  0  0  0  0  0  0  0
   11.7482    0.3000   -2.0284 H   0  0  0  0  0  0  0  0  0  0  0  0
   12.6679    2.4341   -1.2083 H   0  0  0  0  0  0  0  0  0  0  0  0
   10.5652    1.6226   -0.2084 H   0  0  0  0  0  0  0  0  0  0  0  0
   12.4253    2.7575    1.9274 H   0  0  0  0  0  0  0  0  0  0  0  0
   11.6456    3.7223    0.6508 H   0  0  0  0  0  0  0  0  0  0  0  0
   10.3494    3.6871    2.6569 H   0  0  0  0  0  0  0  0  0  0  0  0
   14.7020    1.5519   -0.3131 H   0  0  0  0  0  0  0  0  0  0  0  0
   13.8417   -0.5736   -2.7874 H   0  0  0  0  0  0  0  0  0  0  0  0
   13.8328   -1.7277    0.9182 H   0  0  0  0  0  0  0  0  0  0  0  0
   -4.2237   -0.8039   -1.4294 H   0  0  0  0  0  0  0  0  0  0  0  0
   -5.3922   -0.8039    1.4192 H   0  0  0  0  0  0  0  0  0  0  0  0
   -6.6227   -0.8039   -1.4370 H   0  0  0  0  0  0  0  0  0  0  0  0
   -7.7846    0.2237    2.2004 H   0  0  0  0  0  0  0  0  0  0  0  0
   -8.6746   -1.3178    2.2048 H   0  0  0  0  0  0  0  0  0  0  0  0
   -6.8947   -1.3178    2.1960 H   0  0  0  0  0  0  0  0  0  0  0  0
  -11.3759   -1.6455   -1.1541 H   0  0  0  0  0  0  0  0  0  0  0  0
  -12.5033   -1.8391    1.0661 H   0  0  0  0  0  0  0  0  0  0  0  0
  -11.7482    0.3000    2.0284 H   0  0  0  0  0  0  0  0  0  0  0  0
  -12.6679    2.4341    1.2083 H   0  0  0  0  0  0  0  0  0  0  0  0
  -10.5652    1.6226    0.2084 H   0  0  0  0  0  0  0  0  0  0  0  0
  -12.4253    2.7575   -1.9274 H   0  0  0  0  0  0  0  0  0  0  0  0
  -11.6456    3.7223   -0.6508 H   0  0  0  0  0  0  0  0  0  0  0  0
  -10.3494    3.6871   -2.6569 H   0  0  0  0  0  0  0  0  0  0  0  0
  -14.7020    1.5519    0.3131 H   0  0  0  0  0  0  0  0  0  0  0  0
  -13.8417   -0.5736    2.7874 H   0  0  0  0  0  0  0  0  0  0  0  0
  -13.8328   -1.7277   -0.9182 H   0  0  0  0  0  0  0  0  0  0  0  0
  1  2  1  0  0  0  0
  2  3  2  0  0  0  0
  3  4  1  0  0  0  0
  4  5  2  0  0  0  0
  5  6  1  0  0  0  0
  6  7  2  0  0  0  0
  7  8  1  0  0  0  0
  7  9  1  0  0  0  0
  9 10  2  0  0  0  0
 10 11  1  0  0  0  0
 11 12  2  0  0  0  0
 12 13  1  0  0  0  0
 12 14  1  0  0  0  0
 14 15  2  0  0  0  0
 14 16  1  0  0  0  0
 16 17  1  0  0  0  0
 17 18  1  0  0  0  0
 18 19  1  0  0  0  0
 19 20  1  0  0  0  0
 20 21  1  0  0  0  0
 21 22  1  0  0  0  0
 17 22  1  0  0  0  0
 21 23  1  0  0  0  0
 23 24  1  0  0  0  0
 20 25  1  0  0  0  0
 19 26  1  0  0  0  0
 18 27  1  0  0  0  0
  2 28  1  0  0  0  0
 28 29  2  0  0  0  0
 29 30  1  0  0  0  0
 30 31  2  0  0  0  0
 31 32  1  0  0  0  0
 31 33  1  0  0  0  0
 33 34  2  0  0  0  0
 33 35  1  0  0  0  0
 35 36  1  0  0  0  0
 36 37  1  0  0  0  0
 37 38  1  0  0  0  0
 38 39  1  0  0  0  0
 39 40  1  0  0  0  0
 40 41  1  0  0  0  0
 36 41  1  0  0  0  0
 40 42  1  0  0  0  0
 42 43  1  0  0  0  0
 39 44  1  0  0  0  0
 38 45  1  0  0  0  0
 37 46  1  0  0  0  0
  1 47  1  0  0  0  0
  1 48  1  0  0  0  0
  1 49  1  0  0  0  0
  3 50  1  0  0  0  0
  4 51  1  0  0  0  0
  5 52  1  0  0  0  0
  6 53  1  0  0  0  0
  8 54  1  0  0  0  0
  8 55  1  0  0  0  0
  8 56  1  0  0  0  0
  9 57  1  0  0  0  0
 10 58  1  0  0  0  0
 11 59  1  0  0  0  0
 13 60  1  0  0  0  0
 13 61  1  0  0  0  0
 13 62  1  0  0  0  0
 17 63  1  0  0  0  0
 18 64  1  0  0  0  0
 19 65  1  0  0  0  0
 20 66  1  0  0  0  0
 21 67  1  0  0  0  0
 23 68  1  0  0  0  0
 23 69  1  0  0  0  0
 24 70  1  0  0  0  0
 25 71  1  0  0  0  0
 26 72  1  0  0  0  0
 27 73  1  0  0  0  0
 28 74  1  0  0  0  0
 29 75  1  0  0  0  0
 30 76  1  0  0  0  0
 32 77  1  0  0  0  0
 32 78  1  0  0  0  0
 32 79  1  0  0  0  0
 36 80  1  0  0  0  0
 37 81  1  0  0  0  0
 38 82  1  0  0  0  0
 39 83  1  0  0  0  0
 40 84  1  0  0  0  0
 42 85  1  0  0  0  0
 42 86  1  0  0  0  0
 43 87  1  0  0  0  0
 44 88  1  0  0  0  0
 45 89  1  0  0  0  0
 46 90  1  0  0  0  0
M  END
$$$$
