C48H28O30
APtclcactv06291802453D 0   0.00000     0.00000
 
106115  0  0  0  0  0  0  0  0999 V2000
    0.4906   -0.9576   -3.3313 C   0  0  0  0  0  0  0  0  0  0  0  0
   -0.7949   -0.7005   -2.5485 C   0  0  0  0  0  0  0  0  0  0  0  0
   -1.3534    0.6759   -2.8999 C   0  0  0  0  0  0  0  0  0  0  0  0
   -2.7414    0.8348   -2.5256 O   0  0  0  0  0  0  0  0  0  0  0  0
   -3.1237    0.5788   -1.2721 C   0  0  0  0  0  0  0  0  0  0  0  0
   -2.2622    0.1391   -0.5458 O   0  0  0  0  0  0  0  0  0  0  0  0
   -4.4667    0.7873   -0.7292 C   0  0  0  0  0  0  0  0  0  0  0  0
   -5.5272    1.1907   -1.5288 C   0  0  0  0  0  0  0  0  0  0  0  0
   -6.7835    1.3948   -0.9860 C   0  0  0  0  0  0  0  0  0  0  0  0
   -6.9923    1.1949    0.3775 C   0  0  0  0  0  0  0  0  0  0  0  0
   -5.9390    0.7884    1.1922 C   0  0  0  0  0  0  0  0  0  0  0  0
   -4.6863    0.5807    0.6817 C   0  0  0  0  0  0  0  0  0  0  0  0
   -3.4703    0.1891    1.3759 C   0  0  0  0  0  0  0  0  0  0  0  0
   -2.6579    1.0350    2.1289 C   0  0  0  0  0  0  0  0  0  0  0  0
   -1.3947    0.6354    2.5605 C   0  0  0  0  0  0  0  0  0  0  0  0
   -0.8785   -0.6188    2.2340 C   0  0  0  0  0  0  0  0  0  0  0  0
   -1.7345   -1.5178    1.6022 C   0  0  0  0  0  0  0  0  0  0  0  0
   -3.0760   -1.1891    1.3219 C   0  0  0  0  0  0  0  0  0  0  0  0
   -3.9500   -2.3172    1.0115 C   0  0  0  0  0  0  0  0  0  0  0  0
   -5.1488   -2.1397    0.9221 O   0  0  0  0  0  0  0  0  0  0  0  0
   -3.4549   -3.5544    0.7947 O   0  0  0  0  0  0  0  0  0  0  0  0
   -2.1321   -3.8112    0.7384 C   0  0  0  0  0  0  0  0  0  0  0  0
   -1.5877   -5.0211    0.3137 C   0  0  0  0  0  0  0  0  0  0  0  0
   -0.2146   -5.1851    0.1356 C   0  0  0  0  0  0  0  0  0  0  0  0
    0.6803   -4.1677    0.4242 C   0  0  0  0  0  0  0  0  0  0  0  0
    2.0946   -4.1250    0.0802 C   0  0  0  0  0  0  0  0  0  0  0  0
    3.1118   -4.8169    0.6979 C   0  0  0  0  0  0  0  0  0  0  0  0
    4.4332   -4.6344    0.3005 C   0  0  0  0  0  0  0  0  0  0  0  0
    4.7368   -3.7537   -0.7361 C   0  0  0  0  0  0  0  0  0  0  0  0
    3.7246   -3.0792   -1.3955 C   0  0  0  0  0  0  0  0  0  0  0  0
    2.3963   -3.2729   -1.0249 C   0  0  0  0  0  0  0  0  0  0  0  0
    1.2998   -2.6224   -1.7656 C   0  0  0  0  0  0  0  0  0  0  0  0
    0.1647   -3.0476   -1.6821 O   0  0  0  0  0  0  0  0  0  0  0  0
    1.5353   -1.5447   -2.5293 O   0  0  0  0  0  0  0  0  0  0  0  0
    6.0318   -3.5559   -1.0994 O   0  0  0  0  0  0  0  0  0  0  0  0
    5.4282   -5.3162    0.9254 O   0  0  0  0  0  0  0  0  0  0  0  0
    2.8337   -5.6887    1.7070 O   0  0  0  0  0  0  0  0  0  0  0  0
    0.1582   -3.0385    1.1402 C   0  0  0  0  0  0  0  0  0  0  0  0
   -1.2305   -2.8220    1.1450 C   0  0  0  0  0  0  0  0  0  0  0  0
    0.9536   -2.0920    1.9224 C   0  0  0  0  0  0  0  0  0  0  0  0
    2.1399   -2.2990    2.0856 O   0  0  0  0  0  0  0  0  0  0  0  0
    0.4043   -0.9806    2.4611 O   0  0  0  0  0  0  0  0  0  0  0  0
    0.2481   -6.3773   -0.3351 O   0  0  0  0  0  0  0  0  0  0  0  0
   -2.4152   -6.0708    0.0665 O   0  0  0  0  0  0  0  0  0  0  0  0
   -0.6485    1.4857    3.3146 O   0  0  0  0  0  0  0  0  0  0  0  0
   -3.1028    2.2823    2.4520 O   0  0  0  0  0  0  0  0  0  0  0  0
   -6.1640    0.5961    2.5219 O   0  0  0  0  0  0  0  0  0  0  0  0
   -8.2245    1.3973    0.9125 O   0  0  0  0  0  0  0  0  0  0  0  0
   -7.8136    1.7892   -1.7804 O   0  0  0  0  0  0  0  0  0  0  0  0
   -0.5163    1.7622   -2.2211 C   0  0  0  0  0  0  0  0  0  0  0  0
   -1.2297    2.2383   -0.9502 C   0  0  0  0  0  0  0  0  0  0  0  0
   -0.5738    3.4338   -0.4469 O   0  0  0  0  0  0  0  0  0  0  0  0
    0.6198    3.2748    0.1339 C   0  0  0  0  0  0  0  0  0  0  0  0
    0.9050    2.1762    0.5682 O   0  0  0  0  0  0  0  0  0  0  0  0
    1.6023    4.3502    0.2753 C   0  0  0  0  0  0  0  0  0  0  0  0
    1.1713    5.6761    0.3468 C   0  0  0  0  0  0  0  0  0  0  0  0
    2.0788    6.7030    0.5235 C   0  0  0  0  0  0  0  0  0  0  0  0
    3.4396    6.4192    0.6218 C   0  0  0  0  0  0  0  0  0  0  0  0
    3.8863    5.1103    0.5092 C   0  0  0  0  0  0  0  0  0  0  0  0
    2.9834    4.0637    0.3017 C   0  0  0  0  0  0  0  0  0  0  0  0
    3.5100    2.6940    0.1444 C   0  0  0  0  0  0  0  0  0  0  0  0
    4.6849    2.3484    0.8072 C   0  0  0  0  0  0  0  0  0  0  0  0
    5.1963    1.0642    0.7255 C   0  0  0  0  0  0  0  0  0  0  0  0
    4.5475    0.0984   -0.0392 C   0  0  0  0  0  0  0  0  0  0  0  0
    3.4049    0.4349   -0.7498 C   0  0  0  0  0  0  0  0  0  0  0  0
    2.8942    1.7392   -0.6946 C   0  0  0  0  0  0  0  0  0  0  0  0
    1.7287    2.0946   -1.4982 C   0  0  0  0  0  0  0  0  0  0  0  0
    1.6071    3.2518   -1.8505 O   0  0  0  0  0  0  0  0  0  0  0  0
    0.7864    1.2214   -1.8689 O   0  0  0  0  0  0  0  0  0  0  0  0
    2.7778   -0.5040   -1.5034 O   0  0  0  0  0  0  0  0  0  0  0  0
    5.0332   -1.1717   -0.0897 O   0  0  0  0  0  0  0  0  0  0  0  0
    6.3353    0.7458    1.3933 O   0  0  0  0  0  0  0  0  0  0  0  0
    5.2158    4.8433    0.6008 O   0  0  0  0  0  0  0  0  0  0  0  0
    4.3298    7.4251    0.8277 O   0  0  0  0  0  0  0  0  0  0  0  0
    1.6445    7.9890    0.6010 O   0  0  0  0  0  0  0  0  0  0  0  0
   -2.6690    2.5512   -1.2691 C   0  0  0  0  0  0  0  0  0  0  0  0
   -3.0327    2.6147   -2.4188 O   0  0  0  0  0  0  0  0  0  0  0  0
   -1.7632   -1.6982   -2.8941 O   0  0  0  0  0  0  0  0  0  0  0  0
    0.2667   -1.6388   -4.1574 H   0  0  0  0  0  0  0  0  0  0  0  0
    0.8563   -0.0231   -3.7549 H   0  0  0  0  0  0  0  0  0  0  0  0
   -0.5855   -0.7545   -1.4808 H   0  0  0  0  0  0  0  0  0  0  0  0
   -1.2729    0.8129   -3.9843 H   0  0  0  0  0  0  0  0  0  0  0  0
   -5.3670    1.3450   -2.5869 H   0  0  0  0  0  0  0  0  0  0  0  0
    3.9683   -2.4023   -2.2025 H   0  0  0  0  0  0  0  0  0  0  0  0
    6.3448   -4.1612   -1.7854 H   0  0  0  0  0  0  0  0  0  0  0  0
    5.6318   -6.1717    0.5230 H   0  0  0  0  0  0  0  0  0  0  0  0
    2.6665   -6.5937    1.4100 H   0  0  0  0  0  0  0  0  0  0  0  0
    0.3100   -6.4223   -1.2991 H   0  0  0  0  0  0  0  0  0  0  0  0
   -2.7329   -6.1147   -0.8457 H   0  0  0  0  0  0  0  0  0  0  0  0
   -0.7327    1.3434    4.2674 H   0  0  0  0  0  0  0  0  0  0  0  0
   -3.5871    2.3228    3.2880 H   0  0  0  0  0  0  0  0  0  0  0  0
   -6.4338   -0.3043    2.7490 H   0  0  0  0  0  0  0  0  0  0  0  0
   -8.7874    0.6111    0.9120 H   0  0  0  0  0  0  0  0  0  0  0  0
   -8.3159    1.0580   -2.1652 H   0  0  0  0  0  0  0  0  0  0  0  0
   -0.3890    2.6027   -2.9033 H   0  0  0  0  0  0  0  0  0  0  0  0
   -1.1869    1.4545   -0.1940 H   0  0  0  0  0  0  0  0  0  0  0  0
    0.1184    5.9014    0.2628 H   0  0  0  0  0  0  0  0  0  0  0  0
    5.2045    3.0923    1.3929 H   0  0  0  0  0  0  0  0  0  0  0  0
    2.1684   -1.0656   -1.0050 H   0  0  0  0  0  0  0  0  0  0  0  0
    4.6432   -1.7682    0.5639 H   0  0  0  0  0  0  0  0  0  0  0  0
    6.1864    0.4180    2.2908 H   0  0  0  0  0  0  0  0  0  0  0  0
    5.6674    4.7973   -0.2530 H   0  0  0  0  0  0  0  0  0  0  0  0
    4.5027    7.6125    1.7605 H   0  0  0  0  0  0  0  0  0  0  0  0
    1.4386    8.2812    1.4995 H   0  0  0  0  0  0  0  0  0  0  0  0
   -3.3751    2.7188   -0.4693 H   0  0  0  0  0  0  0  0  0  0  0  0
   -1.4828   -2.6027   -2.6986 H   0  0  0  0  0  0  0  0  0  0  0  0
  1  2  1  0  0  0  0
  2  3  1  0  0  0  0
  3  4  1  0  0  0  0
  4  5  1  0  0  0  0
  5  6  2  0  0  0  0
  5  7  1  0  0  0  0
  7  8  2  0  0  0  0
  8  9  1  0  0  0  0
  9 10  2  0  0  0  0
 10 11  1  0  0  0  0
 11 12  2  0  0  0  0
  7 12  1  0  0  0  0
 12 13  1  0  0  0  0
 13 14  2  0  0  0  0
 14 15  1  0  0  0  0
 15 16  2  0  0  0  0
 16 17  1  0  0  0  0
 17 18  2  0  0  0  0
 13 18  1  0  0  0  0
 18 19  1  0  0  0  0
 19 20  2  0  0  0  0
 19 21  1  0  0  0  0
 21 22  1  0  0  0  0
 22 23  2  0  0  0  0
 23 24  1  0  0  0  0
 24 25  2  0  0  0  0
 25 26  1  0  0  0  0
 26 27  2  0  0  0  0
 27 28  1  0  0  0  0
 28 29  2  0  0  0  0
 29 30  1  0  0  0  0
 30 31  2  0  0  0  0
 26 31  1  0  0  0  0
 31 32  1  0  0  0  0
 32 33  2  0  0  0  0
 32 34  1  0  0  0  0
  1 34  1  0  0  0  0
 29 35  1  0  0  0  0
 28 36  1  0  0  0  0
 27 37  1  0  0  0  0
 25 38  1  0  0  0  0
 38 39  2  0  0  0  0
 17 39  1  0  0  0  0
 22 39  1  0  0  0  0
 38 40  1  0  0  0  0
 40 41  2  0  0  0  0
 40 42  1  0  0  0  0
 16 42  1  0  0  0  0
 24 43  1  0  0  0  0
 23 44  1  0  0  0  0
 15 45  1  0  0  0  0
 14 46  1  0  0  0  0
 11 47  1  0  0  0  0
 10 48  1  0  0  0  0
  9 49  1  0  0  0  0
  3 50  1  0  0  0  0
 50 51  1  0  0  0  0
 51 52  1  0  0  0  0
 52 53  1  0  0  0  0
 53 54  2  0  0  0  0
 53 55  1  0  0  0  0
 55 56  2  0  0  0  0
 56 57  1  0  0  0  0
 57 58  2  0  0  0  0
 58 59  1  0  0  0  0
 59 60  2  0  0  0  0
 55 60  1  0  0  0  0
 60 61  1  0  0  0  0
 61 62  2  0  0  0  0
 62 63  1  0  0  0  0
 63 64  2  0  0  0  0
 64 65  1  0  0  0  0
 65 66  2  0  0  0  0
 61 66  1  0  0  0  0
 66 67  1  0  0  0  0
 67 68  2  0  0  0  0
 67 69  1  0  0  0  0
 50 69  1  0  0  0  0
 65 70  1  0  0  0  0
 64 71  1  0  0  0  0
 63 72  1  0  0  0  0
 59 73  1  0  0  0  0
 58 74  1  0  0  0  0
 57 75  1  0  0  0  0
 51 76  1  0  0  0  0
 76 77  2  0  0  0  0
  2 78  1  0  0  0  0
  1 79  1  0  0  0  0
  1 80  1  0  0  0  0
  2 81  1  0  0  0  0
  3 82  1  0  0  0  0
  8 83  1  0  0  0  0
 30 84  1  0  0  0  0
 35 85  1  0  0  0  0
 36 86  1  0  0  0  0
 37 87  1  0  0  0  0
 43 88  1  0  0  0  0
 44 89  1  0  0  0  0
 45 90  1  0  0  0  0
 46 91  1  0  0  0  0
 47 92  1  0  0  0  0
 48 93  1  0  0  0  0
 49 94  1  0  0  0  0
 50 95  1  0  0  0  0
 51 96  1  0  0  0  0
 56 97  1  0  0  0  0
 62 98  1  0  0  0  0
 70 99  1  0  0  0  0
 71100  1  0  0  0  0
 72101  1  0  0  0  0
 73102  1  0  0  0  0
 74103  1  0  0  0  0
 75104  1  0  0  0  0
 76105  1  0  0  0  0
 78106  1  0  0  0  0
M  END
$$$$
