C12H24O2
APtclcactv06211806123D 0   0.00000     0.00000
 
 38 37  0  0  0  0  0  0  0  0999 V2000
    7.5247    0.4419    0.0000 C   0  0  0  0  0  0  0  0  0  0  0  0
    6.2684   -0.4314   -0.0000 C   0  0  0  0  0  0  0  0  0  0  0  0
    5.0263    0.4620    0.0000 C   0  0  0  0  0  0  0  0  0  0  0  0
    3.7700   -0.4113   -0.0000 C   0  0  0  0  0  0  0  0  0  0  0  0
    2.5279    0.4820    0.0000 C   0  0  0  0  0  0  0  0  0  0  0  0
    1.2716   -0.3913   -0.0000 C   0  0  0  0  0  0  0  0  0  0  0  0
    0.0928    0.4565   -0.0000 O   0  0  0  0  0  0  0  0  0  0  0  0
   -1.1002   -0.1587   -0.0000 C   0  0  0  0  0  0  0  0  0  0  0  0
   -1.1576   -1.3655   -0.0000 O   0  0  0  0  0  0  0  0  0  0  0  0
   -2.3680    0.6560   -0.0000 C   0  0  0  0  0  0  0  0  0  0  0  0
   -3.5769   -0.2818    0.0000 C   0  0  0  0  0  0  0  0  0  0  0  0
   -4.8640    0.5453   -0.0000 C   0  0  0  0  0  0  0  0  0  0  0  0
   -6.0729   -0.3926    0.0000 C   0  0  0  0  0  0  0  0  0  0  0  0
   -7.3601    0.4345   -0.0000 C   0  0  0  0  0  0  0  0  0  0  0  0
    7.5298    1.0712    0.8900 H   0  0  0  0  0  0  0  0  0  0  0  0
    8.4096   -0.1945    0.0000 H   0  0  0  0  0  0  0  0  0  0  0  0
    7.5298    1.0712   -0.8900 H   0  0  0  0  0  0  0  0  0  0  0  0
    6.2634   -1.0607   -0.8900 H   0  0  0  0  0  0  0  0  0  0  0  0
    6.2634   -1.0607    0.8900 H   0  0  0  0  0  0  0  0  0  0  0  0
    5.0314    1.0912    0.8900 H   0  0  0  0  0  0  0  0  0  0  0  0
    5.0314    1.0912   -0.8900 H   0  0  0  0  0  0  0  0  0  0  0  0
    3.7650   -1.0406   -0.8900 H   0  0  0  0  0  0  0  0  0  0  0  0
    3.7650   -1.0406    0.8900 H   0  0  0  0  0  0  0  0  0  0  0  0
    2.5330    1.1113    0.8900 H   0  0  0  0  0  0  0  0  0  0  0  0
    2.5330    1.1113   -0.8900 H   0  0  0  0  0  0  0  0  0  0  0  0
    1.2666   -1.0206   -0.8900 H   0  0  0  0  0  0  0  0  0  0  0  0
    1.2666   -1.0206    0.8900 H   0  0  0  0  0  0  0  0  0  0  0  0
   -2.3959    1.2847    0.8900 H   0  0  0  0  0  0  0  0  0  0  0  0
   -2.3959    1.2847   -0.8900 H   0  0  0  0  0  0  0  0  0  0  0  0
   -3.5490   -0.9105   -0.8900 H   0  0  0  0  0  0  0  0  0  0  0  0
   -3.5490   -0.9105    0.8900 H   0  0  0  0  0  0  0  0  0  0  0  0
   -4.8919    1.1740    0.8900 H   0  0  0  0  0  0  0  0  0  0  0  0
   -4.8919    1.1740   -0.8900 H   0  0  0  0  0  0  0  0  0  0  0  0
   -6.0450   -1.0213   -0.8900 H   0  0  0  0  0  0  0  0  0  0  0  0
   -6.0450   -1.0213    0.8900 H   0  0  0  0  0  0  0  0  0  0  0  0
   -8.2213   -0.2336    0.0000 H   0  0  0  0  0  0  0  0  0  0  0  0
   -7.3880    1.0632    0.8900 H   0  0  0  0  0  0  0  0  0  0  0  0
   -7.3880    1.0632   -0.8900 H   0  0  0  0  0  0  0  0  0  0  0  0
  1  2  1  0  0  0  0
  2  3  1  0  0  0  0
  3  4  1  0  0  0  0
  4  5  1  0  0  0  0
  5  6  1  0  0  0  0
  6  7  1  0  0  0  0
  7  8  1  0  0  0  0
  8  9  2  0  0  0  0
  8 10  1  0  0  0  0
 10 11  1  0  0  0  0
 11 12  1  0  0  0  0
 12 13  1  0  0  0  0
 13 14  1  0  0  0  0
  1 15  1  0  0  0  0
  1 16  1  0  0  0  0
  1 17  1  0  0  0  0
  2 18  1  0  0  0  0
  2 19  1  0  0  0  0
  3 20  1  0  0  0  0
  3 21  1  0  0  0  0
  4 22  1  0  0  0  0
  4 23  1  0  0  0  0
  5 24  1  0  0  0  0
  5 25  1  0  0  0  0
  6 26  1  0  0  0  0
  6 27  1  0  0  0  0
 10 28  1  0  0  0  0
 10 29  1  0  0  0  0
 11 30  1  0  0  0  0
 11 31  1  0  0  0  0
 12 32  1  0  0  0  0
 12 33  1  0  0  0  0
 13 34  1  0  0  0  0
 13 35  1  0  0  0  0
 14 36  1  0  0  0  0
 14 37  1  0  0  0  0
 14 38  1  0  0  0  0
M  END
$$$$
