C13H22O3
APtclcactv06291802453D 0   0.00000     0.00000
 
 38 38  0  0  0  0  0  0  0  0999 V2000
    0.8552    2.0118    1.0968 C   0  0  0  0  0  0  0  0  0  0  0  0
    0.9408    1.4071   -0.3034 C   0  0  0  0  0  0  0  0  0  0  0  0
    2.3905    1.3587   -0.7758 C   0  0  0  0  0  0  0  0  0  0  0  0
    3.0787    0.1768   -0.1318 C   0  0  0  0  0  0  0  0  0  0  0  0
    4.0875    0.3091    0.5130 O   0  0  0  0  0  0  0  0  0  0  0  0
    2.4434   -1.1791   -0.3384 C   0  0  0  0  0  0  0  0  0  0  0  0
    1.0006   -1.1282    0.1638 C   0  0  0  0  0  0  0  0  0  0  0  0
    0.2383    0.0657   -0.3877 C   0  0  0  0  0  0  0  0  0  0  0  0
   -1.0842    0.1687    0.3512 C   0  0  0  0  0  0  0  0  0  0  0  0
   -2.2120    0.0901   -0.3106 C   0  0  0  0  0  0  0  0  0  0  0  0
   -3.5246    0.1923    0.4227 C   0  0  0  0  0  0  0  0  0  0  0  0
   -4.3158    1.3877   -0.1120 C   0  0  0  0  0  0  0  0  0  0  0  0
   -4.2773   -1.0056    0.2214 O   0  0  0  0  0  0  0  0  0  0  0  0
   -0.0691   -0.1983   -1.7709 O   0  0  0  0  0  0  0  0  0  0  0  0
    0.2898   -2.4112   -0.3175 C   0  0  0  0  0  0  0  0  0  0  0  0
    0.9853   -1.1395    1.6941 C   0  0  0  0  0  0  0  0  0  0  0  0
    1.2565    3.0251    1.0802 H   0  0  0  0  0  0  0  0  0  0  0  0
   -0.1861    2.0386    1.4180 H   0  0  0  0  0  0  0  0  0  0  0  0
    1.4341    1.4031    1.7914 H   0  0  0  0  0  0  0  0  0  0  0  0
    0.4031    2.1034   -0.9833 H   0  0  0  0  0  0  0  0  0  0  0  0
    2.4243    1.2530   -1.8616 H   0  0  0  0  0  0  0  0  0  0  0  0
    2.9045    2.2786   -0.4899 H   0  0  0  0  0  0  0  0  0  0  0  0
    2.4565   -1.4317   -1.3995 H   0  0  0  0  0  0  0  0  0  0  0  0
    3.0014   -1.9328    0.2192 H   0  0  0  0  0  0  0  0  0  0  0  0
   -1.0950    0.3067    1.4223 H   0  0  0  0  0  0  0  0  0  0  0  0
   -2.2012   -0.0479   -1.3817 H   0  0  0  0  0  0  0  0  0  0  0  0
   -3.3362    0.3284    1.4877 H   0  0  0  0  0  0  0  0  0  0  0  0
   -4.5042    1.2517   -1.1769 H   0  0  0  0  0  0  0  0  0  0  0  0
   -5.2652    1.4617    0.4184 H   0  0  0  0  0  0  0  0  0  0  0  0
   -3.7417    2.3015    0.0416 H   0  0  0  0  0  0  0  0  0  0  0  0
   -5.1360   -1.0099    0.6659 H   0  0  0  0  0  0  0  0  0  0  0  0
   -0.5574    0.5127   -2.2080 H   0  0  0  0  0  0  0  0  0  0  0  0
    0.8015   -3.2840    0.0881 H   0  0  0  0  0  0  0  0  0  0  0  0
   -0.7446   -2.4042    0.0261 H   0  0  0  0  0  0  0  0  0  0  0  0
    0.3106   -2.4513   -1.4065 H   0  0  0  0  0  0  0  0  0  0  0  0
    1.5290   -0.2724    2.0693 H   0  0  0  0  0  0  0  0  0  0  0  0
   -0.0452   -1.1031    2.0475 H   0  0  0  0  0  0  0  0  0  0  0  0
    1.4613   -2.0511    2.0554 H   0  0  0  0  0  0  0  0  0  0  0  0
  1  2  1  0  0  0  0
  2  3  1  0  0  0  0
  3  4  1  0  0  0  0
  4  5  2  0  0  0  0
  4  6  1  0  0  0  0
  6  7  1  0  0  0  0
  7  8  1  0  0  0  0
  2  8  1  0  0  0  0
  8  9  1  0  0  0  0
  9 10  2  0  0  0  0
 10 11  1  0  0  0  0
 11 12  1  0  0  0  0
 11 13  1  0  0  0  0
  8 14  1  0  0  0  0
  7 15  1  0  0  0  0
  7 16  1  0  0  0  0
  1 17  1  0  0  0  0
  1 18  1  0  0  0  0
  1 19  1  0  0  0  0
  2 20  1  0  0  0  0
  3 21  1  0  0  0  0
  3 22  1  0  0  0  0
  6 23  1  0  0  0  0
  6 24  1  0  0  0  0
  9 25  1  0  0  0  0
 10 26  1  0  0  0  0
 11 27  1  0  0  0  0
 12 28  1  0  0  0  0
 12 29  1  0  0  0  0
 12 30  1  0  0  0  0
 13 31  1  0  0  0  0
 14 32  1  0  0  0  0
 15 33  1  0  0  0  0
 15 34  1  0  0  0  0
 15 35  1  0  0  0  0
 16 36  1  0  0  0  0
 16 37  1  0  0  0  0
 16 38  1  0  0  0  0
M  END
$$$$
