C11H18NO
APtclcactv06211806123D 0   0.00000     0.00000
 
 31 31  0  0  0  0  0  0  0  0999 V2000
    3.3556    1.1985   -0.6006 C   0  0  0  0  0  0  0  0  0  0  0  0
    3.0339    0.0002    0.1859 N   0  3  0  0  0  0  0  0  0  0  0  0
    3.3555   -1.2003   -0.5973 C   0  0  0  0  0  0  0  0  0  0  0  0
    3.8222    0.0019    1.4255 C   0  0  0  0  0  0  0  0  0  0  0  0
    1.6025    0.0007    0.5158 C   0  0  0  0  0  0  0  0  0  0  0  0
    0.7815   -0.0011   -0.7753 C   0  0  0  0  0  0  0  0  0  0  0  0
   -0.6870   -0.0006   -0.4368 C   0  0  0  0  0  0  0  0  0  0  0  0
   -1.3595    1.1977   -0.2835 C   0  0  0  0  0  0  0  0  0  0  0  0
   -2.7056    1.2009    0.0268 C   0  0  0  0  0  0  0  0  0  0  0  0
   -3.3827    0.0003    0.1845 C   0  0  0  0  0  0  0  0  0  0  0  0
   -2.7057   -1.2007    0.0302 C   0  0  0  0  0  0  0  0  0  0  0  0
   -1.3608   -1.1985   -0.2857 C   0  0  0  0  0  0  0  0  0  0  0  0
   -4.7069    0.0008    0.4902 O   0  0  0  0  0  0  0  0  0  0  0  0
    2.7707    1.1973   -1.5204 H   0  0  0  0  0  0  0  0  0  0  0  0
    3.1169    2.0893   -0.0195 H   0  0  0  0  0  0  0  0  0  0  0  0
    4.4177    1.1982   -0.8454 H   0  0  0  0  0  0  0  0  0  0  0  0
    4.4177   -1.2007   -0.8421 H   0  0  0  0  0  0  0  0  0  0  0  0
    3.1169   -2.0895   -0.0137 H   0  0  0  0  0  0  0  0  0  0  0  0
    2.7707   -1.2016   -1.5171 H   0  0  0  0  0  0  0  0  0  0  0  0
    3.5835    0.8927    2.0065 H   0  0  0  0  0  0  0  0  0  0  0  0
    3.5835   -0.8872    2.0090 H   0  0  0  0  0  0  0  0  0  0  0  0
    4.8843    0.0016    1.1806 H   0  0  0  0  0  0  0  0  0  0  0  0
    1.3638   -0.8885    1.0993 H   0  0  0  0  0  0  0  0  0  0  0  0
    1.3638    0.8915    1.0969 H   0  0  0  0  0  0  0  0  0  0  0  0
    1.0202    0.8881   -1.3588 H   0  0  0  0  0  0  0  0  0  0  0  0
    1.0201   -0.8919   -1.3564 H   0  0  0  0  0  0  0  0  0  0  0  0
   -0.8319    2.1321   -0.4060 H   0  0  0  0  0  0  0  0  0  0  0  0
   -3.2304    2.1371    0.1468 H   0  0  0  0  0  0  0  0  0  0  0  0
   -3.2306   -2.1366    0.1524 H   0  0  0  0  0  0  0  0  0  0  0  0
   -0.8333   -2.1331   -0.4060 H   0  0  0  0  0  0  0  0  0  0  0  0
   -5.2888   -0.0001   -0.2821 H   0  0  0  0  0  0  0  0  0  0  0  0
  1  2  1  0  0  0  0
  2  3  1  0  0  0  0
  2  4  1  0  0  0  0
  2  5  1  0  0  0  0
  5  6  1  0  0  0  0
  6  7  1  0  0  0  0
  7  8  2  0  0  0  0
  8  9  1  0  0  0  0
  9 10  2  0  0  0  0
 10 11  1  0  0  0  0
 11 12  2  0  0  0  0
  7 12  1  0  0  0  0
 10 13  1  0  0  0  0
  1 14  1  0  0  0  0
  1 15  1  0  0  0  0
  1 16  1  0  0  0  0
  3 17  1  0  0  0  0
  3 18  1  0  0  0  0
  3 19  1  0  0  0  0
  4 20  1  0  0  0  0
  4 21  1  0  0  0  0
  4 22  1  0  0  0  0
  5 23  1  0  0  0  0
  5 24  1  0  0  0  0
  6 25  1  0  0  0  0
  6 26  1  0  0  0  0
  8 27  1  0  0  0  0
  9 28  1  0  0  0  0
 11 29  1  0  0  0  0
 12 30  1  0  0  0  0
 13 31  1  0  0  0  0
M  CHG  1   2   1
M  END
$$$$
