C19H32O5
APtclcactv06291802453D 0   0.00000     0.00000
 
 56 58  0  0  0  0  0  0  0  0999 V2000
    4.9604    3.3766    1.1670 C   0  0  0  0  0  0  0  0  0  0  0  0
    3.5756    2.7863    0.8932 C   0  0  0  0  0  0  0  0  0  0  0  0
    3.6706    1.8113   -0.1472 O   0  0  0  0  0  0  0  0  0  0  0  0
    2.4260    1.1958   -0.4820 C   0  0  0  0  0  0  0  0  0  0  0  0
    2.5986    0.2526   -1.6933 C   0  0  0  0  0  0  0  0  0  0  0  0
    1.5079   -0.8222   -1.4586 C   0  0  0  0  0  0  0  0  0  0  0  0
    1.0152   -0.5788   -0.0253 C   0  0  0  0  0  0  0  0  0  0  0  0
    1.9945    0.3161    0.5755 O   0  0  0  0  0  0  0  0  0  0  0  0
   -0.3439    0.0470    0.1063 C   0  0  0  0  0  0  0  0  0  0  0  0
   -1.5204   -0.9081   -0.0228 C   0  0  0  0  0  0  0  0  0  0  0  0
   -1.3153   -2.1041    0.9128 C   0  0  0  0  0  0  0  0  0  0  0  0
   -0.0406   -2.8290    0.4922 C   0  0  0  0  0  0  0  0  0  0  0  0
    1.1811   -1.9342    0.6866 C   0  0  0  0  0  0  0  0  0  0  0  0
    2.3389   -2.5709   -0.1353 C   0  0  0  0  0  0  0  0  0  0  0  0
    2.1370   -2.1142   -1.4808 O   0  0  0  0  0  0  0  0  0  0  0  0
    1.5494   -1.7670    2.1669 C   0  0  0  0  0  0  0  0  0  0  0  0
   -2.8130   -0.1793    0.3731 C   0  0  0  0  0  0  0  0  0  0  0  0
   -3.9797   -1.1691    0.3646 C   0  0  0  0  0  0  0  0  0  0  0  0
   -2.6560    0.4121    1.7754 C   0  0  0  0  0  0  0  0  0  0  0  0
   -3.0768    0.8880   -0.5755 O   0  0  0  0  0  0  0  0  0  0  0  0
   -4.1783    1.6271   -0.3704 C   0  0  0  0  0  0  0  0  0  0  0  0
   -4.8982    1.3902    0.5706 O   0  0  0  0  0  0  0  0  0  0  0  0
   -4.5171    2.7524   -1.3137 C   0  0  0  0  0  0  0  0  0  0  0  0
    0.4193   -0.7263   -2.5288 C   0  0  0  0  0  0  0  0  0  0  0  0
    4.8879    4.1203    1.9606 H   0  0  0  0  0  0  0  0  0  0  0  0
    5.6397    2.5818    1.4749 H   0  0  0  0  0  0  0  0  0  0  0  0
    5.3400    3.8483    0.2606 H   0  0  0  0  0  0  0  0  0  0  0  0
    3.1960    2.3147    1.7996 H   0  0  0  0  0  0  0  0  0  0  0  0
    2.8962    3.5812    0.5853 H   0  0  0  0  0  0  0  0  0  0  0  0
    1.6695    1.9504   -0.6892 H   0  0  0  0  0  0  0  0  0  0  0  0
    2.4139    0.7839   -2.6248 H   0  0  0  0  0  0  0  0  0  0  0  0
    3.5871   -0.2016   -1.6911 H   0  0  0  0  0  0  0  0  0  0  0  0
   -0.3995    0.5171    1.1026 H   0  0  0  0  0  0  0  0  0  0  0  0
   -0.4498    0.8588   -0.6162 H   0  0  0  0  0  0  0  0  0  0  0  0
   -1.6268   -1.2659   -1.0465 H   0  0  0  0  0  0  0  0  0  0  0  0
   -1.2349   -1.7611    1.9416 H   0  0  0  0  0  0  0  0  0  0  0  0
   -2.1652   -2.7844    0.8238 H   0  0  0  0  0  0  0  0  0  0  0  0
    0.0735   -3.7300    1.0967 H   0  0  0  0  0  0  0  0  0  0  0  0
   -0.1193   -3.1140   -0.5568 H   0  0  0  0  0  0  0  0  0  0  0  0
    3.3047   -2.2316    0.2416 H   0  0  0  0  0  0  0  0  0  0  0  0
    2.2822   -3.6598   -0.0908 H   0  0  0  0  0  0  0  0  0  0  0  0
    1.7610   -2.7440    2.6013 H   0  0  0  0  0  0  0  0  0  0  0  0
    2.4316   -1.1325    2.2524 H   0  0  0  0  0  0  0  0  0  0  0  0
    0.7171   -1.3055    2.6985 H   0  0  0  0  0  0  0  0  0  0  0  0
   -3.7816   -1.9702    1.0766 H   0  0  0  0  0  0  0  0  0  0  0  0
   -4.8970   -0.6518    0.6456 H   0  0  0  0  0  0  0  0  0  0  0  0
   -4.0915   -1.5903   -0.6345 H   0  0  0  0  0  0  0  0  0  0  0  0
   -1.8248    1.1172    1.7815 H   0  0  0  0  0  0  0  0  0  0  0  0
   -3.5734    0.9293    2.0564 H   0  0  0  0  0  0  0  0  0  0  0  0
   -2.4580   -0.3891    2.4875 H   0  0  0  0  0  0  0  0  0  0  0  0
   -3.7583    2.8134   -2.0939 H   0  0  0  0  0  0  0  0  0  0  0  0
   -5.4905    2.5657   -1.7673 H   0  0  0  0  0  0  0  0  0  0  0  0
   -4.5475    3.6921   -0.7622 H   0  0  0  0  0  0  0  0  0  0  0  0
    0.8653   -0.8637   -3.5139 H   0  0  0  0  0  0  0  0  0  0  0  0
   -0.3281   -1.5009   -2.3572 H   0  0  0  0  0  0  0  0  0  0  0  0
   -0.0548    0.2538   -2.4781 H   0  0  0  0  0  0  0  0  0  0  0  0
  1  2  1  0  0  0  0
  2  3  1  0  0  0  0
  3  4  1  0  0  0  0
  4  5  1  0  0  0  0
  5  6  1  0  0  0  0
  6  7  1  0  0  0  0
  7  8  1  0  0  0  0
  4  8  1  0  0  0  0
  7  9  1  0  0  0  0
  9 10  1  0  0  0  0
 10 11  1  0  0  0  0
 11 12  1  0  0  0  0
 12 13  1  0  0  0  0
  7 13  1  0  0  0  0
 13 14  1  0  0  0  0
 14 15  1  0  0  0  0
  6 15  1  0  0  0  0
 13 16  1  0  0  0  0
 10 17  1  0  0  0  0
 17 18  1  0  0  0  0
 17 19  1  0  0  0  0
 17 20  1  0  0  0  0
 20 21  1  0  0  0  0
 21 22  2  0  0  0  0
 21 23  1  0  0  0  0
  6 24  1  0  0  0  0
  1 25  1  0  0  0  0
  1 26  1  0  0  0  0
  1 27  1  0  0  0  0
  2 28  1  0  0  0  0
  2 29  1  0  0  0  0
  4 30  1  0  0  0  0
  5 31  1  0  0  0  0
  5 32  1  0  0  0  0
  9 33  1  0  0  0  0
  9 34  1  0  0  0  0
 10 35  1  0  0  0  0
 11 36  1  0  0  0  0
 11 37  1  0  0  0  0
 12 38  1  0  0  0  0
 12 39  1  0  0  0  0
 14 40  1  0  0  0  0
 14 41  1  0  0  0  0
 16 42  1  0  0  0  0
 16 43  1  0  0  0  0
 16 44  1  0  0  0  0
 18 45  1  0  0  0  0
 18 46  1  0  0  0  0
 18 47  1  0  0  0  0
 19 48  1  0  0  0  0
 19 49  1  0  0  0  0
 19 50  1  0  0  0  0
 23 51  1  0  0  0  0
 23 52  1  0  0  0  0
 23 53  1  0  0  0  0
 24 54  1  0  0  0  0
 24 55  1  0  0  0  0
 24 56  1  0  0  0  0
M  END
$$$$
