C15H9ClO5
APtclcactv06291802463D 0   0.00000     0.00000
 
 30 32  0  0  0  0  0  0  0  0999 V2000
   -3.7594   -1.1114   -0.0092 C   0  0  0  0  0  0  0  0  0  0  0  0
   -5.1176   -0.8834   -0.0136 C   0  0  0  0  0  0  0  0  0  0  0  0
   -5.6058    0.4178   -0.0146 C   0  0  0  0  0  0  0  0  0  0  0  0
   -4.7266    1.4941   -0.0112 C   0  0  0  0  0  0  0  0  0  0  0  0
   -3.3669    1.2751   -0.0072 C   0  0  0  0  0  0  0  0  0  0  0  0
   -2.8715   -0.0319   -0.0057 C   0  0  0  0  0  0  0  0  0  0  0  0
   -1.4160   -0.2713   -0.0010 C   0  0  0  0  0  0  0  0  0  0  0  0
   -0.9642   -1.5543    0.0003 C   0  0  0  0  0  0  0  0  0  0  0  0
    0.4287   -1.8035    0.0048 C   0  0  0  0  0  0  0  0  0  0  0  0
    0.8691   -2.9417    0.0058 O   0  0  0  0  0  0  0  0  0  0  0  0
    1.3261   -0.6358    0.0078 C   0  0  0  0  0  0  0  0  0  0  0  0
    2.7179   -0.7886    0.0118 C   0  0  0  0  0  0  0  0  0  0  0  0
    3.5265    0.3341    0.0140 C   0  0  0  0  0  0  0  0  0  0  0  0
    2.9585    1.6039    0.0124 C   0  0  0  0  0  0  0  0  0  0  0  0
    1.5811    1.7617    0.0089 C   0  0  0  0  0  0  0  0  0  0  0  0
    0.7551    0.6488    0.0061 C   0  0  0  0  0  0  0  0  0  0  0  0
   -0.5880    0.7854   -0.0037 O   0  0  0  0  0  0  0  0  0  0  0  0
    3.7608    2.6993    0.0146 O   0  0  0  0  0  0  0  0  0  0  0  0
    5.2535    0.1577    0.0195 Cl  0  0  0  0  0  0  0  0  0  0  0  0
    3.2697   -2.0288    0.0138 O   0  0  0  0  0  0  0  0  0  0  0  0
   -6.9454    0.6382   -0.0194 O   0  0  0  0  0  0  0  0  0  0  0  0
   -3.3809   -2.1229   -0.0039 H   0  0  0  0  0  0  0  0  0  0  0  0
   -5.8043   -1.7169   -0.0167 H   0  0  0  0  0  0  0  0  0  0  0  0
   -5.1102    2.5037   -0.0120 H   0  0  0  0  0  0  0  0  0  0  0  0
   -2.6843    2.1121   -0.0053 H   0  0  0  0  0  0  0  0  0  0  0  0
   -1.6637   -2.3771   -0.0017 H   0  0  0  0  0  0  0  0  0  0  0  0
    1.1514    2.7526    0.0080 H   0  0  0  0  0  0  0  0  0  0  0  0
    3.9957    3.0166   -0.8681 H   0  0  0  0  0  0  0  0  0  0  0  0
    3.4321   -2.3885   -0.8690 H   0  0  0  0  0  0  0  0  0  0  0  0
   -7.3367    0.7014    0.8626 H   0  0  0  0  0  0  0  0  0  0  0  0
  1  2  2  0  0  0  0
  2  3  1  0  0  0  0
  3  4  2  0  0  0  0
  4  5  1  0  0  0  0
  5  6  2  0  0  0  0
  1  6  1  0  0  0  0
  6  7  1  0  0  0  0
  7  8  2  0  0  0  0
  8  9  1  0  0  0  0
  9 10  2  0  0  0  0
  9 11  1  0  0  0  0
 11 12  2  0  0  0  0
 12 13  1  0  0  0  0
 13 14  2  0  0  0  0
 14 15  1  0  0  0  0
 15 16  2  0  0  0  0
 11 16  1  0  0  0  0
 16 17  1  0  0  0  0
  7 17  1  0  0  0  0
 14 18  1  0  0  0  0
 13 19  1  0  0  0  0
 12 20  1  0  0  0  0
  3 21  1  0  0  0  0
  1 22  1  0  0  0  0
  2 23  1  0  0  0  0
  4 24  1  0  0  0  0
  5 25  1  0  0  0  0
  8 26  1  0  0  0  0
 15 27  1  0  0  0  0
 18 28  1  0  0  0  0
 20 29  1  0  0  0  0
 21 30  1  0  0  0  0
M  END
$$$$
