C10H16O2
APtclcactv06211806463D 0   0.00000     0.00000
 
 28 30  0  0  0  0  0  0  0  0999 V2000
    3.6505    0.3134    0.6128 C   0  0  0  0  0  0  0  0  0  0  0  0
    2.2617    0.2029   -0.0196 C   0  0  0  0  0  0  0  0  0  0  0  0
    1.4039    1.4644    0.0506 C   0  0  0  0  0  0  0  0  0  0  0  0
    0.0227    1.1310    0.6150 C   0  0  0  0  0  0  0  0  0  0  0  0
   -0.5915    0.0070   -0.2269 C   0  0  0  0  0  0  0  0  0  0  0  0
    0.1082   -1.3055    0.1258 C   0  0  0  0  0  0  0  0  0  0  0  0
    1.6127   -1.1721   -0.0527 C   0  0  0  0  0  0  0  0  0  0  0  0
    2.1415   -0.5692   -1.2248 O   0  0  0  0  0  0  0  0  0  0  0  0
   -2.0855   -0.1083    0.0821 C   0  0  0  0  0  0  0  0  0  0  0  0
   -2.9651    1.1149   -0.1841 C   0  0  0  0  0  0  0  0  0  0  0  0
   -2.9991   -0.0472   -1.0150 O   0  0  0  0  0  0  0  0  0  0  0  0
   -2.4511   -1.0052    1.2665 C   0  0  0  0  0  0  0  0  0  0  0  0
    3.6026    0.9686    1.4825 H   0  0  0  0  0  0  0  0  0  0  0  0
    3.9889   -0.6758    0.9213 H   0  0  0  0  0  0  0  0  0  0  0  0
    4.3493    0.7259   -0.1149 H   0  0  0  0  0  0  0  0  0  0  0  0
    1.8904    2.1967    0.6949 H   0  0  0  0  0  0  0  0  0  0  0  0
    1.2940    1.8828   -0.9498 H   0  0  0  0  0  0  0  0  0  0  0  0
    0.1199    0.8020    1.6496 H   0  0  0  0  0  0  0  0  0  0  0  0
   -0.6147    2.0139    0.5676 H   0  0  0  0  0  0  0  0  0  0  0  0
   -0.4500    0.2239   -1.2857 H   0  0  0  0  0  0  0  0  0  0  0  0
   -0.1103   -1.5623    1.1624 H   0  0  0  0  0  0  0  0  0  0  0  0
   -0.2620   -2.0969   -0.5259 H   0  0  0  0  0  0  0  0  0  0  0  0
    2.1980   -1.9915    0.3645 H   0  0  0  0  0  0  0  0  0  0  0  0
   -3.8101    1.2876    0.4824 H   0  0  0  0  0  0  0  0  0  0  0  0
   -2.4847    2.0092   -0.5810 H   0  0  0  0  0  0  0  0  0  0  0  0
   -1.9809   -0.6212    2.1718 H   0  0  0  0  0  0  0  0  0  0  0  0
   -3.5335   -1.0141    1.3950 H   0  0  0  0  0  0  0  0  0  0  0  0
   -2.0995   -2.0193    1.0766 H   0  0  0  0  0  0  0  0  0  0  0  0
  1  2  1  0  0  0  0
  2  3  1  0  0  0  0
  3  4  1  0  0  0  0
  4  5  1  0  0  0  0
  5  6  1  0  0  0  0
  6  7  1  0  0  0  0
  2  7  1  0  0  0  0
  7  8  1  0  0  0  0
  2  8  1  0  0  0  0
  5  9  1  0  0  0  0
  9 10  1  0  0  0  0
 10 11  1  0  0  0  0
  9 11  1  0  0  0  0
  9 12  1  0  0  0  0
  1 13  1  0  0  0  0
  1 14  1  0  0  0  0
  1 15  1  0  0  0  0
  3 16  1  0  0  0  0
  3 17  1  0  0  0  0
  4 18  1  0  0  0  0
  4 19  1  0  0  0  0
  5 20  1  0  0  0  0
  6 21  1  0  0  0  0
  6 22  1  0  0  0  0
  7 23  1  0  0  0  0
 10 24  1  0  0  0  0
 10 25  1  0  0  0  0
 12 26  1  0  0  0  0
 12 27  1  0  0  0  0
 12 28  1  0  0  0  0
M  END
$$$$
