C28H34O15
APtclcactv06211806463D 0   0.00000     0.00000
 
 77 81  0  0  0  0  0  0  0  0999 V2000
    6.2463    0.8718   -2.3578 C   0  0  0  0  0  0  0  0  0  0  0  0
    6.7083    1.3527   -0.9808 C   0  0  0  0  0  0  0  0  0  0  0  0
    6.7096    2.8833   -0.9485 C   0  0  0  0  0  0  0  0  0  0  0  0
    5.2808    3.3920   -1.1632 C   0  0  0  0  0  0  0  0  0  0  0  0
    4.3691    2.7887   -0.0903 C   0  0  0  0  0  0  0  0  0  0  0  0
    4.4582    1.2618   -0.1557 C   0  0  0  0  0  0  0  0  0  0  0  0
    5.8174    0.8572    0.0207 O   0  0  0  0  0  0  0  0  0  0  0  0
    3.6534    0.6927    0.8789 O   0  0  0  0  0  0  0  0  0  0  0  0
    3.5762   -0.7336    0.8372 C   0  0  0  0  0  0  0  0  0  0  0  0
    3.3882   -1.2779    2.2566 C   0  0  0  0  0  0  0  0  0  0  0  0
    3.2288   -2.7999    2.1910 C   0  0  0  0  0  0  0  0  0  0  0  0
    2.0501   -3.1429    1.2763 C   0  0  0  0  0  0  0  0  0  0  0  0
    2.2744   -2.5812   -0.0184 O   0  0  0  0  0  0  0  0  0  0  0  0
    2.3841   -1.1564   -0.0252 C   0  0  0  0  0  0  0  0  0  0  0  0
    1.1864   -0.5837    0.5037 O   0  0  0  0  0  0  0  0  0  0  0  0
    0.0461   -0.7763   -0.2057 C   0  0  0  0  0  0  0  0  0  0  0  0
    0.0868   -1.5043   -1.3882 C   0  0  0  0  0  0  0  0  0  0  0  0
   -1.0718   -1.7086   -2.1166 C   0  0  0  0  0  0  0  0  0  0  0  0
   -2.2843   -1.1773   -1.6503 C   0  0  0  0  0  0  0  0  0  0  0  0
   -3.5302   -1.3894   -2.3952 C   0  0  0  0  0  0  0  0  0  0  0  0
   -3.6022   -2.1923   -3.3025 O   0  0  0  0  0  0  0  0  0  0  0  0
   -4.7250   -0.5534   -1.9726 C   0  0  0  0  0  0  0  0  0  0  0  0
   -4.7122   -0.4858   -0.4385 C   0  0  0  0  0  0  0  0  0  0  0  0
   -3.4820    0.0918   -0.0016 O   0  0  0  0  0  0  0  0  0  0  0  0
   -2.3202   -0.4346   -0.4552 C   0  0  0  0  0  0  0  0  0  0  0  0
   -1.1513   -0.2484    0.2610 C   0  0  0  0  0  0  0  0  0  0  0  0
   -5.8631    0.3628    0.0372 C   0  0  0  0  0  0  0  0  0  0  0  0
   -7.0184   -0.2390    0.5002 C   0  0  0  0  0  0  0  0  0  0  0  0
   -8.0776    0.5398    0.9379 C   0  0  0  0  0  0  0  0  0  0  0  0
   -7.9752    1.9273    0.9102 C   0  0  0  0  0  0  0  0  0  0  0  0
   -6.8144    2.5240    0.4450 C   0  0  0  0  0  0  0  0  0  0  0  0
   -5.7592    1.7412    0.0150 C   0  0  0  0  0  0  0  0  0  0  0  0
   -9.0122    2.6959    1.3384 O   0  0  0  0  0  0  0  0  0  0  0  0
   -8.8363    4.1129    1.2812 C   0  0  0  0  0  0  0  0  0  0  0  0
   -9.2150   -0.0506    1.3932 O   0  0  0  0  0  0  0  0  0  0  0  0
   -1.0359   -2.4166   -3.2727 O   0  0  0  0  0  0  0  0  0  0  0  0
    1.9216   -4.6629    1.1578 C   0  0  0  0  0  0  0  0  0  0  0  0
    0.7535   -4.9845    0.4000 O   0  0  0  0  0  0  0  0  0  0  0  0
    4.4242   -3.3832    1.6685 O   0  0  0  0  0  0  0  0  0  0  0  0
    4.5312   -0.9506    3.0494 O   0  0  0  0  0  0  0  0  0  0  0  0
    4.7889    3.2367    1.2001 O   0  0  0  0  0  0  0  0  0  0  0  0
    5.2605    4.8172   -1.0616 O   0  0  0  0  0  0  0  0  0  0  0  0
    7.1914    3.3337    0.3192 O   0  0  0  0  0  0  0  0  0  0  0  0
    6.9254    1.2506   -3.1216 H   0  0  0  0  0  0  0  0  0  0  0  0
    6.2454   -0.2180   -2.3806 H   0  0  0  0  0  0  0  0  0  0  0  0
    5.2390    1.2401   -2.5521 H   0  0  0  0  0  0  0  0  0  0  0  0
    7.7154    0.9841   -0.7861 H   0  0  0  0  0  0  0  0  0  0  0  0
    7.3546    3.2637   -1.7405 H   0  0  0  0  0  0  0  0  0  0  0  0
    4.9310    3.0905   -2.1506 H   0  0  0  0  0  0  0  0  0  0  0  0
    3.3403    3.1015   -0.2686 H   0  0  0  0  0  0  0  0  0  0  0  0
    4.0996    0.9180   -1.1260 H   0  0  0  0  0  0  0  0  0  0  0  0
    4.4956   -1.1359    0.4116 H   0  0  0  0  0  0  0  0  0  0  0  0
    2.4961   -0.8367    2.7010 H   0  0  0  0  0  0  0  0  0  0  0  0
    3.0393   -3.1898    3.1911 H   0  0  0  0  0  0  0  0  0  0  0  0
    1.1322   -2.7320    1.6968 H   0  0  0  0  0  0  0  0  0  0  0  0
    2.5331   -0.8082   -1.0473 H   0  0  0  0  0  0  0  0  0  0  0  0
    1.0237   -1.9109   -1.7395 H   0  0  0  0  0  0  0  0  0  0  0  0
   -4.6417    0.4504   -2.3892 H   0  0  0  0  0  0  0  0  0  0  0  0
   -5.6467   -1.0233   -2.3157 H   0  0  0  0  0  0  0  0  0  0  0  0
   -4.8075   -1.4915   -0.0292 H   0  0  0  0  0  0  0  0  0  0  0  0
   -1.1689    0.3129    1.1835 H   0  0  0  0  0  0  0  0  0  0  0  0
   -7.0956   -1.3160    0.5203 H   0  0  0  0  0  0  0  0  0  0  0  0
   -6.7323    3.6007    0.4224 H   0  0  0  0  0  0  0  0  0  0  0  0
   -4.8550    2.2075   -0.3474 H   0  0  0  0  0  0  0  0  0  0  0  0
   -7.9852    4.3986    1.8993 H   0  0  0  0  0  0  0  0  0  0  0  0
   -8.6541    4.4151    0.2499 H   0  0  0  0  0  0  0  0  0  0  0  0
   -9.7355    4.6058    1.6507 H   0  0  0  0  0  0  0  0  0  0  0  0
   -9.2119   -0.2298    2.3435 H   0  0  0  0  0  0  0  0  0  0  0  0
   -1.1778   -3.3661   -3.1570 H   0  0  0  0  0  0  0  0  0  0  0  0
    2.8021   -5.0639    0.6559 H   0  0  0  0  0  0  0  0  0  0  0  0
    1.8405   -5.0994    2.1533 H   0  0  0  0  0  0  0  0  0  0  0  0
    0.6087   -5.9336    0.2845 H   0  0  0  0  0  0  0  0  0  0  0  0
    4.3937   -4.3472    1.5991 H   0  0  0  0  0  0  0  0  0  0  0  0
    4.4798   -1.2654    3.9622 H   0  0  0  0  0  0  0  0  0  0  0  0
    4.2546    2.8926    1.9289 H   0  0  0  0  0  0  0  0  0  0  0  0
    4.3850    5.2081   -1.1873 H   0  0  0  0  0  0  0  0  0  0  0  0
    8.0909    3.0437    0.5238 H   0  0  0  0  0  0  0  0  0  0  0  0
  1  2  1  0  0  0  0
  2  3  1  0  0  0  0
  3  4  1  0  0  0  0
  4  5  1  0  0  0  0
  5  6  1  0  0  0  0
  6  7  1  0  0  0  0
  2  7  1  0  0  0  0
  6  8  1  0  0  0  0
  8  9  1  0  0  0  0
  9 10  1  0  0  0  0
 10 11  1  0  0  0  0
 11 12  1  0  0  0  0
 12 13  1  0  0  0  0
 13 14  1  0  0  0  0
  9 14  1  0  0  0  0
 14 15  1  0  0  0  0
 15 16  1  0  0  0  0
 16 17  2  0  0  0  0
 17 18  1  0  0  0  0
 18 19  2  0  0  0  0
 19 20  1  0  0  0  0
 20 21  2  0  0  0  0
 20 22  1  0  0  0  0
 22 23  1  0  0  0  0
 23 24  1  0  0  0  0
 24 25  1  0  0  0  0
 19 25  1  0  0  0  0
 25 26  2  0  0  0  0
 16 26  1  0  0  0  0
 23 27  1  0  0  0  0
 27 28  2  0  0  0  0
 28 29  1  0  0  0  0
 29 30  2  0  0  0  0
 30 31  1  0  0  0  0
 31 32  2  0  0  0  0
 27 32  1  0  0  0  0
 30 33  1  0  0  0  0
 33 34  1  0  0  0  0
 29 35  1  0  0  0  0
 18 36  1  0  0  0  0
 12 37  1  0  0  0  0
 37 38  1  0  0  0  0
 11 39  1  0  0  0  0
 10 40  1  0  0  0  0
  5 41  1  0  0  0  0
  4 42  1  0  0  0  0
  3 43  1  0  0  0  0
  1 44  1  0  0  0  0
  1 45  1  0  0  0  0
  1 46  1  0  0  0  0
  2 47  1  0  0  0  0
  3 48  1  0  0  0  0
  4 49  1  0  0  0  0
  5 50  1  0  0  0  0
  6 51  1  0  0  0  0
  9 52  1  0  0  0  0
 10 53  1  0  0  0  0
 11 54  1  0  0  0  0
 12 55  1  0  0  0  0
 14 56  1  0  0  0  0
 17 57  1  0  0  0  0
 22 58  1  0  0  0  0
 22 59  1  0  0  0  0
 23 60  1  0  0  0  0
 26 61  1  0  0  0  0
 28 62  1  0  0  0  0
 31 63  1  0  0  0  0
 32 64  1  0  0  0  0
 34 65  1  0  0  0  0
 34 66  1  0  0  0  0
 34 67  1  0  0  0  0
 35 68  1  0  0  0  0
 36 69  1  0  0  0  0
 37 70  1  0  0  0  0
 37 71  1  0  0  0  0
 38 72  1  0  0  0  0
 39 73  1  0  0  0  0
 40 74  1  0  0  0  0
 41 75  1  0  0  0  0
 42 76  1  0  0  0  0
 43 77  1  0  0  0  0
M  END
$$$$
