C8H7NS
APtclcactv06211804343D 0   0.00000     0.00000
 
 17 17  0  0  0  0  0  0  0  0999 V2000
   -3.3979    0.6746   -0.3948 C   0  0  0  0  0  0  0  0  0  0  0  0
   -3.1596   -0.6844   -0.4801 C   0  0  0  0  0  0  0  0  0  0  0  0
   -1.9407   -1.1988   -0.0795 C   0  0  0  0  0  0  0  0  0  0  0  0
   -0.9599   -0.3541    0.4059 C   0  0  0  0  0  0  0  0  0  0  0  0
   -1.1979    1.0049    0.4903 C   0  0  0  0  0  0  0  0  0  0  0  0
   -2.4174    1.5192    0.0911 C   0  0  0  0  0  0  0  0  0  0  0  0
    0.3686   -0.9151    0.8435 C   0  0  0  0  0  0  0  0  0  0  0  0
    1.2905   -0.9317   -0.2949 N   0  0  0  0  0  0  0  0  0  0  0  0
    2.3604   -0.2874   -0.2422 C   0  0  0  0  0  0  0  0  0  0  0  0
    3.6901    0.5133   -0.1767 S   0  0  0  0  0  0  0  0  0  0  0  0
   -4.3486    1.0771   -0.7120 H   0  0  0  0  0  0  0  0  0  0  0  0
   -3.9258   -1.3442   -0.8593 H   0  0  0  0  0  0  0  0  0  0  0  0
   -1.7547   -2.2606   -0.1455 H   0  0  0  0  0  0  0  0  0  0  0  0
   -0.4319    1.6647    0.8702 H   0  0  0  0  0  0  0  0  0  0  0  0
   -2.6034    2.5810    0.1574 H   0  0  0  0  0  0  0  0  0  0  0  0
    0.7822   -0.2926    1.6370 H   0  0  0  0  0  0  0  0  0  0  0  0
    0.2299   -1.9309    1.2136 H   0  0  0  0  0  0  0  0  0  0  0  0
  1  2  2  0  0  0  0
  2  3  1  0  0  0  0
  3  4  2  0  0  0  0
  4  5  1  0  0  0  0
  5  6  2  0  0  0  0
  1  6  1  0  0  0  0
  4  7  1  0  0  0  0
  7  8  1  0  0  0  0
  8  9  2  0  0  0  0
  9 10  2  0  0  0  0
  1 11  1  0  0  0  0
  2 12  1  0  0  0  0
  3 13  1  0  0  0  0
  5 14  1  0  0  0  0
  6 15  1  0  0  0  0
  7 16  1  0  0  0  0
  7 17  1  0  0  0  0
M  END
$$$$
