C2H6Se2
APtclcactv06211806123D 0   0.00000     0.00000
 
 10  9  0  0  0  0  0  0  0  0999 V2000
    2.1893    1.1505    0.0000 C   0  0  0  0  0  0  0  0  0  0  0  0
    1.0834   -0.4677   -0.0000 Se  0  0  0  0  0  0  0  0  0  0  0  0
   -1.0834    0.4677   -0.0000 Se  0  0  0  0  0  0  0  0  0  0  0  0
   -2.1893   -1.1505    0.0000 C   0  0  0  0  0  0  0  0  0  0  0  0
    1.9701    1.7404   -0.8900 H   0  0  0  0  0  0  0  0  0  0  0  0
    1.9701    1.7404    0.8900 H   0  0  0  0  0  0  0  0  0  0  0  0
    3.2427    0.8706    0.0000 H   0  0  0  0  0  0  0  0  0  0  0  0
   -1.9701   -1.7404   -0.8900 H   0  0  0  0  0  0  0  0  0  0  0  0
   -1.9701   -1.7404    0.8900 H   0  0  0  0  0  0  0  0  0  0  0  0
   -3.2427   -0.8706    0.0000 H   0  0  0  0  0  0  0  0  0  0  0  0
  1  2  1  0  0  0  0
  2  3  1  0  0  0  0
  3  4  1  0  0  0  0
  1  5  1  0  0  0  0
  1  6  1  0  0  0  0
  1  7  1  0  0  0  0
  4  8  1  0  0  0  0
  4  9  1  0  0  0  0
  4 10  1  0  0  0  0
M  END
$$$$
