C16H32O2
APtclcactv06211806123D 0   0.00000     0.00000
 
 50 49  0  0  0  0  0  0  0  0999 V2000
   10.4381   -0.5467   -0.0000 C   0  0  0  0  0  0  0  0  0  0  0  0
    9.2117    0.3681    0.0000 C   0  0  0  0  0  0  0  0  0  0  0  0
    7.9404   -0.4832   -0.0000 C   0  0  0  0  0  0  0  0  0  0  0  0
    6.7140    0.4316    0.0000 C   0  0  0  0  0  0  0  0  0  0  0  0
    5.4427   -0.4197   -0.0000 C   0  0  0  0  0  0  0  0  0  0  0  0
    4.2163    0.4951    0.0000 C   0  0  0  0  0  0  0  0  0  0  0  0
    2.9451   -0.3562   -0.0000 C   0  0  0  0  0  0  0  0  0  0  0  0
    1.7187    0.5586    0.0000 C   0  0  0  0  0  0  0  0  0  0  0  0
    0.4474   -0.2928   -0.0000 C   0  0  0  0  0  0  0  0  0  0  0  0
   -0.7790    0.6220   -0.0000 C   0  0  0  0  0  0  0  0  0  0  0  0
   -2.0503   -0.2293   -0.0000 C   0  0  0  0  0  0  0  0  0  0  0  0
   -3.2767    0.6855   -0.0000 C   0  0  0  0  0  0  0  0  0  0  0  0
   -4.5480   -0.1658   -0.0000 C   0  0  0  0  0  0  0  0  0  0  0  0
   -5.7744    0.7490   -0.0000 C   0  0  0  0  0  0  0  0  0  0  0  0
   -7.0265   -0.0895   -0.0000 C   0  0  0  0  0  0  0  0  0  0  0  0
   -6.9463   -1.2951    0.0000 O   0  0  0  0  0  0  0  0  0  0  0  0
   -8.2310    0.5030   -0.0000 O   0  0  0  0  0  0  0  0  0  0  0  0
   -9.3935   -0.3670    0.0000 C   0  0  0  0  0  0  0  0  0  0  0  0
   10.4221   -1.1758    0.8900 H   0  0  0  0  0  0  0  0  0  0  0  0
   10.4221   -1.1758   -0.8900 H   0  0  0  0  0  0  0  0  0  0  0  0
   11.3438    0.0598    0.0000 H   0  0  0  0  0  0  0  0  0  0  0  0
    9.2277    0.9972    0.8900 H   0  0  0  0  0  0  0  0  0  0  0  0
    9.2277    0.9972   -0.8900 H   0  0  0  0  0  0  0  0  0  0  0  0
    7.9244   -1.1123   -0.8900 H   0  0  0  0  0  0  0  0  0  0  0  0
    7.9244   -1.1123    0.8900 H   0  0  0  0  0  0  0  0  0  0  0  0
    6.7300    1.0607    0.8900 H   0  0  0  0  0  0  0  0  0  0  0  0
    6.7300    1.0607   -0.8900 H   0  0  0  0  0  0  0  0  0  0  0  0
    5.4267   -1.0488   -0.8900 H   0  0  0  0  0  0  0  0  0  0  0  0
    5.4267   -1.0488    0.8900 H   0  0  0  0  0  0  0  0  0  0  0  0
    4.2323    1.1242    0.8900 H   0  0  0  0  0  0  0  0  0  0  0  0
    4.2323    1.1242   -0.8900 H   0  0  0  0  0  0  0  0  0  0  0  0
    2.9291   -0.9853   -0.8900 H   0  0  0  0  0  0  0  0  0  0  0  0
    2.9291   -0.9853    0.8900 H   0  0  0  0  0  0  0  0  0  0  0  0
    1.7347    1.1877    0.8900 H   0  0  0  0  0  0  0  0  0  0  0  0
    1.7347    1.1877   -0.8900 H   0  0  0  0  0  0  0  0  0  0  0  0
    0.4314   -0.9219   -0.8900 H   0  0  0  0  0  0  0  0  0  0  0  0
    0.4314   -0.9219    0.8900 H   0  0  0  0  0  0  0  0  0  0  0  0
   -0.7630    1.2512    0.8900 H   0  0  0  0  0  0  0  0  0  0  0  0
   -0.7630    1.2512   -0.8900 H   0  0  0  0  0  0  0  0  0  0  0  0
   -2.0663   -0.8584   -0.8900 H   0  0  0  0  0  0  0  0  0  0  0  0
   -2.0663   -0.8584    0.8900 H   0  0  0  0  0  0  0  0  0  0  0  0
   -3.2607    1.3146    0.8900 H   0  0  0  0  0  0  0  0  0  0  0  0
   -3.2607    1.3146   -0.8900 H   0  0  0  0  0  0  0  0  0  0  0  0
   -4.5640   -0.7949   -0.8900 H   0  0  0  0  0  0  0  0  0  0  0  0
   -4.5640   -0.7949    0.8900 H   0  0  0  0  0  0  0  0  0  0  0  0
   -5.7584    1.3781    0.8900 H   0  0  0  0  0  0  0  0  0  0  0  0
   -5.7584    1.3781   -0.8900 H   0  0  0  0  0  0  0  0  0  0  0  0
  -10.3001    0.2381   -0.0000 H   0  0  0  0  0  0  0  0  0  0  0  0
   -9.3766   -0.9961   -0.8900 H   0  0  0  0  0  0  0  0  0  0  0  0
   -9.3766   -0.9961    0.8900 H   0  0  0  0  0  0  0  0  0  0  0  0
  1  2  1  0  0  0  0
  2  3  1  0  0  0  0
  3  4  1  0  0  0  0
  4  5  1  0  0  0  0
  5  6  1  0  0  0  0
  6  7  1  0  0  0  0
  7  8  1  0  0  0  0
  8  9  1  0  0  0  0
  9 10  1  0  0  0  0
 10 11  1  0  0  0  0
 11 12  1  0  0  0  0
 12 13  1  0  0  0  0
 13 14  1  0  0  0  0
 14 15  1  0  0  0  0
 15 16  2  0  0  0  0
 15 17  1  0  0  0  0
 17 18  1  0  0  0  0
  1 19  1  0  0  0  0
  1 20  1  0  0  0  0
  1 21  1  0  0  0  0
  2 22  1  0  0  0  0
  2 23  1  0  0  0  0
  3 24  1  0  0  0  0
  3 25  1  0  0  0  0
  4 26  1  0  0  0  0
  4 27  1  0  0  0  0
  5 28  1  0  0  0  0
  5 29  1  0  0  0  0
  6 30  1  0  0  0  0
  6 31  1  0  0  0  0
  7 32  1  0  0  0  0
  7 33  1  0  0  0  0
  8 34  1  0  0  0  0
  8 35  1  0  0  0  0
  9 36  1  0  0  0  0
  9 37  1  0  0  0  0
 10 38  1  0  0  0  0
 10 39  1  0  0  0  0
 11 40  1  0  0  0  0
 11 41  1  0  0  0  0
 12 42  1  0  0  0  0
 12 43  1  0  0  0  0
 13 44  1  0  0  0  0
 13 45  1  0  0  0  0
 14 46  1  0  0  0  0
 14 47  1  0  0  0  0
 18 48  1  0  0  0  0
 18 49  1  0  0  0  0
 18 50  1  0  0  0  0
M  END
$$$$
