C10H8O3
APtclcactv06211806463D 0   0.00000     0.00000
 
 21 22  0  0  0  0  0  0  0  0999 V2000
   -2.4116   -0.7872   -0.3918 C   0  0  0  0  0  0  0  0  0  0  0  0
   -1.5749   -1.8045    0.3967 C   0  0  0  0  0  0  0  0  0  0  0  0
   -0.1181   -1.6087    0.0383 C   0  0  0  0  0  0  0  0  0  0  0  0
    0.5894   -2.5596   -0.2191 O   0  0  0  0  0  0  0  0  0  0  0  0
    0.4218   -0.2414    0.0082 C   0  0  0  0  0  0  0  0  0  0  0  0
   -0.4694    0.8550   -0.0363 C   0  0  0  0  0  0  0  0  0  0  0  0
   -1.9226    0.6033   -0.0498 C   0  0  0  0  0  0  0  0  0  0  0  0
   -2.7077    1.4906    0.2074 O   0  0  0  0  0  0  0  0  0  0  0  0
    0.0316    2.1506   -0.0661 C   0  0  0  0  0  0  0  0  0  0  0  0
    1.4013    2.3611   -0.0517 C   0  0  0  0  0  0  0  0  0  0  0  0
    2.2778    1.2953   -0.0082 C   0  0  0  0  0  0  0  0  0  0  0  0
    1.8000   -0.0117    0.0218 C   0  0  0  0  0  0  0  0  0  0  0  0
    2.6656   -1.0543    0.0649 O   0  0  0  0  0  0  0  0  0  0  0  0
   -2.2924   -0.9649   -1.4606 H   0  0  0  0  0  0  0  0  0  0  0  0
   -3.4617   -0.8844   -0.1160 H   0  0  0  0  0  0  0  0  0  0  0  0
   -1.7140   -1.6429    1.4657 H   0  0  0  0  0  0  0  0  0  0  0  0
   -1.8842   -2.8158    0.1331 H   0  0  0  0  0  0  0  0  0  0  0  0
   -0.6449    2.9918   -0.1008 H   0  0  0  0  0  0  0  0  0  0  0  0
    1.7871    3.3696   -0.0752 H   0  0  0  0  0  0  0  0  0  0  0  0
    3.3423    1.4771    0.0025 H   0  0  0  0  0  0  0  0  0  0  0  0
    2.9030   -1.3315    0.9604 H   0  0  0  0  0  0  0  0  0  0  0  0
  1  2  1  0  0  0  0
  2  3  1  0  0  0  0
  3  4  2  0  0  0  0
  3  5  1  0  0  0  0
  5  6  2  0  0  0  0
  6  7  1  0  0  0  0
  1  7  1  0  0  0  0
  7  8  2  0  0  0  0
  6  9  1  0  0  0  0
  9 10  2  0  0  0  0
 10 11  1  0  0  0  0
 11 12  2  0  0  0  0
  5 12  1  0  0  0  0
 12 13  1  0  0  0  0
  1 14  1  0  0  0  0
  1 15  1  0  0  0  0
  2 16  1  0  0  0  0
  2 17  1  0  0  0  0
  9 18  1  0  0  0  0
 10 19  1  0  0  0  0
 11 20  1  0  0  0  0
 13 21  1  0  0  0  0
M  END
$$$$
