C30H48O3
APtclcactv06211804343D 0   0.00000     0.00000
 
 81 85  0  0  0  0  0  0  0  0999 V2000
    2.9315    3.2816    0.1669 C   0  0  0  0  0  0  0  0  0  0  0  0
    3.8860    2.1334   -0.0370 C   0  0  0  0  0  0  0  0  0  0  0  0
    4.8626    1.9345    0.8132 C   0  0  0  0  0  0  0  0  0  0  0  0
    3.7182    1.2198   -1.2115 C   0  0  0  0  0  0  0  0  0  0  0  0
    5.0504    0.4697   -1.5062 C   0  0  0  0  0  0  0  0  0  0  0  0
    4.7054   -1.0446   -1.4592 C   0  0  0  0  0  0  0  0  0  0  0  0
    3.5157   -1.0724   -0.4511 C   0  0  0  0  0  0  0  0  0  0  0  0
    2.7103    0.0993   -1.0204 C   0  0  0  0  0  0  0  0  0  0  0  0
    1.3268    0.2981   -0.5372 C   0  0  0  0  0  0  0  0  0  0  0  0
    0.9564    1.5765    0.1835 C   0  0  0  0  0  0  0  0  0  0  0  0
   -0.5798    1.6648    0.2994 C   0  0  0  0  0  0  0  0  0  0  0  0
   -1.2044    0.4645   -0.3968 C   0  0  0  0  0  0  0  0  0  0  0  0
   -2.7121    0.6018   -0.6005 C   0  0  0  0  0  0  0  0  0  0  0  0
   -3.2201    1.8930    0.0438 C   0  0  0  0  0  0  0  0  0  0  0  0
   -4.7236    2.0293   -0.1973 C   0  0  0  0  0  0  0  0  0  0  0  0
   -5.4713    0.8557    0.4202 C   0  0  0  0  0  0  0  0  0  0  0  0
   -4.9798   -0.4892   -0.1180 C   0  0  0  0  0  0  0  0  0  0  0  0
   -3.4625   -0.5890   -0.0366 C   0  0  0  0  0  0  0  0  0  0  0  0
   -2.9291   -1.8970   -0.5929 C   0  0  0  0  0  0  0  0  0  0  0  0
   -1.4124   -2.0292   -0.4527 C   0  0  0  0  0  0  0  0  0  0  0  0
   -0.7715   -0.8410    0.2386 C   0  0  0  0  0  0  0  0  0  0  0  0
    0.7718   -0.9342    0.1725 C   0  0  0  0  0  0  0  0  0  0  0  0
    1.2376   -2.1883   -0.5452 C   0  0  0  0  0  0  0  0  0  0  0  0
    2.7559   -2.3736   -0.4721 C   0  0  0  0  0  0  0  0  0  0  0  0
    1.1994   -0.9807    1.6441 C   0  0  0  0  0  0  0  0  0  0  0  0
   -1.0720   -0.8758    1.7470 C   0  0  0  0  0  0  0  0  0  0  0  0
   -5.5707   -1.5722    0.8201 C   0  0  0  0  0  0  0  0  0  0  0  0
   -5.5413   -0.7467   -1.5096 C   0  0  0  0  0  0  0  0  0  0  0  0
   -5.3062    0.8794    1.8428 O   0  0  0  0  0  0  0  0  0  0  0  0
   -2.9100    0.7169   -2.1249 C   0  0  0  0  0  0  0  0  0  0  0  0
    4.1256   -0.8359    0.9084 C   0  0  0  0  0  0  0  0  0  0  0  0
    3.6991    0.0451    1.6169 O   0  0  0  0  0  0  0  0  0  0  0  0
    5.1420   -1.6041    1.3309 O   0  0  0  0  0  0  0  0  0  0  0  0
    3.4404    4.0875    0.6957 H   0  0  0  0  0  0  0  0  0  0  0  0
    2.5863    3.6435   -0.8015 H   0  0  0  0  0  0  0  0  0  0  0  0
    2.0775    2.9442    0.7542 H   0  0  0  0  0  0  0  0  0  0  0  0
    5.4765    1.0495    0.7331 H   0  0  0  0  0  0  0  0  0  0  0  0
    5.0538    2.6554    1.5943 H   0  0  0  0  0  0  0  0  0  0  0  0
    3.4464    1.8087   -2.0984 H   0  0  0  0  0  0  0  0  0  0  0  0
    5.4099    0.7400   -2.4972 H   0  0  0  0  0  0  0  0  0  0  0  0
    5.7922    0.7164   -0.7520 H   0  0  0  0  0  0  0  0  0  0  0  0
    4.3735   -1.4047   -2.4254 H   0  0  0  0  0  0  0  0  0  0  0  0
    5.5305   -1.6252   -1.0644 H   0  0  0  0  0  0  0  0  0  0  0  0
    2.5301   -0.2275   -2.1110 H   0  0  0  0  0  0  0  0  0  0  0  0
    0.7472    0.3501   -1.5111 H   0  0  0  0  0  0  0  0  0  0  0  0
    1.3935    1.6277    1.1746 H   0  0  0  0  0  0  0  0  0  0  0  0
    1.2859    2.4426   -0.4031 H   0  0  0  0  0  0  0  0  0  0  0  0
   -0.8660    1.7219    1.3419 H   0  0  0  0  0  0  0  0  0  0  0  0
   -0.8946    2.5852   -0.2059 H   0  0  0  0  0  0  0  0  0  0  0  0
   -0.8144    0.4646   -1.4448 H   0  0  0  0  0  0  0  0  0  0  0  0
   -3.0201    1.8732    1.1137 H   0  0  0  0  0  0  0  0  0  0  0  0
   -2.7107    2.7469   -0.4065 H   0  0  0  0  0  0  0  0  0  0  0  0
   -5.0666    2.9575    0.2833 H   0  0  0  0  0  0  0  0  0  0  0  0
   -4.9418    2.1089   -1.2581 H   0  0  0  0  0  0  0  0  0  0  0  0
   -6.5398    0.9532    0.1957 H   0  0  0  0  0  0  0  0  0  0  0  0
   -3.2947   -0.5979    1.0662 H   0  0  0  0  0  0  0  0  0  0  0  0
   -3.3874   -2.7435   -0.0639 H   0  0  0  0  0  0  0  0  0  0  0  0
   -3.1869   -2.0012   -1.6515 H   0  0  0  0  0  0  0  0  0  0  0  0
   -1.1943   -2.9421    0.1155 H   0  0  0  0  0  0  0  0  0  0  0  0
   -0.9819   -2.1485   -1.4541 H   0  0  0  0  0  0  0  0  0  0  0  0
    0.7485   -3.0654   -0.1022 H   0  0  0  0  0  0  0  0  0  0  0  0
    0.9348   -2.1367   -1.5986 H   0  0  0  0  0  0  0  0  0  0  0  0
    3.0852   -2.9664   -1.3426 H   0  0  0  0  0  0  0  0  0  0  0  0
    3.0113   -2.9633    0.4200 H   0  0  0  0  0  0  0  0  0  0  0  0
    0.6816   -1.7973    2.1473 H   0  0  0  0  0  0  0  0  0  0  0  0
    2.2759   -1.1410    1.7048 H   0  0  0  0  0  0  0  0  0  0  0  0
    0.9448   -0.0370    2.1265 H   0  0  0  0  0  0  0  0  0  0  0  0
   -0.7832   -1.8454    2.1528 H   0  0  0  0  0  0  0  0  0  0  0  0
   -0.5076   -0.0895    2.2482 H   0  0  0  0  0  0  0  0  0  0  0  0
   -2.1382   -0.7172    1.9088 H   0  0  0  0  0  0  0  0  0  0  0  0
   -6.6591   -1.5158    0.7999 H   0  0  0  0  0  0  0  0  0  0  0  0
   -5.2517   -2.5584    0.4829 H   0  0  0  0  0  0  0  0  0  0  0  0
   -5.2171   -1.4040    1.8373 H   0  0  0  0  0  0  0  0  0  0  0  0
   -5.2410    0.0606   -2.1776 H   0  0  0  0  0  0  0  0  0  0  0  0
   -5.1556   -1.6935   -1.8876 H   0  0  0  0  0  0  0  0  0  0  0  0
   -6.6293   -0.7914   -1.4599 H   0  0  0  0  0  0  0  0  0  0  0  0
   -5.6394    1.6835    2.2641 H   0  0  0  0  0  0  0  0  0  0  0  0
   -2.7453   -0.2564   -2.5871 H   0  0  0  0  0  0  0  0  0  0  0  0
   -3.9258    1.0517   -2.3351 H   0  0  0  0  0  0  0  0  0  0  0  0
   -2.1989    1.4367   -2.5302 H   0  0  0  0  0  0  0  0  0  0  0  0
    5.4999   -1.4146    2.2090 H   0  0  0  0  0  0  0  0  0  0  0  0
  1  2  1  0  0  0  0
  2  3  2  0  0  0  0
  2  4  1  0  0  0  0
  4  5  1  0  0  0  0
  5  6  1  0  0  0  0
  6  7  1  0  0  0  0
  7  8  1  0  0  0  0
  4  8  1  0  0  0  0
  8  9  1  0  0  0  0
  9 10  1  0  0  0  0
 10 11  1  0  0  0  0
 11 12  1  0  0  0  0
 12 13  1  0  0  0  0
 13 14  1  0  0  0  0
 14 15  1  0  0  0  0
 15 16  1  0  0  0  0
 16 17  1  0  0  0  0
 17 18  1  0  0  0  0
 13 18  1  0  0  0  0
 18 19  1  0  0  0  0
 19 20  1  0  0  0  0
 20 21  1  0  0  0  0
 12 21  1  0  0  0  0
 21 22  1  0  0  0  0
  9 22  1  0  0  0  0
 22 23  1  0  0  0  0
 23 24  1  0  0  0  0
  7 24  1  0  0  0  0
 22 25  1  0  0  0  0
 21 26  1  0  0  0  0
 17 27  1  0  0  0  0
 17 28  1  0  0  0  0
 16 29  1  0  0  0  0
 13 30  1  0  0  0  0
  7 31  1  0  0  0  0
 31 32  2  0  0  0  0
 31 33  1  0  0  0  0
  1 34  1  0  0  0  0
  1 35  1  0  0  0  0
  1 36  1  0  0  0  0
  3 37  1  0  0  0  0
  3 38  1  0  0  0  0
  4 39  1  0  0  0  0
  5 40  1  0  0  0  0
  5 41  1  0  0  0  0
  6 42  1  0  0  0  0
  6 43  1  0  0  0  0
  8 44  1  0  0  0  0
  9 45  1  0  0  0  0
 10 46  1  0  0  0  0
 10 47  1  0  0  0  0
 11 48  1  0  0  0  0
 11 49  1  0  0  0  0
 12 50  1  0  0  0  0
 14 51  1  0  0  0  0
 14 52  1  0  0  0  0
 15 53  1  0  0  0  0
 15 54  1  0  0  0  0
 16 55  1  0  0  0  0
 18 56  1  0  0  0  0
 19 57  1  0  0  0  0
 19 58  1  0  0  0  0
 20 59  1  0  0  0  0
 20 60  1  0  0  0  0
 23 61  1  0  0  0  0
 23 62  1  0  0  0  0
 24 63  1  0  0  0  0
 24 64  1  0  0  0  0
 25 65  1  0  0  0  0
 25 66  1  0  0  0  0
 25 67  1  0  0  0  0
 26 68  1  0  0  0  0
 26 69  1  0  0  0  0
 26 70  1  0  0  0  0
 27 71  1  0  0  0  0
 27 72  1  0  0  0  0
 27 73  1  0  0  0  0
 28 74  1  0  0  0  0
 28 75  1  0  0  0  0
 28 76  1  0  0  0  0
 29 77  1  0  0  0  0
 30 78  1  0  0  0  0
 30 79  1  0  0  0  0
 30 80  1  0  0  0  0
 33 81  1  0  0  0  0
M  END
$$$$
