C6H7NO
APtclcactv06211806123D 0   0.00000     0.00000
 
 15 15  0  0  0  0  0  0  0  0999 V2000
    2.7171    0.4324   -0.0000 C   0  0  0  0  0  0  0  0  0  0  0  0
    1.7823   -0.6485    0.0012 O   0  0  0  0  0  0  0  0  0  0  0  0
    0.4627   -0.3230    0.0009 C   0  0  0  0  0  0  0  0  0  0  0  0
    0.0661    1.0062   -0.0005 C   0  0  0  0  0  0  0  0  0  0  0  0
   -1.2128    1.3266   -0.0007 N   0  0  0  0  0  0  0  0  0  0  0  0
   -2.1588    0.4082    0.0004 C   0  0  0  0  0  0  0  0  0  0  0  0
   -1.8415   -0.9374    0.0022 C   0  0  0  0  0  0  0  0  0  0  0  0
   -0.5095   -1.3183   -0.0038 C   0  0  0  0  0  0  0  0  0  0  0  0
    3.7321    0.0349    0.0003 H   0  0  0  0  0  0  0  0  0  0  0  0
    2.5661    1.0424   -0.8906 H   0  0  0  0  0  0  0  0  0  0  0  0
    2.5662    1.0442    0.8893 H   0  0  0  0  0  0  0  0  0  0  0  0
    0.8126    1.7867   -0.0010 H   0  0  0  0  0  0  0  0  0  0  0  0
   -3.1954    0.7112    0.0002 H   0  0  0  0  0  0  0  0  0  0  0  0
   -2.6229   -1.6830    0.0039 H   0  0  0  0  0  0  0  0  0  0  0  0
   -0.2326   -2.3621   -0.0025 H   0  0  0  0  0  0  0  0  0  0  0  0
  1  2  1  0  0  0  0
  2  3  1  0  0  0  0
  3  4  2  0  0  0  0
  4  5  1  0  0  0  0
  5  6  2  0  0  0  0
  6  7  1  0  0  0  0
  7  8  2  0  0  0  0
  3  8  1  0  0  0  0
  1  9  1  0  0  0  0
  1 10  1  0  0  0  0
  1 11  1  0  0  0  0
  4 12  1  0  0  0  0
  6 13  1  0  0  0  0
  7 14  1  0  0  0  0
  8 15  1  0  0  0  0
M  END
$$$$
