C26H28ClN2O4PS
APtclcactv06291802463D 0   0.00000     0.00000
 
 63 67  0  0  0  0  0  0  0  0999 V2000
   -1.4166    4.3421    2.5646 C   0  0  0  0  0  0  0  0  0  0  0  0
   -0.2090    4.5121    1.8197 O   0  0  0  0  0  0  0  0  0  0  0  0
    0.6170    3.2793    1.1953 P   0  0  0  0  0  0  0  0  0  0  0  0
    0.7287    2.2001    2.2019 O   0  0  0  0  0  0  0  0  0  0  0  0
   -0.1654    2.7122   -0.1298 N   0  0  0  0  0  0  0  0  0  0  0  0
   -0.0440    1.4705   -0.4703 C   0  0  0  0  0  0  0  0  0  0  0  0
    0.8954    0.5310    0.2547 C   0  0  0  0  0  0  0  0  0  0  0  0
    1.5474   -0.3807   -0.7476 C   0  0  0  0  0  0  0  0  0  0  0  0
    1.1484   -0.4950   -1.9918 C   0  0  0  0  0  0  0  0  0  0  0  0
    0.0100    0.2821   -2.5872 C   0  0  0  0  0  0  0  0  0  0  0  0
   -0.7702    0.9247   -1.5145 N   0  0  0  0  0  0  0  0  0  0  0  0
   -2.2333    0.9857   -1.5571 C   0  0  0  0  0  0  0  0  0  0  0  0
   -2.8067   -0.2331   -0.8812 C   0  0  0  0  0  0  0  0  0  0  0  0
   -3.0951   -0.3035    0.4035 C   0  0  0  0  0  0  0  0  0  0  0  0
   -3.6398   -1.5797    0.8392 C   0  0  0  0  0  0  0  0  0  0  0  0
   -4.0488   -1.9850    2.1277 C   0  0  0  0  0  0  0  0  0  0  0  0
   -4.5387   -3.2382    2.3338 C   0  0  0  0  0  0  0  0  0  0  0  0
   -4.6437   -4.1375    1.2816 C   0  0  0  0  0  0  0  0  0  0  0  0
   -4.2522   -3.7696    0.0159 C   0  0  0  0  0  0  0  0  0  0  0  0
   -3.7470   -2.4872   -0.2186 C   0  0  0  0  0  0  0  0  0  0  0  0
   -3.1821   -1.7344   -1.7046 S   0  0  0  0  0  0  0  0  0  0  0  0
   -2.8432    1.0253    1.4919 Cl  0  0  0  0  0  0  0  0  0  0  0  0
    0.5630    1.3529   -3.5298 C   0  0  0  0  0  0  0  0  0  0  0  0
    1.3989    0.8815   -4.7215 C   0  0  0  0  0  0  0  0  0  0  0  0
   -0.0170    1.4169   -4.9441 C   0  0  0  0  0  0  0  0  0  0  0  0
    2.7013   -1.1924   -0.3067 C   0  0  0  0  0  0  0  0  0  0  0  0
    3.8896   -0.5701    0.0776 C   0  0  0  0  0  0  0  0  0  0  0  0
    4.9631   -1.3335    0.4882 C   0  0  0  0  0  0  0  0  0  0  0  0
    4.8632   -2.7130    0.5193 C   0  0  0  0  0  0  0  0  0  0  0  0
    3.6880   -3.3361    0.1391 C   0  0  0  0  0  0  0  0  0  0  0  0
    2.6051   -2.5839   -0.2675 C   0  0  0  0  0  0  0  0  0  0  0  0
    6.0397   -3.5405    0.9688 C   0  0  0  0  0  0  0  0  0  0  0  0
    5.9687   -3.7413    2.3818 O   0  0  0  0  0  0  0  0  0  0  0  0
    2.0898    3.7772    0.7768 O   0  0  0  0  0  0  0  0  0  0  0  0
    3.1645    2.8785    0.4953 C   0  0  0  0  0  0  0  0  0  0  0  0
   -1.7884    5.3166    2.8813 H   0  0  0  0  0  0  0  0  0  0  0  0
   -2.1638    3.8540    1.9389 H   0  0  0  0  0  0  0  0  0  0  0  0
   -1.2187    3.7261    3.4418 H   0  0  0  0  0  0  0  0  0  0  0  0
    1.6603    1.1089    0.7736 H   0  0  0  0  0  0  0  0  0  0  0  0
    0.3331   -0.0623    0.9757 H   0  0  0  0  0  0  0  0  0  0  0  0
    1.6724   -1.1922   -2.6288 H   0  0  0  0  0  0  0  0  0  0  0  0
   -0.6362   -0.3937   -3.1474 H   0  0  0  0  0  0  0  0  0  0  0  0
   -2.5748    1.8824   -1.0401 H   0  0  0  0  0  0  0  0  0  0  0  0
   -2.5656    1.0158   -2.5948 H   0  0  0  0  0  0  0  0  0  0  0  0
   -3.9722   -1.2962    2.9560 H   0  0  0  0  0  0  0  0  0  0  0  0
   -4.8482   -3.5356    3.3249 H   0  0  0  0  0  0  0  0  0  0  0  0
   -5.0337   -5.1291    1.4577 H   0  0  0  0  0  0  0  0  0  0  0  0
   -4.3352   -4.4732   -0.7993 H   0  0  0  0  0  0  0  0  0  0  0  0
    0.8451    2.2941   -3.0580 H   0  0  0  0  0  0  0  0  0  0  0  0
    2.2306    1.5129   -5.0340 H   0  0  0  0  0  0  0  0  0  0  0  0
    1.5547   -0.1914   -4.8340 H   0  0  0  0  0  0  0  0  0  0  0  0
   -0.7927    0.6961   -5.2030 H   0  0  0  0  0  0  0  0  0  0  0  0
   -0.1168    2.4005   -5.4031 H   0  0  0  0  0  0  0  0  0  0  0  0
    3.9690    0.5067    0.0534 H   0  0  0  0  0  0  0  0  0  0  0  0
    5.8836   -0.8531    0.7855 H   0  0  0  0  0  0  0  0  0  0  0  0
    3.6164   -4.4134    0.1653 H   0  0  0  0  0  0  0  0  0  0  0  0
    1.6882   -3.0715   -0.5640 H   0  0  0  0  0  0  0  0  0  0  0  0
    6.0193   -4.5059    0.4631 H   0  0  0  0  0  0  0  0  0  0  0  0
    6.9653   -3.0204    0.7217 H   0  0  0  0  0  0  0  0  0  0  0  0
    6.6962   -4.2672    2.7414 H   0  0  0  0  0  0  0  0  0  0  0  0
    3.4070    2.3096    1.3929 H   0  0  0  0  0  0  0  0  0  0  0  0
    2.8671    2.1941   -0.2993 H   0  0  0  0  0  0  0  0  0  0  0  0
    4.0391    3.4461    0.1775 H   0  0  0  0  0  0  0  0  0  0  0  0
  1  2  1  0  0  0  0
  2  3  1  0  0  0  0
  3  4  2  0  0  0  0
  3  5  1  0  0  0  0
  5  6  2  0  0  0  0
  6  7  1  0  0  0  0
  7  8  1  0  0  0  0
  8  9  2  0  0  0  0
  9 10  1  0  0  0  0
 10 11  1  0  0  0  0
  6 11  1  0  0  0  0
 11 12  1  0  0  0  0
 12 13  1  0  0  0  0
 13 14  2  0  0  0  0
 14 15  1  0  0  0  0
 15 16  2  0  0  0  0
 16 17  1  0  0  0  0
 17 18  2  0  0  0  0
 18 19  1  0  0  0  0
 19 20  2  0  0  0  0
 15 20  1  0  0  0  0
 20 21  1  0  0  0  0
 13 21  1  0  0  0  0
 14 22  1  0  0  0  0
 10 23  1  0  0  0  0
 23 24  1  0  0  0  0
 24 25  1  0  0  0  0
 23 25  1  0  0  0  0
  8 26  1  0  0  0  0
 26 27  2  0  0  0  0
 27 28  1  0  0  0  0
 28 29  2  0  0  0  0
 29 30  1  0  0  0  0
 30 31  2  0  0  0  0
 26 31  1  0  0  0  0
 29 32  1  0  0  0  0
 32 33  1  0  0  0  0
  3 34  1  0  0  0  0
 34 35  1  0  0  0  0
  1 36  1  0  0  0  0
  1 37  1  0  0  0  0
  1 38  1  0  0  0  0
  7 39  1  0  0  0  0
  7 40  1  0  0  0  0
  9 41  1  0  0  0  0
 10 42  1  0  0  0  0
 12 43  1  0  0  0  0
 12 44  1  0  0  0  0
 16 45  1  0  0  0  0
 17 46  1  0  0  0  0
 18 47  1  0  0  0  0
 19 48  1  0  0  0  0
 23 49  1  0  0  0  0
 24 50  1  0  0  0  0
 24 51  1  0  0  0  0
 25 52  1  0  0  0  0
 25 53  1  0  0  0  0
 27 54  1  0  0  0  0
 28 55  1  0  0  0  0
 30 56  1  0  0  0  0
 31 57  1  0  0  0  0
 32 58  1  0  0  0  0
 32 59  1  0  0  0  0
 33 60  1  0  0  0  0
 35 61  1  0  0  0  0
 35 62  1  0  0  0  0
 35 63  1  0  0  0  0
M  END
$$$$
