C18H23NO2
APtclcactv06291802463D 0   0.00000     0.00000
 
 44 45  0  0  0  0  0  0  0  0999 V2000
    9.1055   -0.3071    0.1509 C   0  0  0  0  0  0  0  0  0  0  0  0
    7.6543   -0.4192    0.5413 C   0  0  0  0  0  0  0  0  0  0  0  0
    7.3510   -0.9014    1.6061 O   0  0  0  0  0  0  0  0  0  0  0  0
    6.5815    0.0703   -0.3971 C   0  0  0  0  0  0  0  0  0  0  0  0
    5.2073   -0.1585    0.2354 C   0  0  0  0  0  0  0  0  0  0  0  0
    4.1182    0.3385   -0.7174 C   0  0  0  0  0  0  0  0  0  0  0  0
    2.7440    0.1097   -0.0849 C   0  0  0  0  0  0  0  0  0  0  0  0
    1.6549    0.6067   -1.0376 C   0  0  0  0  0  0  0  0  0  0  0  0
    0.2807    0.3778   -0.4051 C   0  0  0  0  0  0  0  0  0  0  0  0
   -0.8084    0.8748   -1.3579 C   0  0  0  0  0  0  0  0  0  0  0  0
   -2.1620    0.6495   -0.7349 C   0  0  0  0  0  0  0  0  0  0  0  0
   -2.7382    1.6604   -0.0521 C   0  0  0  0  0  0  0  0  0  0  0  0
   -4.0080    1.4804    0.5447 C   0  0  0  0  0  0  0  0  0  0  0  0
   -4.5461    2.3819    1.1662 O   0  0  0  0  0  0  0  0  0  0  0  0
   -4.6595    0.1678    0.3903 C   0  0  0  0  0  0  0  0  0  0  0  0
   -5.9112   -0.0939    0.9462 C   0  0  0  0  0  0  0  0  0  0  0  0
   -6.4818   -1.3253    0.7797 C   0  0  0  0  0  0  0  0  0  0  0  0
   -5.8252   -2.3156    0.0627 C   0  0  0  0  0  0  0  0  0  0  0  0
   -4.5876   -2.0776   -0.4947 C   0  0  0  0  0  0  0  0  0  0  0  0
   -3.9890   -0.8312   -0.3377 C   0  0  0  0  0  0  0  0  0  0  0  0
   -2.7558   -0.5589   -0.8866 N   0  0  0  0  0  0  0  0  0  0  0  0
    9.7287   -0.7097    0.9494 H   0  0  0  0  0  0  0  0  0  0  0  0
    9.2799   -0.8710   -0.7654 H   0  0  0  0  0  0  0  0  0  0  0  0
    9.3576    0.7405   -0.0136 H   0  0  0  0  0  0  0  0  0  0  0  0
    6.7220    1.1346   -0.5859 H   0  0  0  0  0  0  0  0  0  0  0  0
    6.6442   -0.4769   -1.3377 H   0  0  0  0  0  0  0  0  0  0  0  0
    5.0669   -1.2228    0.4242 H   0  0  0  0  0  0  0  0  0  0  0  0
    5.1446    0.3887    1.1760 H   0  0  0  0  0  0  0  0  0  0  0  0
    4.2586    1.4028   -0.9062 H   0  0  0  0  0  0  0  0  0  0  0  0
    4.1809   -0.2087   -1.6580 H   0  0  0  0  0  0  0  0  0  0  0  0
    2.6036   -0.9546    0.1039 H   0  0  0  0  0  0  0  0  0  0  0  0
    2.6813    0.6569    0.8557 H   0  0  0  0  0  0  0  0  0  0  0  0
    1.7953    1.6710   -1.2264 H   0  0  0  0  0  0  0  0  0  0  0  0
    1.7176    0.0594   -1.9782 H   0  0  0  0  0  0  0  0  0  0  0  0
    0.1403   -0.6865   -0.2163 H   0  0  0  0  0  0  0  0  0  0  0  0
    0.2180    0.9251    0.5355 H   0  0  0  0  0  0  0  0  0  0  0  0
   -0.6680    1.9391   -1.5466 H   0  0  0  0  0  0  0  0  0  0  0  0
   -0.7457    0.3276   -2.2985 H   0  0  0  0  0  0  0  0  0  0  0  0
   -2.2291    2.6085    0.0392 H   0  0  0  0  0  0  0  0  0  0  0  0
   -6.4273    0.6721    1.5059 H   0  0  0  0  0  0  0  0  0  0  0  0
   -7.4512   -1.5290    1.2099 H   0  0  0  0  0  0  0  0  0  0  0  0
   -6.2889   -3.2834   -0.0593 H   0  0  0  0  0  0  0  0  0  0  0  0
   -4.0845   -2.8549   -1.0506 H   0  0  0  0  0  0  0  0  0  0  0  0
   -2.2994   -1.2504   -1.3909 H   0  0  0  0  0  0  0  0  0  0  0  0
  1  2  1  0  0  0  0
  2  3  2  0  0  0  0
  2  4  1  0  0  0  0
  4  5  1  0  0  0  0
  5  6  1  0  0  0  0
  6  7  1  0  0  0  0
  7  8  1  0  0  0  0
  8  9  1  0  0  0  0
  9 10  1  0  0  0  0
 10 11  1  0  0  0  0
 11 12  2  0  0  0  0
 12 13  1  0  0  0  0
 13 14  2  0  0  0  0
 13 15  1  0  0  0  0
 15 16  2  0  0  0  0
 16 17  1  0  0  0  0
 17 18  2  0  0  0  0
 18 19  1  0  0  0  0
 19 20  2  0  0  0  0
 15 20  1  0  0  0  0
 20 21  1  0  0  0  0
 11 21  1  0  0  0  0
  1 22  1  0  0  0  0
  1 23  1  0  0  0  0
  1 24  1  0  0  0  0
  4 25  1  0  0  0  0
  4 26  1  0  0  0  0
  5 27  1  0  0  0  0
  5 28  1  0  0  0  0
  6 29  1  0  0  0  0
  6 30  1  0  0  0  0
  7 31  1  0  0  0  0
  7 32  1  0  0  0  0
  8 33  1  0  0  0  0
  8 34  1  0  0  0  0
  9 35  1  0  0  0  0
  9 36  1  0  0  0  0
 10 37  1  0  0  0  0
 10 38  1  0  0  0  0
 12 39  1  0  0  0  0
 16 40  1  0  0  0  0
 17 41  1  0  0  0  0
 18 42  1  0  0  0  0
 19 43  1  0  0  0  0
 21 44  1  0  0  0  0
M  END
$$$$
