C22H24O10
APtclcactv06291802463D 0   0.00000     0.00000
 
 56 59  0  0  0  0  0  0  0  0999 V2000
   -0.6497    2.7101   -1.4879 C   0  0  0  0  0  0  0  0  0  0  0  0
   -0.4320    1.9477   -0.2990 O   0  0  0  0  0  0  0  0  0  0  0  0
   -0.3825    0.5935   -0.4334 C   0  0  0  0  0  0  0  0  0  0  0  0
    0.8339   -0.0358   -0.6808 C   0  0  0  0  0  0  0  0  0  0  0  0
    0.9015   -1.4165   -0.8198 C   0  0  0  0  0  0  0  0  0  0  0  0
   -0.2462   -2.1813   -0.7156 C   0  0  0  0  0  0  0  0  0  0  0  0
   -1.4775   -1.5534   -0.4703 C   0  0  0  0  0  0  0  0  0  0  0  0
   -1.5433   -0.1563   -0.3178 C   0  0  0  0  0  0  0  0  0  0  0  0
   -2.7237    0.4586   -0.0647 O   0  0  0  0  0  0  0  0  0  0  0  0
   -3.9338   -0.2070   -0.4258 C   0  0  0  0  0  0  0  0  0  0  0  0
   -3.9339   -1.6215    0.1718 C   0  0  0  0  0  0  0  0  0  0  0  0
   -2.7116   -2.3402   -0.3682 C   0  0  0  0  0  0  0  0  0  0  0  0
   -2.7539   -3.5053   -0.7057 O   0  0  0  0  0  0  0  0  0  0  0  0
   -5.1117    0.5654    0.1098 C   0  0  0  0  0  0  0  0  0  0  0  0
   -6.2887    0.6202   -0.6130 C   0  0  0  0  0  0  0  0  0  0  0  0
   -7.3692    1.3287   -0.1217 C   0  0  0  0  0  0  0  0  0  0  0  0
   -7.2728    1.9821    1.0927 C   0  0  0  0  0  0  0  0  0  0  0  0
   -6.0961    1.9265    1.8160 C   0  0  0  0  0  0  0  0  0  0  0  0
   -5.0170    1.2144    1.3267 C   0  0  0  0  0  0  0  0  0  0  0  0
   -0.1825   -3.5300   -0.8501 O   0  0  0  0  0  0  0  0  0  0  0  0
    1.9654    0.7068   -0.7878 O   0  0  0  0  0  0  0  0  0  0  0  0
    3.1822    0.0021   -1.0423 C   0  0  0  0  0  0  0  0  0  0  0  0
    4.3188    1.0057   -1.2537 C   0  0  0  0  0  0  0  0  0  0  0  0
    4.5136    1.8221    0.0277 C   0  0  0  0  0  0  0  0  0  0  0  0
    4.7914    0.8660    1.1918 C   0  0  0  0  0  0  0  0  0  0  0  0
    3.6366   -0.1323    1.3087 C   0  0  0  0  0  0  0  0  0  0  0  0
    3.4899   -0.8359    0.0736 O   0  0  0  0  0  0  0  0  0  0  0  0
    3.9349   -1.1284    2.4311 C   0  0  0  0  0  0  0  0  0  0  0  0
    2.8079   -1.9869    2.6180 O   0  0  0  0  0  0  0  0  0  0  0  0
    6.0101    0.1601    0.9496 O   0  0  0  0  0  0  0  0  0  0  0  0
    5.6205    2.7109   -0.1354 O   0  0  0  0  0  0  0  0  0  0  0  0
    5.5249    0.3036   -1.5607 O   0  0  0  0  0  0  0  0  0  0  0  0
    0.1549    2.5154   -2.1969 H   0  0  0  0  0  0  0  0  0  0  0  0
   -1.6030    2.4249   -1.9329 H   0  0  0  0  0  0  0  0  0  0  0  0
   -0.6673    3.7715   -1.2407 H   0  0  0  0  0  0  0  0  0  0  0  0
    1.8517   -1.8933   -1.0099 H   0  0  0  0  0  0  0  0  0  0  0  0
   -4.0036   -0.2709   -1.5117 H   0  0  0  0  0  0  0  0  0  0  0  0
   -3.8770   -1.5652    1.2589 H   0  0  0  0  0  0  0  0  0  0  0  0
   -4.8392   -2.1504   -0.1264 H   0  0  0  0  0  0  0  0  0  0  0  0
   -6.3641    0.1098   -1.5618 H   0  0  0  0  0  0  0  0  0  0  0  0
   -8.2886    1.3722   -0.6868 H   0  0  0  0  0  0  0  0  0  0  0  0
   -8.1168    2.5363    1.4762 H   0  0  0  0  0  0  0  0  0  0  0  0
   -6.0207    2.4373    2.7646 H   0  0  0  0  0  0  0  0  0  0  0  0
   -4.0977    1.1710    1.8917 H   0  0  0  0  0  0  0  0  0  0  0  0
   -0.0314   -4.0013   -0.0194 H   0  0  0  0  0  0  0  0  0  0  0  0
    3.0673   -0.6106   -1.9364 H   0  0  0  0  0  0  0  0  0  0  0  0
    4.0659    1.6743   -2.0766 H   0  0  0  0  0  0  0  0  0  0  0  0
    3.6106    2.3963    0.2350 H   0  0  0  0  0  0  0  0  0  0  0  0
    4.8765    1.4346    2.1178 H   0  0  0  0  0  0  0  0  0  0  0  0
    2.7143    0.4035    1.5336 H   0  0  0  0  0  0  0  0  0  0  0  0
    4.8066   -1.7259    2.1643 H   0  0  0  0  0  0  0  0  0  0  0  0
    4.1353   -0.5856    3.3548 H   0  0  0  0  0  0  0  0  0  0  0  0
    2.9267   -2.6456    3.3159 H   0  0  0  0  0  0  0  0  0  0  0  0
    6.7846    0.7320    0.8596 H   0  0  0  0  0  0  0  0  0  0  0  0
    5.5152    3.3412   -0.8612 H   0  0  0  0  0  0  0  0  0  0  0  0
    5.4718   -0.2390   -2.3593 H   0  0  0  0  0  0  0  0  0  0  0  0
  1  2  1  0  0  0  0
  2  3  1  0  0  0  0
  3  4  2  0  0  0  0
  4  5  1  0  0  0  0
  5  6  2  0  0  0  0
  6  7  1  0  0  0  0
  7  8  2  0  0  0  0
  3  8  1  0  0  0  0
  8  9  1  0  0  0  0
  9 10  1  0  0  0  0
 10 11  1  0  0  0  0
 11 12  1  0  0  0  0
  7 12  1  0  0  0  0
 12 13  2  0  0  0  0
 10 14  1  0  0  0  0
 14 15  2  0  0  0  0
 15 16  1  0  0  0  0
 16 17  2  0  0  0  0
 17 18  1  0  0  0  0
 18 19  2  0  0  0  0
 14 19  1  0  0  0  0
  6 20  1  0  0  0  0
  4 21  1  0  0  0  0
 21 22  1  0  0  0  0
 22 23  1  0  0  0  0
 23 24  1  0  0  0  0
 24 25  1  0  0  0  0
 25 26  1  0  0  0  0
 26 27  1  0  0  0  0
 22 27  1  0  0  0  0
 26 28  1  0  0  0  0
 28 29  1  0  0  0  0
 25 30  1  0  0  0  0
 24 31  1  0  0  0  0
 23 32  1  0  0  0  0
  1 33  1  0  0  0  0
  1 34  1  0  0  0  0
  1 35  1  0  0  0  0
  5 36  1  0  0  0  0
 10 37  1  0  0  0  0
 11 38  1  0  0  0  0
 11 39  1  0  0  0  0
 15 40  1  0  0  0  0
 16 41  1  0  0  0  0
 17 42  1  0  0  0  0
 18 43  1  0  0  0  0
 19 44  1  0  0  0  0
 20 45  1  0  0  0  0
 22 46  1  0  0  0  0
 23 47  1  0  0  0  0
 24 48  1  0  0  0  0
 25 49  1  0  0  0  0
 26 50  1  0  0  0  0
 28 51  1  0  0  0  0
 28 52  1  0  0  0  0
 29 53  1  0  0  0  0
 30 54  1  0  0  0  0
 31 55  1  0  0  0  0
 32 56  1  0  0  0  0
M  END
$$$$
