C7H14O2
APtclcactv06211806153D 0   0.00000     0.00000
 
 23 22  0  0  0  0  0  0  0  0999 V2000
    3.6048   -0.0157   -0.3759 C   0  0  0  0  0  0  0  0  0  0  0  0
    2.2733    0.6241    0.0223 C   0  0  0  0  0  0  0  0  0  0  0  0
    1.1293   -0.3423   -0.2908 C   0  0  0  0  0  0  0  0  0  0  0  0
    1.2587   -1.5879    0.5882 C   0  0  0  0  0  0  0  0  0  0  0  0
   -0.1890    0.3332   -0.0138 C   0  0  0  0  0  0  0  0  0  0  0  0
   -0.2113    1.4709    0.3925 O   0  0  0  0  0  0  0  0  0  0  0  0
   -1.3386   -0.3290   -0.2183 O   0  0  0  0  0  0  0  0  0  0  0  0
   -2.5703    0.3840    0.0697 C   0  0  0  0  0  0  0  0  0  0  0  0
   -3.7659   -0.5252   -0.2217 C   0  0  0  0  0  0  0  0  0  0  0  0
    4.4199    0.6728   -0.1527 H   0  0  0  0  0  0  0  0  0  0  0  0
    3.7460   -0.9397    0.1848 H   0  0  0  0  0  0  0  0  0  0  0  0
    3.5972   -0.2360   -1.4433 H   0  0  0  0  0  0  0  0  0  0  0  0
    2.2809    0.8444    1.0898 H   0  0  0  0  0  0  0  0  0  0  0  0
    2.1321    1.5481   -0.5384 H   0  0  0  0  0  0  0  0  0  0  0  0
    1.1755   -0.6321   -1.3406 H   0  0  0  0  0  0  0  0  0  0  0  0
    0.4437   -2.2764    0.3651 H   0  0  0  0  0  0  0  0  0  0  0  0
    2.2123   -2.0765    0.3878 H   0  0  0  0  0  0  0  0  0  0  0  0
    1.2125   -1.2981    1.6380 H   0  0  0  0  0  0  0  0  0  0  0  0
   -2.5837    0.6766    1.1196 H   0  0  0  0  0  0  0  0  0  0  0  0
   -2.6297    1.2742   -0.5565 H   0  0  0  0  0  0  0  0  0  0  0  0
   -4.6905    0.0100   -0.0055 H   0  0  0  0  0  0  0  0  0  0  0  0
   -3.7524   -0.8178   -1.2716 H   0  0  0  0  0  0  0  0  0  0  0  0
   -3.7064   -1.4154    0.4044 H   0  0  0  0  0  0  0  0  0  0  0  0
  1  2  1  0  0  0  0
  2  3  1  0  0  0  0
  3  4  1  0  0  0  0
  3  5  1  0  0  0  0
  5  6  2  0  0  0  0
  5  7  1  0  0  0  0
  7  8  1  0  0  0  0
  8  9  1  0  0  0  0
  1 10  1  0  0  0  0
  1 11  1  0  0  0  0
  1 12  1  0  0  0  0
  2 13  1  0  0  0  0
  2 14  1  0  0  0  0
  3 15  1  0  0  0  0
  4 16  1  0  0  0  0
  4 17  1  0  0  0  0
  4 18  1  0  0  0  0
  8 19  1  0  0  0  0
  8 20  1  0  0  0  0
  9 21  1  0  0  0  0
  9 22  1  0  0  0  0
  9 23  1  0  0  0  0
M  END
$$$$
