C9H10O4
APtclcactv06211806153D 0   0.00000     0.00000
 
 23 23  0  0  0  0  0  0  0  0999 V2000
    3.1053    0.3038   -1.2482 C   0  0  0  0  0  0  0  0  0  0  0  0
    2.3385    0.2048    0.0453 C   0  0  0  0  0  0  0  0  0  0  0  0
    2.9235    0.2878    1.1055 O   0  0  0  0  0  0  0  0  0  0  0  0
    0.8905    0.0089    0.0231 C   0  0  0  0  0  0  0  0  0  0  0  0
    0.3517   -1.2915    0.0106 C   0  0  0  0  0  0  0  0  0  0  0  0
   -1.0190   -1.4664   -0.0098 C   0  0  0  0  0  0  0  0  0  0  0  0
   -1.8645   -0.3639   -0.0186 C   0  0  0  0  0  0  0  0  0  0  0  0
   -1.3424    0.9237   -0.0064 C   0  0  0  0  0  0  0  0  0  0  0  0
    0.0254    1.1193    0.0200 C   0  0  0  0  0  0  0  0  0  0  0  0
    0.5327    2.3769    0.0322 O   0  0  0  0  0  0  0  0  0  0  0  0
   -3.2088   -0.5458   -0.0396 O   0  0  0  0  0  0  0  0  0  0  0  0
   -4.0224    0.6290   -0.0476 C   0  0  0  0  0  0  0  0  0  0  0  0
    1.1750   -2.3691    0.0182 O   0  0  0  0  0  0  0  0  0  0  0  0
    3.4816   -0.6813   -1.5239 H   0  0  0  0  0  0  0  0  0  0  0  0
    2.4466    0.6740   -2.0338 H   0  0  0  0  0  0  0  0  0  0  0  0
    3.9425    0.9904   -1.1227 H   0  0  0  0  0  0  0  0  0  0  0  0
   -1.4343   -2.4633   -0.0194 H   0  0  0  0  0  0  0  0  0  0  0  0
   -2.0078    1.7743   -0.0137 H   0  0  0  0  0  0  0  0  0  0  0  0
    0.5912    2.7688    0.9143 H   0  0  0  0  0  0  0  0  0  0  0  0
   -3.8204    1.2170    0.8477 H   0  0  0  0  0  0  0  0  0  0  0  0
   -3.7934    1.2235   -0.9320 H   0  0  0  0  0  0  0  0  0  0  0  0
   -5.0740    0.3426   -0.0646 H   0  0  0  0  0  0  0  0  0  0  0  0
    1.4013   -2.6849    0.9037 H   0  0  0  0  0  0  0  0  0  0  0  0
  1  2  1  0  0  0  0
  2  3  2  0  0  0  0
  2  4  1  0  0  0  0
  4  5  2  0  0  0  0
  5  6  1  0  0  0  0
  6  7  2  0  0  0  0
  7  8  1  0  0  0  0
  8  9  2  0  0  0  0
  4  9  1  0  0  0  0
  9 10  1  0  0  0  0
  7 11  1  0  0  0  0
 11 12  1  0  0  0  0
  5 13  1  0  0  0  0
  1 14  1  0  0  0  0
  1 15  1  0  0  0  0
  1 16  1  0  0  0  0
  6 17  1  0  0  0  0
  8 18  1  0  0  0  0
 10 19  1  0  0  0  0
 12 20  1  0  0  0  0
 12 21  1  0  0  0  0
 12 22  1  0  0  0  0
 13 23  1  0  0  0  0
M  END
$$$$
