C11H11ClN6O
APtclcactv06211806463D 0   0.00000     0.00000
 
 30 31  0  0  0  0  0  0  0  0999 V2000
    5.1991    0.5807    0.3915 C   0  0  0  0  0  0  0  0  0  0  0  0
    3.7161    0.8170    0.2652 C   0  0  0  0  0  0  0  0  0  0  0  0
    2.9027   -0.1683   -0.2667 C   0  0  0  0  0  0  0  0  0  0  0  0
    1.5421    0.0459   -0.3836 C   0  0  0  0  0  0  0  0  0  0  0  0
    0.9923    1.2510    0.0338 C   0  0  0  0  0  0  0  0  0  0  0  0
    1.8124    2.2376    0.5677 C   0  0  0  0  0  0  0  0  0  0  0  0
    3.1701    2.0157    0.6863 C   0  0  0  0  0  0  0  0  0  0  0  0
   -0.3826    1.4712   -0.0833 N   0  0  0  0  0  0  0  0  0  0  0  0
   -1.2591    0.4221    0.0432 C   0  0  0  0  0  0  0  0  0  0  0  0
   -0.8333   -0.7872    0.3822 N   0  0  0  0  0  0  0  0  0  0  0  0
   -1.6674   -1.8089    0.5085 C   0  0  0  0  0  0  0  0  0  0  0  0
   -2.9754   -1.7249    0.3136 N   0  0  0  0  0  0  0  0  0  0  0  0
   -3.5567   -0.5840   -0.0302 C   0  0  0  0  0  0  0  0  0  0  0  0
   -2.7026    0.6063   -0.1873 C   0  0  0  0  0  0  0  0  0  0  0  0
   -3.2059    1.7807   -0.5276 N   0  0  0  0  0  0  0  0  0  0  0  0
   -4.3844    2.0179   -0.3320 O   0  0  0  0  0  0  0  0  0  0  0  0
   -4.9125   -0.5127   -0.2286 N   0  0  0  0  0  0  0  0  0  0  0  0
   -1.1444   -3.0296    0.8626 N   0  0  0  0  0  0  0  0  0  0  0  0
    3.5917   -1.6740   -0.7879 Cl  0  0  0  0  0  0  0  0  0  0  0  0
    5.6989    0.9137   -0.5181 H   0  0  0  0  0  0  0  0  0  0  0  0
    5.5849    1.1401    1.2437 H   0  0  0  0  0  0  0  0  0  0  0  0
    5.3862   -0.4828    0.5402 H   0  0  0  0  0  0  0  0  0  0  0  0
    0.9075   -0.7227   -0.7993 H   0  0  0  0  0  0  0  0  0  0  0  0
    1.3877    3.1758    0.8928 H   0  0  0  0  0  0  0  0  0  0  0  0
    3.8075    2.7823    1.1016 H   0  0  0  0  0  0  0  0  0  0  0  0
   -0.7178    2.3653   -0.2541 H   0  0  0  0  0  0  0  0  0  0  0  0
   -5.4778   -1.2639    0.0104 H   0  0  0  0  0  0  0  0  0  0  0  0
   -5.3058    0.2888   -0.6078 H   0  0  0  0  0  0  0  0  0  0  0  0
   -0.1906   -3.1236    1.0121 H   0  0  0  0  0  0  0  0  0  0  0  0
   -1.7290   -3.7970    0.9631 H   0  0  0  0  0  0  0  0  0  0  0  0
  1  2  1  0  0  0  0
  2  3  2  0  0  0  0
  3  4  1  0  0  0  0
  4  5  2  0  0  0  0
  5  6  1  0  0  0  0
  6  7  2  0  0  0  0
  2  7  1  0  0  0  0
  5  8  1  0  0  0  0
  8  9  1  0  0  0  0
  9 10  2  0  0  0  0
 10 11  1  0  0  0  0
 11 12  2  0  0  0  0
 12 13  1  0  0  0  0
 13 14  2  0  0  0  0
  9 14  1  0  0  0  0
 14 15  1  0  0  0  0
 15 16  2  0  0  0  0
 13 17  1  0  0  0  0
 11 18  1  0  0  0  0
  3 19  1  0  0  0  0
  1 20  1  0  0  0  0
  1 21  1  0  0  0  0
  1 22  1  0  0  0  0
  4 23  1  0  0  0  0
  6 24  1  0  0  0  0
  7 25  1  0  0  0  0
  8 26  1  0  0  0  0
 17 27  1  0  0  0  0
 17 28  1  0  0  0  0
 18 29  1  0  0  0  0
 18 30  1  0  0  0  0
M  END
$$$$
