C23H28O10
APtclcactv06211806463D 0   0.00000     0.00000
 
 61 63  0  0  0  0  0  0  0  0999 V2000
   -4.7988   -1.0614    2.4209 C   0  0  0  0  0  0  0  0  0  0  0  0
   -4.8235   -0.0889    1.3741 O   0  0  0  0  0  0  0  0  0  0  0  0
   -3.6291    0.2535    0.8212 C   0  0  0  0  0  0  0  0  0  0  0  0
   -2.4589   -0.3344    1.2771 C   0  0  0  0  0  0  0  0  0  0  0  0
   -1.2445    0.0126    0.7155 C   0  0  0  0  0  0  0  0  0  0  0  0
   -1.1911    0.9464   -0.3023 C   0  0  0  0  0  0  0  0  0  0  0  0
   -2.3567    1.5390   -0.7640 C   0  0  0  0  0  0  0  0  0  0  0  0
   -3.5803    1.1889   -0.2055 C   0  0  0  0  0  0  0  0  0  0  0  0
   -4.7265    1.7682   -0.6558 O   0  0  0  0  0  0  0  0  0  0  0  0
   -5.4019    1.1177   -1.7341 C   0  0  0  0  0  0  0  0  0  0  0  0
   -2.3030    2.4580   -1.7650 O   0  0  0  0  0  0  0  0  0  0  0  0
   -1.0298    2.6792   -2.3750 C   0  0  0  0  0  0  0  0  0  0  0  0
    0.0248   -0.6285    1.2144 C   0  0  0  0  0  0  0  0  0  0  0  0
    0.0831   -2.0751    0.7281 C   0  0  0  0  0  0  0  0  0  0  0  0
    0.2939   -2.0661   -0.7906 C   0  0  0  0  0  0  0  0  0  0  0  0
    1.7112   -1.5745   -1.0770 C   0  0  0  0  0  0  0  0  0  0  0  0
    1.9803   -0.2814   -0.3523 C   0  0  0  0  0  0  0  0  0  0  0  0
    3.0546    0.4873   -0.7823 C   0  0  0  0  0  0  0  0  0  0  0  0
    3.3594    1.6824   -0.1572 C   0  0  0  0  0  0  0  0  0  0  0  0
    2.5820    2.1171    0.9120 C   0  0  0  0  0  0  0  0  0  0  0  0
    1.5123    1.3500    1.3354 C   0  0  0  0  0  0  0  0  0  0  0  0
    1.2088    0.1506    0.7038 C   0  0  0  0  0  0  0  0  0  0  0  0
    2.8730    3.2892    1.5372 O   0  0  0  0  0  0  0  0  0  0  0  0
    2.0304    3.6700    2.6268 C   0  0  0  0  0  0  0  0  0  0  0  0
    4.4126    2.4289   -0.5851 O   0  0  0  0  0  0  0  0  0  0  0  0
    5.1639    1.9184   -1.6883 C   0  0  0  0  0  0  0  0  0  0  0  0
    2.6490   -2.5617   -0.6432 O   0  0  0  0  0  0  0  0  0  0  0  0
    0.1178   -3.4818   -1.3437 C   0  0  0  0  0  0  0  0  0  0  0  0
    0.4288   -3.4903   -2.7384 O   0  0  0  0  0  0  0  0  0  0  0  0
   -0.6530   -1.1883   -1.4028 O   0  0  0  0  0  0  0  0  0  0  0  0
    1.2302   -2.7892    1.3955 C   0  0  0  0  0  0  0  0  0  0  0  0
    2.1426   -2.1549    1.8700 O   0  0  0  0  0  0  0  0  0  0  0  0
    1.2382   -4.1297    1.4630 O   0  0  0  0  0  0  0  0  0  0  0  0
   -4.1894   -0.6919    3.2457 H   0  0  0  0  0  0  0  0  0  0  0  0
   -5.8145   -1.2427    2.7723 H   0  0  0  0  0  0  0  0  0  0  0  0
   -4.3736   -1.9912    2.0430 H   0  0  0  0  0  0  0  0  0  0  0  0
   -2.4964   -1.0642    2.0724 H   0  0  0  0  0  0  0  0  0  0  0  0
   -0.2402    1.2151   -0.7383 H   0  0  0  0  0  0  0  0  0  0  0  0
   -4.7404    1.0662   -2.5989 H   0  0  0  0  0  0  0  0  0  0  0  0
   -5.6829    0.1091   -1.4311 H   0  0  0  0  0  0  0  0  0  0  0  0
   -6.2975    1.6816   -1.9948 H   0  0  0  0  0  0  0  0  0  0  0  0
   -0.3335    3.0677   -1.6319 H   0  0  0  0  0  0  0  0  0  0  0  0
   -0.6492    1.7385   -2.7729 H   0  0  0  0  0  0  0  0  0  0  0  0
   -1.1357    3.4002   -3.1856 H   0  0  0  0  0  0  0  0  0  0  0  0
    0.0296   -0.6154    2.3044 H   0  0  0  0  0  0  0  0  0  0  0  0
   -0.8529   -2.5805    0.9659 H   0  0  0  0  0  0  0  0  0  0  0  0
    1.8270   -1.4164   -2.1492 H   0  0  0  0  0  0  0  0  0  0  0  0
    3.6571    0.1484   -1.6120 H   0  0  0  0  0  0  0  0  0  0  0  0
    0.9075    1.6863    2.1646 H   0  0  0  0  0  0  0  0  0  0  0  0
    1.0044    3.7732    2.2737 H   0  0  0  0  0  0  0  0  0  0  0  0
    2.0725    2.9058    3.4029 H   0  0  0  0  0  0  0  0  0  0  0  0
    2.3718    4.6213    3.0348 H   0  0  0  0  0  0  0  0  0  0  0  0
    5.9728    2.6088   -1.9275 H   0  0  0  0  0  0  0  0  0  0  0  0
    5.5815    0.9467   -1.4249 H   0  0  0  0  0  0  0  0  0  0  0  0
    4.5104    1.8105   -2.5540 H   0  0  0  0  0  0  0  0  0  0  0  0
    3.5730   -2.3191   -0.7929 H   0  0  0  0  0  0  0  0  0  0  0  0
    0.7870   -4.1630   -0.8181 H   0  0  0  0  0  0  0  0  0  0  0  0
   -0.9139   -3.8025   -1.1995 H   0  0  0  0  0  0  0  0  0  0  0  0
    0.3386   -4.3577   -3.1562 H   0  0  0  0  0  0  0  0  0  0  0  0
   -0.6160   -1.1819   -2.3691 H   0  0  0  0  0  0  0  0  0  0  0  0
    1.9951   -4.5428    1.9007 H   0  0  0  0  0  0  0  0  0  0  0  0
  1  2  1  0  0  0  0
  2  3  1  0  0  0  0
  3  4  2  0  0  0  0
  4  5  1  0  0  0  0
  5  6  2  0  0  0  0
  6  7  1  0  0  0  0
  7  8  2  0  0  0  0
  3  8  1  0  0  0  0
  8  9  1  0  0  0  0
  9 10  1  0  0  0  0
  7 11  1  0  0  0  0
 11 12  1  0  0  0  0
  5 13  1  0  0  0  0
 13 14  1  0  0  0  0
 14 15  1  0  0  0  0
 15 16  1  0  0  0  0
 16 17  1  0  0  0  0
 17 18  2  0  0  0  0
 18 19  1  0  0  0  0
 19 20  2  0  0  0  0
 20 21  1  0  0  0  0
 21 22  2  0  0  0  0
 13 22  1  0  0  0  0
 17 22  1  0  0  0  0
 20 23  1  0  0  0  0
 23 24  1  0  0  0  0
 19 25  1  0  0  0  0
 25 26  1  0  0  0  0
 16 27  1  0  0  0  0
 15 28  1  0  0  0  0
 28 29  1  0  0  0  0
 15 30  1  0  0  0  0
 14 31  1  0  0  0  0
 31 32  2  0  0  0  0
 31 33  1  0  0  0  0
  1 34  1  0  0  0  0
  1 35  1  0  0  0  0
  1 36  1  0  0  0  0
  4 37  1  0  0  0  0
  6 38  1  0  0  0  0
 10 39  1  0  0  0  0
 10 40  1  0  0  0  0
 10 41  1  0  0  0  0
 12 42  1  0  0  0  0
 12 43  1  0  0  0  0
 12 44  1  0  0  0  0
 13 45  1  0  0  0  0
 14 46  1  0  0  0  0
 16 47  1  0  0  0  0
 18 48  1  0  0  0  0
 21 49  1  0  0  0  0
 24 50  1  0  0  0  0
 24 51  1  0  0  0  0
 24 52  1  0  0  0  0
 26 53  1  0  0  0  0
 26 54  1  0  0  0  0
 26 55  1  0  0  0  0
 27 56  1  0  0  0  0
 28 57  1  0  0  0  0
 28 58  1  0  0  0  0
 29 59  1  0  0  0  0
 30 60  1  0  0  0  0
 33 61  1  0  0  0  0
M  END
$$$$
