C6H10O5
APtclcactv06211806463D 0   0.00000     0.00000
 
 21 21  0  0  0  0  0  0  0  0999 V2000
   -2.9016    1.2989    0.1571 C   0  0  0  0  0  0  0  0  0  0  0  0
   -2.0456    0.1546   -0.3894 C   0  0  0  0  0  0  0  0  0  0  0  0
   -0.7091    0.1174    0.3543 C   0  0  0  0  0  0  0  0  0  0  0  0
    0.1658   -1.0324   -0.1862 C   0  0  0  0  0  0  0  0  0  0  0  0
    1.4264   -0.3014   -0.7005 C   0  0  0  0  0  0  0  0  0  0  0  0
    1.3387    1.0635   -0.0422 C   0  0  0  0  0  0  0  0  0  0  0  0
    2.2677    1.7646    0.2825 O   0  0  0  0  0  0  0  0  0  0  0  0
    0.0325    1.3464    0.1113 O   0  0  0  0  0  0  0  0  0  0  0  0
    2.6098   -0.9856   -0.2839 O   0  0  0  0  0  0  0  0  0  0  0  0
    0.5031   -1.9452    0.8603 O   0  0  0  0  0  0  0  0  0  0  0  0
   -2.7307   -1.0851   -0.2002 O   0  0  0  0  0  0  0  0  0  0  0  0
   -2.3791    2.2446    0.0129 H   0  0  0  0  0  0  0  0  0  0  0  0
   -3.8538    1.3255   -0.3727 H   0  0  0  0  0  0  0  0  0  0  0  0
   -3.0819    1.1420    1.2206 H   0  0  0  0  0  0  0  0  0  0  0  0
   -1.8654    0.3116   -1.4529 H   0  0  0  0  0  0  0  0  0  0  0  0
   -0.8794   -0.0127    1.4231 H   0  0  0  0  0  0  0  0  0  0  0  0
   -0.3391   -1.5498   -1.0020 H   0  0  0  0  0  0  0  0  0  0  0  0
    1.3989   -0.2063   -1.7859 H   0  0  0  0  0  0  0  0  0  0  0  0
    3.4303   -0.5684   -0.5802 H   0  0  0  0  0  0  0  0  0  0  0  0
    1.0527   -2.6872    0.5731 H   0  0  0  0  0  0  0  0  0  0  0  0
   -3.5881   -1.1325   -0.6449 H   0  0  0  0  0  0  0  0  0  0  0  0
  1  2  1  0  0  0  0
  2  3  1  0  0  0  0
  3  4  1  0  0  0  0
  4  5  1  0  0  0  0
  5  6  1  0  0  0  0
  6  7  2  0  0  0  0
  6  8  1  0  0  0  0
  3  8  1  0  0  0  0
  5  9  1  0  0  0  0
  4 10  1  0  0  0  0
  2 11  1  0  0  0  0
  1 12  1  0  0  0  0
  1 13  1  0  0  0  0
  1 14  1  0  0  0  0
  2 15  1  0  0  0  0
  3 16  1  0  0  0  0
  4 17  1  0  0  0  0
  5 18  1  0  0  0  0
  9 19  1  0  0  0  0
 10 20  1  0  0  0  0
 11 21  1  0  0  0  0
M  END
$$$$
