O2Si
APtclcactv06211806153D 0   0.00000     0.00000
 
  3  2  0  0  0  0  0  0  0  0999 V2000
   -1.4935   -0.0000   -0.0000 O   0  0  0  0  0  0  0  0  0  0  0  0
   -0.0000    0.0000    0.0000 Si  0  0  0  0  0  0  0  0  0  0  0  0
    1.4935   -0.0000   -0.0000 O   0  0  0  0  0  0  0  0  0  0  0  0
  1  2  2  0  0  0  0
  2  3  2  0  0  0  0
M  END
$$$$
