C7H8O
APtclcactv06201815303D 0   0.00000     0.00000
 
 16 16  0  0  0  0  0  0  0  0999 V2000
   -2.2781   -0.0002   -0.2173 C   0  0  0  0  0  0  0  0  0  0  0  0
   -1.5984   -1.1973   -0.0911 C   0  0  0  0  0  0  0  0  0  0  0  0
   -0.2394   -1.1971    0.1618 C   0  0  0  0  0  0  0  0  0  0  0  0
    0.4400    0.0002    0.2879 C   0  0  0  0  0  0  0  0  0  0  0  0
   -0.2395    1.1972    0.1608 C   0  0  0  0  0  0  0  0  0  0  0  0
   -1.5988    1.1970   -0.0906 C   0  0  0  0  0  0  0  0  0  0  0  0
    1.9214    0.0004    0.5646 C   0  0  0  0  0  0  0  0  0  0  0  0
    2.6370   -0.0003   -0.6724 O   0  0  0  0  0  0  0  0  0  0  0  0
   -3.3391   -0.0003   -0.4193 H   0  0  0  0  0  0  0  0  0  0  0  0
   -2.1292   -2.1326   -0.1897 H   0  0  0  0  0  0  0  0  0  0  0  0
    0.2915   -2.1323    0.2611 H   0  0  0  0  0  0  0  0  0  0  0  0
    0.2911    2.1326    0.2601 H   0  0  0  0  0  0  0  0  0  0  0  0
   -2.1298    2.1323   -0.1896 H   0  0  0  0  0  0  0  0  0  0  0  0
    2.1842    0.8907    1.1359 H   0  0  0  0  0  0  0  0  0  0  0  0
    2.1843   -0.8892    1.1369 H   0  0  0  0  0  0  0  0  0  0  0  0
    3.5986   -0.0002   -0.5705 H   0  0  0  0  0  0  0  0  0  0  0  0
  1  2  2  0  0  0  0
  2  3  1  0  0  0  0
  3  4  2  0  0  0  0
  4  5  1  0  0  0  0
  5  6  2  0  0  0  0
  1  6  1  0  0  0  0
  4  7  1  0  0  0  0
  7  8  1  0  0  0  0
  1  9  1  0  0  0  0
  2 10  1  0  0  0  0
  3 11  1  0  0  0  0
  5 12  1  0  0  0  0
  6 13  1  0  0  0  0
  7 14  1  0  0  0  0
  7 15  1  0  0  0  0
  8 16  1  0  0  0  0
M  END
$$$$
