C30H50O
APtclcactv06211806463D 0   0.00000     0.00000
 
 81 85  0  0  0  0  0  0  0  0999 V2000
    5.4860   -0.4971   -1.4535 C   0  0  0  0  0  0  0  0  0  0  0  0
    5.0795   -0.4664    0.0081 C   0  0  0  0  0  0  0  0  0  0  0  0
    5.4691    0.8503    0.6496 C   0  0  0  0  0  0  0  0  0  0  0  0
    6.3825    0.8865    1.4460 O   0  0  0  0  0  0  0  0  0  0  0  0
    4.7217    2.1134    0.2931 C   0  0  0  0  0  0  0  0  0  0  0  0
    3.2059    1.8648    0.3877 C   0  0  0  0  0  0  0  0  0  0  0  0
    2.8893    0.5986   -0.3843 C   0  0  0  0  0  0  0  0  0  0  0  0
    3.5530   -0.6269    0.2099 C   0  0  0  0  0  0  0  0  0  0  0  0
    3.0694   -1.9134   -0.4384 C   0  0  0  0  0  0  0  0  0  0  0  0
    1.5424   -2.0668   -0.4045 C   0  0  0  0  0  0  0  0  0  0  0  0
    0.8738   -0.7785    0.0187 C   0  0  0  0  0  0  0  0  0  0  0  0
    1.4054    0.4164   -0.7355 C   0  0  0  0  0  0  0  0  0  0  0  0
    0.6153    1.6654   -0.3918 C   0  0  0  0  0  0  0  0  0  0  0  0
   -0.8957    1.5277   -0.4959 C   0  0  0  0  0  0  0  0  0  0  0  0
   -1.4304    0.1088   -0.6092 C   0  0  0  0  0  0  0  0  0  0  0  0
   -0.6314   -0.8518    0.2490 C   0  0  0  0  0  0  0  0  0  0  0  0
   -1.1350   -2.2782    0.0848 C   0  0  0  0  0  0  0  0  0  0  0  0
   -2.6425   -2.4145   -0.0839 C   0  0  0  0  0  0  0  0  0  0  0  0
   -3.4397   -1.2048    0.3610 C   0  0  0  0  0  0  0  0  0  0  0  0
   -2.9109    0.0702   -0.2622 C   0  0  0  0  0  0  0  0  0  0  0  0
   -3.5373    1.2966    0.3518 C   0  0  0  0  0  0  0  0  0  0  0  0
   -5.0533    1.2625    0.1280 C   0  0  0  0  0  0  0  0  0  0  0  0
   -5.6869   -0.1033    0.3171 C   0  0  0  0  0  0  0  0  0  0  0  0
   -4.8855   -1.2900   -0.1987 C   0  0  0  0  0  0  0  0  0  0  0  0
   -5.6953    2.2390    1.1344 C   0  0  0  0  0  0  0  0  0  0  0  0
   -5.3635    1.7828   -1.2834 C   0  0  0  0  0  0  0  0  0  0  0  0
   -3.5983   -1.1716    1.8775 C   0  0  0  0  0  0  0  0  0  0  0  0
   -0.7520   -0.4333    1.7376 C   0  0  0  0  0  0  0  0  0  0  0  0
   -1.4188   -0.3404   -2.0886 C   0  0  0  0  0  0  0  0  0  0  0  0
    1.4353    0.2040   -2.2601 C   0  0  0  0  0  0  0  0  0  0  0  0
    3.3955   -0.7115    1.7384 C   0  0  0  0  0  0  0  0  0  0  0  0
    6.5661   -0.3745   -1.5329 H   0  0  0  0  0  0  0  0  0  0  0  0
    5.1955   -1.4521   -1.8914 H   0  0  0  0  0  0  0  0  0  0  0  0
    4.9882    0.3132   -1.9862 H   0  0  0  0  0  0  0  0  0  0  0  0
    5.5777   -1.2789    0.5475 H   0  0  0  0  0  0  0  0  0  0  0  0
    4.9951    2.9106    0.9864 H   0  0  0  0  0  0  0  0  0  0  0  0
    4.9715    2.4184   -0.7236 H   0  0  0  0  0  0  0  0  0  0  0  0
    2.9026    1.8078    1.4242 H   0  0  0  0  0  0  0  0  0  0  0  0
    2.6992    2.7192   -0.0789 H   0  0  0  0  0  0  0  0  0  0  0  0
    3.3593    0.7599   -1.3960 H   0  0  0  0  0  0  0  0  0  0  0  0
    3.3873   -1.9717   -1.4811 H   0  0  0  0  0  0  0  0  0  0  0  0
    3.5059   -2.7695    0.0931 H   0  0  0  0  0  0  0  0  0  0  0  0
    1.1997   -2.3793   -1.3934 H   0  0  0  0  0  0  0  0  0  0  0  0
    1.2963   -2.8670    0.3034 H   0  0  0  0  0  0  0  0  0  0  0  0
    1.1925   -0.6028    1.0900 H   0  0  0  0  0  0  0  0  0  0  0  0
    0.8654    1.9782    0.6332 H   0  0  0  0  0  0  0  0  0  0  0  0
    0.9363    2.4829   -1.0555 H   0  0  0  0  0  0  0  0  0  0  0  0
   -1.3449    2.0120    0.3849 H   0  0  0  0  0  0  0  0  0  0  0  0
   -1.2390    2.1021   -1.3707 H   0  0  0  0  0  0  0  0  0  0  0  0
   -0.6452   -2.7385   -0.7846 H   0  0  0  0  0  0  0  0  0  0  0  0
   -0.8271   -2.8636    0.9639 H   0  0  0  0  0  0  0  0  0  0  0  0
   -2.8678   -2.6354   -1.1356 H   0  0  0  0  0  0  0  0  0  0  0  0
   -2.9765   -3.2911    0.4951 H   0  0  0  0  0  0  0  0  0  0  0  0
   -3.3776    0.0357   -1.3098 H   0  0  0  0  0  0  0  0  0  0  0  0
   -3.3238    1.3837    1.4135 H   0  0  0  0  0  0  0  0  0  0  0  0
   -3.1496    2.2008   -0.1409 H   0  0  0  0  0  0  0  0  0  0  0  0
   -5.9505   -0.2487    1.3701 H   0  0  0  0  0  0  0  0  0  0  0  0
   -6.6565   -0.1003   -0.2228 H   0  0  0  0  0  0  0  0  0  0  0  0
   -4.8376   -1.2793   -1.2830 H   0  0  0  0  0  0  0  0  0  0  0  0
   -5.3277   -2.2223    0.1478 H   0  0  0  0  0  0  0  0  0  0  0  0
   -5.3084    3.2436    0.9632 H   0  0  0  0  0  0  0  0  0  0  0  0
   -6.7771    2.2387    1.0014 H   0  0  0  0  0  0  0  0  0  0  0  0
   -5.4539    1.9249    2.1499 H   0  0  0  0  0  0  0  0  0  0  0  0
   -4.8692    1.1501   -2.0206 H   0  0  0  0  0  0  0  0  0  0  0  0
   -6.4405    1.7614   -1.4499 H   0  0  0  0  0  0  0  0  0  0  0  0
   -5.0009    2.8060   -1.3812 H   0  0  0  0  0  0  0  0  0  0  0  0
   -2.6492   -1.4287    2.3479 H   0  0  0  0  0  0  0  0  0  0  0  0
   -3.8994   -0.1716    2.1896 H   0  0  0  0  0  0  0  0  0  0  0  0
   -4.3598   -1.8909    2.1790 H   0  0  0  0  0  0  0  0  0  0  0  0
   -1.7747   -0.1181    1.9447 H   0  0  0  0  0  0  0  0  0  0  0  0
   -0.4966   -1.2799    2.3749 H   0  0  0  0  0  0  0  0  0  0  0  0
   -0.0695    0.3923    1.9394 H   0  0  0  0  0  0  0  0  0  0  0  0
   -0.4427   -0.7591   -2.3335 H   0  0  0  0  0  0  0  0  0  0  0  0
   -2.1881   -1.0966   -2.2448 H   0  0  0  0  0  0  0  0  0  0  0  0
   -1.6174    0.5179   -2.7305 H   0  0  0  0  0  0  0  0  0  0  0  0
    0.4529    0.4256   -2.6771 H   0  0  0  0  0  0  0  0  0  0  0  0
    2.1770    0.8674   -2.7049 H   0  0  0  0  0  0  0  0  0  0  0  0
    1.6971   -0.8315   -2.4775 H   0  0  0  0  0  0  0  0  0  0  0  0
    2.3411   -0.6230    2.0004 H   0  0  0  0  0  0  0  0  0  0  0  0
    3.7783   -1.6693    2.0907 H   0  0  0  0  0  0  0  0  0  0  0  0
    3.9554    0.0980    2.2067 H   0  0  0  0  0  0  0  0  0  0  0  0
  1  2  1  0  0  0  0
  2  3  1  0  0  0  0
  3  4  2  0  0  0  0
  3  5  1  0  0  0  0
  5  6  1  0  0  0  0
  6  7  1  0  0  0  0
  7  8  1  0  0  0  0
  2  8  1  0  0  0  0
  8  9  1  0  0  0  0
  9 10  1  0  0  0  0
 10 11  1  0  0  0  0
 11 12  1  0  0  0  0
  7 12  1  0  0  0  0
 12 13  1  0  0  0  0
 13 14  1  0  0  0  0
 14 15  1  0  0  0  0
 15 16  1  0  0  0  0
 11 16  1  0  0  0  0
 16 17  1  0  0  0  0
 17 18  1  0  0  0  0
 18 19  1  0  0  0  0
 19 20  1  0  0  0  0
 15 20  1  0  0  0  0
 20 21  1  0  0  0  0
 21 22  1  0  0  0  0
 22 23  1  0  0  0  0
 23 24  1  0  0  0  0
 19 24  1  0  0  0  0
 22 25  1  0  0  0  0
 22 26  1  0  0  0  0
 19 27  1  0  0  0  0
 16 28  1  0  0  0  0
 15 29  1  0  0  0  0
 12 30  1  0  0  0  0
  8 31  1  0  0  0  0
  1 32  1  0  0  0  0
  1 33  1  0  0  0  0
  1 34  1  0  0  0  0
  2 35  1  0  0  0  0
  5 36  1  0  0  0  0
  5 37  1  0  0  0  0
  6 38  1  0  0  0  0
  6 39  1  0  0  0  0
  7 40  1  0  0  0  0
  9 41  1  0  0  0  0
  9 42  1  0  0  0  0
 10 43  1  0  0  0  0
 10 44  1  0  0  0  0
 11 45  1  0  0  0  0
 13 46  1  0  0  0  0
 13 47  1  0  0  0  0
 14 48  1  0  0  0  0
 14 49  1  0  0  0  0
 17 50  1  0  0  0  0
 17 51  1  0  0  0  0
 18 52  1  0  0  0  0
 18 53  1  0  0  0  0
 20 54  1  0  0  0  0
 21 55  1  0  0  0  0
 21 56  1  0  0  0  0
 23 57  1  0  0  0  0
 23 58  1  0  0  0  0
 24 59  1  0  0  0  0
 24 60  1  0  0  0  0
 25 61  1  0  0  0  0
 25 62  1  0  0  0  0
 25 63  1  0  0  0  0
 26 64  1  0  0  0  0
 26 65  1  0  0  0  0
 26 66  1  0  0  0  0
 27 67  1  0  0  0  0
 27 68  1  0  0  0  0
 27 69  1  0  0  0  0
 28 70  1  0  0  0  0
 28 71  1  0  0  0  0
 28 72  1  0  0  0  0
 29 73  1  0  0  0  0
 29 74  1  0  0  0  0
 29 75  1  0  0  0  0
 30 76  1  0  0  0  0
 30 77  1  0  0  0  0
 30 78  1  0  0  0  0
 31 79  1  0  0  0  0
 31 80  1  0  0  0  0
 31 81  1  0  0  0  0
M  END
$$$$
