C5H11NO2
APtclcactv06211802143D 0   0.00000     0.00000
 
 19 18  0  0  0  0  0  0  0  0999 V2000
   -1.0497    0.8655   -1.1293 C   0  0  0  0  0  0  0  0  0  0  0  0
   -1.0337   -0.0729    0.0007 N   0  3  0  0  0  0  0  0  0  0  0  0
   -0.9635    0.6791    1.2607 C   0  0  0  0  0  0  0  0  0  0  0  0
   -2.2589   -0.8831   -0.0183 C   0  0  0  0  0  0  0  0  0  0  0  0
    0.1371   -0.9531   -0.1101 C   0  0  0  0  0  0  0  0  0  0  0  0
    1.3955   -0.1280   -0.0269 C   0  0  0  0  0  0  0  0  0  0  0  0
    1.3256    1.0888    0.0045 O   0  0  0  0  0  0  0  0  0  0  0  0
    2.4833   -0.6773    0.0091 O   0  5  0  0  0  0  0  0  0  0  0  0
   -0.2137    1.5590   -1.0375 H   0  0  0  0  0  0  0  0  0  0  0  0
   -0.9608    0.3109   -2.0634 H   0  0  0  0  0  0  0  0  0  0  0  0
   -1.9863    1.4230   -1.1255 H   0  0  0  0  0  0  0  0  0  0  0  0
   -1.8956    1.2237    1.4113 H   0  0  0  0  0  0  0  0  0  0  0  0
   -0.8092   -0.0129    2.0887 H   0  0  0  0  0  0  0  0  0  0  0  0
   -0.1336    1.3843    1.2171 H   0  0  0  0  0  0  0  0  0  0  0  0
   -2.3111   -1.4411   -0.9532 H   0  0  0  0  0  0  0  0  0  0  0  0
   -2.2471   -1.5795    0.8202 H   0  0  0  0  0  0  0  0  0  0  0  0
   -3.1277   -0.2300    0.0640 H   0  0  0  0  0  0  0  0  0  0  0  0
    0.1242   -1.6791    0.7028 H   0  0  0  0  0  0  0  0  0  0  0  0
    0.1087   -1.4769   -1.0656 H   0  0  0  0  0  0  0  0  0  0  0  0
  1  2  1  0  0  0  0
  2  3  1  0  0  0  0
  2  4  1  0  0  0  0
  2  5  1  0  0  0  0
  5  6  1  0  0  0  0
  6  7  2  0  0  0  0
  6  8  1  0  0  0  0
  1  9  1  0  0  0  0
  1 10  1  0  0  0  0
  1 11  1  0  0  0  0
  3 12  1  0  0  0  0
  3 13  1  0  0  0  0
  3 14  1  0  0  0  0
  4 15  1  0  0  0  0
  4 16  1  0  0  0  0
  4 17  1  0  0  0  0
  5 18  1  0  0  0  0
  5 19  1  0  0  0  0
M  CHG  2   2   1   8  -1
M  END
$$$$
