C20H20O7
APtclcactv06291802463D 0   0.00000     0.00000
 
 47 49  0  0  0  0  0  0  0  0999 V2000
    6.8252    1.1077   -0.3692 C   0  0  0  0  0  0  0  0  0  0  0  0
    5.4514    1.4961   -0.4323 O   0  0  0  0  0  0  0  0  0  0  0  0
    4.5266    0.5385   -0.1609 C   0  0  0  0  0  0  0  0  0  0  0  0
    3.1752    0.8537   -0.2057 C   0  0  0  0  0  0  0  0  0  0  0  0
    2.2295   -0.1282    0.0720 C   0  0  0  0  0  0  0  0  0  0  0  0
    2.6605   -1.4255    0.3939 C   0  0  0  0  0  0  0  0  0  0  0  0
    4.0226   -1.7246    0.4348 C   0  0  0  0  0  0  0  0  0  0  0  0
    4.9410   -0.7521    0.1542 C   0  0  0  0  0  0  0  0  0  0  0  0
    1.6418   -2.4521    0.6851 C   0  0  0  0  0  0  0  0  0  0  0  0
    1.9577   -3.5956    0.9710 O   0  0  0  0  0  0  0  0  0  0  0  0
    0.2853   -2.0591    0.6204 C   0  0  0  0  0  0  0  0  0  0  0  0
   -0.0268   -0.7739    0.2984 C   0  0  0  0  0  0  0  0  0  0  0  0
    0.9092    0.1515    0.0359 O   0  0  0  0  0  0  0  0  0  0  0  0
   -1.4478   -0.3833    0.2361 C   0  0  0  0  0  0  0  0  0  0  0  0
   -1.8538    0.8611    0.7255 C   0  0  0  0  0  0  0  0  0  0  0  0
   -3.1863    1.2245    0.6658 C   0  0  0  0  0  0  0  0  0  0  0  0
   -4.1234    0.3519    0.1192 C   0  0  0  0  0  0  0  0  0  0  0  0
   -3.7218   -0.8886   -0.3687 C   0  0  0  0  0  0  0  0  0  0  0  0
   -2.3897   -1.2546   -0.3177 C   0  0  0  0  0  0  0  0  0  0  0  0
   -4.6400   -1.7386   -0.9016 O   0  0  0  0  0  0  0  0  0  0  0  0
   -4.1584   -2.9949   -1.3832 C   0  0  0  0  0  0  0  0  0  0  0  0
   -5.4331    0.7117    0.0622 O   0  0  0  0  0  0  0  0  0  0  0  0
   -5.8668    1.3977   -1.1139 C   0  0  0  0  0  0  0  0  0  0  0  0
   -3.5822    2.4354    1.1419 O   0  0  0  0  0  0  0  0  0  0  0  0
   -2.5682    3.2803    1.6895 C   0  0  0  0  0  0  0  0  0  0  0  0
    2.7776    2.1168   -0.5193 O   0  0  0  0  0  0  0  0  0  0  0  0
    2.5552    2.4025   -1.9017 C   0  0  0  0  0  0  0  0  0  0  0  0
    7.0567    0.7531    0.6352 H   0  0  0  0  0  0  0  0  0  0  0  0
    7.0104    0.3095   -1.0880 H   0  0  0  0  0  0  0  0  0  0  0  0
    7.4562    1.9642   -0.6066 H   0  0  0  0  0  0  0  0  0  0  0  0
    4.3503   -2.7232    0.6831 H   0  0  0  0  0  0  0  0  0  0  0  0
    5.9952   -0.9845    0.1857 H   0  0  0  0  0  0  0  0  0  0  0  0
   -0.4980   -2.7739    0.8248 H   0  0  0  0  0  0  0  0  0  0  0  0
   -1.1274    1.5381    1.1503 H   0  0  0  0  0  0  0  0  0  0  0  0
   -2.0787   -2.2171   -0.6963 H   0  0  0  0  0  0  0  0  0  0  0  0
   -3.4247   -2.8248   -2.1712 H   0  0  0  0  0  0  0  0  0  0  0  0
   -3.6920   -3.5432   -0.5647 H   0  0  0  0  0  0  0  0  0  0  0  0
   -4.9911   -3.5749   -1.7811 H   0  0  0  0  0  0  0  0  0  0  0  0
   -6.9293    1.6261   -1.0304 H   0  0  0  0  0  0  0  0  0  0  0  0
   -5.3035    2.3245   -1.2226 H   0  0  0  0  0  0  0  0  0  0  0  0
   -5.6984    0.7659   -1.9860 H   0  0  0  0  0  0  0  0  0  0  0  0
   -1.8226    3.4960    0.9241 H   0  0  0  0  0  0  0  0  0  0  0  0
   -3.0177    4.2124    2.0318 H   0  0  0  0  0  0  0  0  0  0  0  0
   -2.0907    2.7769    2.5301 H   0  0  0  0  0  0  0  0  0  0  0  0
    1.7755    1.7458   -2.2875 H   0  0  0  0  0  0  0  0  0  0  0  0
    2.2431    3.4410   -2.0124 H   0  0  0  0  0  0  0  0  0  0  0  0
    3.4772    2.2387   -2.4595 H   0  0  0  0  0  0  0  0  0  0  0  0
  1  2  1  0  0  0  0
  2  3  1  0  0  0  0
  3  4  2  0  0  0  0
  4  5  1  0  0  0  0
  5  6  2  0  0  0  0
  6  7  1  0  0  0  0
  7  8  2  0  0  0  0
  3  8  1  0  0  0  0
  6  9  1  0  0  0  0
  9 10  2  0  0  0  0
  9 11  1  0  0  0  0
 11 12  2  0  0  0  0
 12 13  1  0  0  0  0
  5 13  1  0  0  0  0
 12 14  1  0  0  0  0
 14 15  2  0  0  0  0
 15 16  1  0  0  0  0
 16 17  2  0  0  0  0
 17 18  1  0  0  0  0
 18 19  2  0  0  0  0
 14 19  1  0  0  0  0
 18 20  1  0  0  0  0
 20 21  1  0  0  0  0
 17 22  1  0  0  0  0
 22 23  1  0  0  0  0
 16 24  1  0  0  0  0
 24 25  1  0  0  0  0
  4 26  1  0  0  0  0
 26 27  1  0  0  0  0
  1 28  1  0  0  0  0
  1 29  1  0  0  0  0
  1 30  1  0  0  0  0
  7 31  1  0  0  0  0
  8 32  1  0  0  0  0
 11 33  1  0  0  0  0
 15 34  1  0  0  0  0
 19 35  1  0  0  0  0
 21 36  1  0  0  0  0
 21 37  1  0  0  0  0
 21 38  1  0  0  0  0
 23 39  1  0  0  0  0
 23 40  1  0  0  0  0
 23 41  1  0  0  0  0
 25 42  1  0  0  0  0
 25 43  1  0  0  0  0
 25 44  1  0  0  0  0
 27 45  1  0  0  0  0
 27 46  1  0  0  0  0
 27 47  1  0  0  0  0
M  END
$$$$
