C7H14NO8P
APtclcactv06291802463D 0   0.00000     0.00000
 
 31 30  0  0  0  0  0  0  0  0999 V2000
   -5.3293    0.9209    1.0431 C   0  0  0  0  0  0  0  0  0  0  0  0
   -4.5601   -0.2260    0.3843 C   0  0  0  0  0  0  0  0  0  0  0  0
   -3.1623    0.0709    0.3931 O   0  0  0  0  0  0  0  0  0  0  0  0
   -2.0516   -0.9197   -0.2210 P   0  0  0  0  0  0  0  0  0  0  0  0
   -2.1833   -2.2555    0.4023 O   0  0  0  0  0  0  0  0  0  0  0  0
   -2.2659   -1.0461   -1.8116 O   0  0  0  0  0  0  0  0  0  0  0  0
   -0.5833   -0.3306    0.0775 O   0  0  0  0  0  0  0  0  0  0  0  0
    0.6180   -1.0321   -0.2493 C   0  0  0  0  0  0  0  0  0  0  0  0
    1.8279   -0.1932    0.1672 C   0  0  0  0  0  0  0  0  0  0  0  0
    3.1096   -0.9951   -0.0677 C   0  0  0  0  0  0  0  0  0  0  0  0
    4.2476   -0.2472    0.4364 O   0  0  0  0  0  0  0  0  0  0  0  0
    5.4564   -0.8159    0.3064 C   0  0  0  0  0  0  0  0  0  0  0  0
    6.4407   -0.2411    0.7072 O   0  0  0  0  0  0  0  0  0  0  0  0
    1.8673    1.0247   -0.6224 O   0  0  0  0  0  0  0  0  0  0  0  0
    2.4087    2.1084   -0.0443 C   0  0  0  0  0  0  0  0  0  0  0  0
    2.4693    3.1508   -0.6523 O   0  0  0  0  0  0  0  0  0  0  0  0
   -5.1851    2.1369    0.2315 N   0  0  0  0  0  0  0  0  0  0  0  0
   -6.3840    0.6561    1.1165 H   0  0  0  0  0  0  0  0  0  0  0  0
   -4.9294    1.1006    2.0410 H   0  0  0  0  0  0  0  0  0  0  0  0
   -4.7391   -1.1482    0.9371 H   0  0  0  0  0  0  0  0  0  0  0  0
   -4.8993   -0.3473   -0.6444 H   0  0  0  0  0  0  0  0  0  0  0  0
   -2.1934   -0.2067   -2.2862 H   0  0  0  0  0  0  0  0  0  0  0  0
    0.6374   -1.9852    0.2791 H   0  0  0  0  0  0  0  0  0  0  0  0
    0.6530   -1.2117   -1.3239 H   0  0  0  0  0  0  0  0  0  0  0  0
    1.7470    0.0613    1.2240 H   0  0  0  0  0  0  0  0  0  0  0  0
    3.0419   -1.9495    0.4544 H   0  0  0  0  0  0  0  0  0  0  0  0
    3.2361   -1.1733   -1.1356 H   0  0  0  0  0  0  0  0  0  0  0  0
    5.5493   -1.7873   -0.1565 H   0  0  0  0  0  0  0  0  0  0  0  0
    2.7902    2.0486    0.9643 H   0  0  0  0  0  0  0  0  0  0  0  0
   -5.6846    2.9095    0.6459 H   0  0  0  0  0  0  0  0  0  0  0  0
   -4.2123    2.3670    0.0945 H   0  0  0  0  0  0  0  0  0  0  0  0
  1  2  1  0  0  0  0
  2  3  1  0  0  0  0
  3  4  1  0  0  0  0
  4  5  2  0  0  0  0
  4  6  1  0  0  0  0
  4  7  1  0  0  0  0
  7  8  1  0  0  0  0
  8  9  1  0  0  0  0
  9 10  1  0  0  0  0
 10 11  1  0  0  0  0
 11 12  1  0  0  0  0
 12 13  2  0  0  0  0
  9 14  1  0  0  0  0
 14 15  1  0  0  0  0
 15 16  2  0  0  0  0
  1 17  1  0  0  0  0
  1 18  1  0  0  0  0
  1 19  1  0  0  0  0
  2 20  1  0  0  0  0
  2 21  1  0  0  0  0
  6 22  1  0  0  0  0
  8 23  1  0  0  0  0
  8 24  1  0  0  0  0
  9 25  1  0  0  0  0
 10 26  1  0  0  0  0
 10 27  1  0  0  0  0
 12 28  1  0  0  0  0
 15 29  1  0  0  0  0
 17 30  1  0  0  0  0
 17 31  1  0  0  0  0
M  END
$$$$
