C15H14O11
APtclcactv06291802463D 0   0.00000     0.00000
 
 40 40  0  0  0  0  0  0  0  0999 V2000
   -3.8588   -0.9848    0.5957 C   0  0  0  0  0  0  0  0  0  0  0  0
   -5.0604   -1.5964    0.8775 C   0  0  0  0  0  0  0  0  0  0  0  0
   -6.2513   -1.0281    0.4446 C   0  0  0  0  0  0  0  0  0  0  0  0
   -6.2375    0.1645   -0.2780 C   0  0  0  0  0  0  0  0  0  0  0  0
   -5.0375    0.7845   -0.5650 C   0  0  0  0  0  0  0  0  0  0  0  0
   -3.8366    0.2128   -0.1287 C   0  0  0  0  0  0  0  0  0  0  0  0
   -2.5561    0.8678   -0.4303 C   0  0  0  0  0  0  0  0  0  0  0  0
   -1.3983    0.3143   -0.0083 C   0  0  0  0  0  0  0  0  0  0  0  0
   -0.1630    0.9463   -0.2994 C   0  0  0  0  0  0  0  0  0  0  0  0
   -0.1457    1.9870   -0.9291 O   0  0  0  0  0  0  0  0  0  0  0  0
    0.9935    0.3935    0.1221 O   0  0  0  0  0  0  0  0  0  0  0  0
    2.2005    1.0843   -0.2067 C   0  0  0  0  0  0  0  0  0  0  0  0
    2.5343    2.0622    0.8902 C   0  0  0  0  0  0  0  0  0  0  0  0
    1.8644    2.0946    1.8953 O   0  0  0  0  0  0  0  0  0  0  0  0
    3.5759    2.8974    0.7508 O   0  0  0  0  0  0  0  0  0  0  0  0
    3.3412    0.0755   -0.3551 C   0  0  0  0  0  0  0  0  0  0  0  0
    3.5285   -0.6800    0.9621 C   0  0  0  0  0  0  0  0  0  0  0  0
    4.6521   -1.6736    0.8159 C   0  0  0  0  0  0  0  0  0  0  0  0
    5.2425   -1.7678   -0.2341 O   0  0  0  0  0  0  0  0  0  0  0  0
    4.9971   -2.4539    1.8522 O   0  0  0  0  0  0  0  0  0  0  0  0
    3.0074   -0.9025   -1.4520 C   0  0  0  0  0  0  0  0  0  0  0  0
    3.7290   -0.9981   -2.4163 O   0  0  0  0  0  0  0  0  0  0  0  0
    1.9083   -1.6673   -1.3577 O   0  0  0  0  0  0  0  0  0  0  0  0
    4.5482    0.7663   -0.6839 O   0  0  0  0  0  0  0  0  0  0  0  0
   -7.4062    0.7168   -0.7006 O   0  0  0  0  0  0  0  0  0  0  0  0
   -7.4329   -1.6359    0.7255 O   0  0  0  0  0  0  0  0  0  0  0  0
   -2.9345   -1.4267    0.9375 H   0  0  0  0  0  0  0  0  0  0  0  0
   -5.0764   -2.5205    1.4361 H   0  0  0  0  0  0  0  0  0  0  0  0
   -5.0256    1.7080   -1.1248 H   0  0  0  0  0  0  0  0  0  0  0  0
   -2.5408    1.7918   -0.9894 H   0  0  0  0  0  0  0  0  0  0  0  0
   -1.4136   -0.6096    0.5507 H   0  0  0  0  0  0  0  0  0  0  0  0
    2.0670    1.6225   -1.1451 H   0  0  0  0  0  0  0  0  0  0  0  0
    3.7509    3.5066    1.4810 H   0  0  0  0  0  0  0  0  0  0  0  0
    3.7700    0.0274    1.7555 H   0  0  0  0  0  0  0  0  0  0  0  0
    2.6079   -1.2069    1.2129 H   0  0  0  0  0  0  0  0  0  0  0  0
    5.7238   -3.0759    1.7105 H   0  0  0  0  0  0  0  0  0  0  0  0
    1.7358   -2.2796   -2.0859 H   0  0  0  0  0  0  0  0  0  0  0  0
    4.8241    1.4135   -0.0205 H   0  0  0  0  0  0  0  0  0  0  0  0
   -7.8006    1.3338   -0.0691 H   0  0  0  0  0  0  0  0  0  0  0  0
   -7.8310   -1.3549    1.5607 H   0  0  0  0  0  0  0  0  0  0  0  0
  1  2  2  0  0  0  0
  2  3  1  0  0  0  0
  3  4  2  0  0  0  0
  4  5  1  0  0  0  0
  5  6  2  0  0  0  0
  1  6  1  0  0  0  0
  6  7  1  0  0  0  0
  7  8  2  0  0  0  0
  8  9  1  0  0  0  0
  9 10  2  0  0  0  0
  9 11  1  0  0  0  0
 11 12  1  0  0  0  0
 12 13  1  0  0  0  0
 13 14  2  0  0  0  0
 13 15  1  0  0  0  0
 12 16  1  0  0  0  0
 16 17  1  0  0  0  0
 17 18  1  0  0  0  0
 18 19  2  0  0  0  0
 18 20  1  0  0  0  0
 16 21  1  0  0  0  0
 21 22  2  0  0  0  0
 21 23  1  0  0  0  0
 16 24  1  0  0  0  0
  4 25  1  0  0  0  0
  3 26  1  0  0  0  0
  1 27  1  0  0  0  0
  2 28  1  0  0  0  0
  5 29  1  0  0  0  0
  7 30  1  0  0  0  0
  8 31  1  0  0  0  0
 12 32  1  0  0  0  0
 15 33  1  0  0  0  0
 17 34  1  0  0  0  0
 17 35  1  0  0  0  0
 20 36  1  0  0  0  0
 23 37  1  0  0  0  0
 24 38  1  0  0  0  0
 25 39  1  0  0  0  0
 26 40  1  0  0  0  0
M  END
$$$$
