C20H32O4
APtclcactv06291802463D 0   0.00000     0.00000
 
 56 56  0  0  0  0  0  0  0  0999 V2000
   11.6930   -0.0672    0.0183 C   0  0  0  0  0  0  0  0  0  0  0  0
   10.4085   -0.0988    0.8489 C   0  0  0  0  0  0  0  0  0  0  0  0
    9.1968   -0.0411   -0.0834 C   0  0  0  0  0  0  0  0  0  0  0  0
    7.9123   -0.0727    0.7472 C   0  0  0  0  0  0  0  0  0  0  0  0
    6.7005   -0.0150   -0.1851 C   0  0  0  0  0  0  0  0  0  0  0  0
    5.4160   -0.0466    0.6455 C   0  0  0  0  0  0  0  0  0  0  0  0
    4.2042    0.0112   -0.2868 C   0  0  0  0  0  0  0  0  0  0  0  0
    2.9197   -0.0204    0.5438 C   0  0  0  0  0  0  0  0  0  0  0  0
    1.7080    0.0373   -0.3885 C   0  0  0  0  0  0  0  0  0  0  0  0
    0.4257   -0.1196    0.4314 C   0  0  0  0  0  0  0  0  0  0  0  0
   -0.7593   -0.1860   -0.4972 C   0  0  0  0  0  0  0  0  0  0  0  0
   -0.5953   -0.1151   -1.6915 O   0  0  0  0  0  0  0  0  0  0  0  0
   -2.1491   -0.3409    0.0646 C   0  0  0  0  0  0  0  0  0  0  0  0
   -3.1612   -0.3810   -1.0821 C   0  0  0  0  0  0  0  0  0  0  0  0
   -4.5509   -0.5359   -0.5204 C   0  0  0  0  0  0  0  0  0  0  0  0
   -5.2973    0.5849   -0.2076 C   0  0  0  0  0  0  0  0  0  0  0  0
   -6.5753    0.4443    0.3090 C   0  0  0  0  0  0  0  0  0  0  0  0
   -7.1045   -0.8266    0.5118 C   0  0  0  0  0  0  0  0  0  0  0  0
   -6.3511   -1.9459    0.1962 C   0  0  0  0  0  0  0  0  0  0  0  0
   -5.0788   -1.7985   -0.3241 C   0  0  0  0  0  0  0  0  0  0  0  0
   -8.3581   -0.9699    1.0191 O   0  0  0  0  0  0  0  0  0  0  0  0
   -7.3106    1.5459    0.6176 O   0  0  0  0  0  0  0  0  0  0  0  0
   -6.7031    2.8179    0.3835 C   0  0  0  0  0  0  0  0  0  0  0  0
    1.6885    1.2948   -1.0671 O   0  0  0  0  0  0  0  0  0  0  0  0
   12.5563   -0.1084    0.6825 H   0  0  0  0  0  0  0  0  0  0  0  0
   11.7115   -0.9242   -0.6550 H   0  0  0  0  0  0  0  0  0  0  0  0
   11.7264    0.8534   -0.5643 H   0  0  0  0  0  0  0  0  0  0  0  0
   10.3752   -1.0195    1.4316 H   0  0  0  0  0  0  0  0  0  0  0  0
   10.3901    0.7581    1.5222 H   0  0  0  0  0  0  0  0  0  0  0  0
    9.2301    0.8795   -0.6660 H   0  0  0  0  0  0  0  0  0  0  0  0
    9.2152   -0.8981   -0.7567 H   0  0  0  0  0  0  0  0  0  0  0  0
    7.8789   -0.9933    1.3298 H   0  0  0  0  0  0  0  0  0  0  0  0
    7.8938    0.7843    1.4205 H   0  0  0  0  0  0  0  0  0  0  0  0
    6.7339    0.9057   -0.7677 H   0  0  0  0  0  0  0  0  0  0  0  0
    6.7190   -0.8719   -0.8584 H   0  0  0  0  0  0  0  0  0  0  0  0
    5.3826   -0.9672    1.2281 H   0  0  0  0  0  0  0  0  0  0  0  0
    5.3975    0.8104    1.3188 H   0  0  0  0  0  0  0  0  0  0  0  0
    4.2376    0.9318   -0.8694 H   0  0  0  0  0  0  0  0  0  0  0  0
    4.2227   -0.8458   -0.9601 H   0  0  0  0  0  0  0  0  0  0  0  0
    2.8863   -0.9410    1.1264 H   0  0  0  0  0  0  0  0  0  0  0  0
    2.9013    0.8365    1.2171 H   0  0  0  0  0  0  0  0  0  0  0  0
    1.7730   -0.7689   -1.1192 H   0  0  0  0  0  0  0  0  0  0  0  0
    0.4795   -1.0368    1.0179 H   0  0  0  0  0  0  0  0  0  0  0  0
    0.3156    0.7337    1.1006 H   0  0  0  0  0  0  0  0  0  0  0  0
   -2.2092   -1.2678    0.6349 H   0  0  0  0  0  0  0  0  0  0  0  0
   -2.3731    0.5027    0.7175 H   0  0  0  0  0  0  0  0  0  0  0  0
   -3.1010    0.5459   -1.6525 H   0  0  0  0  0  0  0  0  0  0  0  0
   -2.9371   -1.2246   -1.7351 H   0  0  0  0  0  0  0  0  0  0  0  0
   -4.8841    1.5702   -0.3657 H   0  0  0  0  0  0  0  0  0  0  0  0
   -6.7594   -2.9334    0.3527 H   0  0  0  0  0  0  0  0  0  0  0  0
   -4.4926   -2.6717   -0.5697 H   0  0  0  0  0  0  0  0  0  0  0  0
   -9.0528   -1.0036    0.3472 H   0  0  0  0  0  0  0  0  0  0  0  0
   -7.3949    3.6095    0.6715 H   0  0  0  0  0  0  0  0  0  0  0  0
   -5.7912    2.8994    0.9751 H   0  0  0  0  0  0  0  0  0  0  0  0
   -6.4598    2.9152   -0.6745 H   0  0  0  0  0  0  0  0  0  0  0  0
    1.6315    2.0591   -0.4774 H   0  0  0  0  0  0  0  0  0  0  0  0
  1  2  1  0  0  0  0
  2  3  1  0  0  0  0
  3  4  1  0  0  0  0
  4  5  1  0  0  0  0
  5  6  1  0  0  0  0
  6  7  1  0  0  0  0
  7  8  1  0  0  0  0
  8  9  1  0  0  0  0
  9 10  1  0  0  0  0
 10 11  1  0  0  0  0
 11 12  2  0  0  0  0
 11 13  1  0  0  0  0
 13 14  1  0  0  0  0
 14 15  1  0  0  0  0
 15 16  2  0  0  0  0
 16 17  1  0  0  0  0
 17 18  2  0  0  0  0
 18 19  1  0  0  0  0
 19 20  2  0  0  0  0
 15 20  1  0  0  0  0
 18 21  1  0  0  0  0
 17 22  1  0  0  0  0
 22 23  1  0  0  0  0
  9 24  1  0  0  0  0
  1 25  1  0  0  0  0
  1 26  1  0  0  0  0
  1 27  1  0  0  0  0
  2 28  1  0  0  0  0
  2 29  1  0  0  0  0
  3 30  1  0  0  0  0
  3 31  1  0  0  0  0
  4 32  1  0  0  0  0
  4 33  1  0  0  0  0
  5 34  1  0  0  0  0
  5 35  1  0  0  0  0
  6 36  1  0  0  0  0
  6 37  1  0  0  0  0
  7 38  1  0  0  0  0
  7 39  1  0  0  0  0
  8 40  1  0  0  0  0
  8 41  1  0  0  0  0
  9 42  1  0  0  0  0
 10 43  1  0  0  0  0
 10 44  1  0  0  0  0
 13 45  1  0  0  0  0
 13 46  1  0  0  0  0
 14 47  1  0  0  0  0
 14 48  1  0  0  0  0
 16 49  1  0  0  0  0
 19 50  1  0  0  0  0
 20 51  1  0  0  0  0
 21 52  1  0  0  0  0
 23 53  1  0  0  0  0
 23 54  1  0  0  0  0
 23 55  1  0  0  0  0
 24 56  1  0  0  0  0
M  END
$$$$
