C20H20O11
APtclcactv06291802473D 0   0.00000     0.00000
 
 51 54  0  0  0  0  0  0  0  0999 V2000
   -4.1196   -1.9483    0.8017 C   0  0  0  0  0  0  0  0  0  0  0  0
   -5.3620   -1.1551    0.3882 C   0  0  0  0  0  0  0  0  0  0  0  0
   -5.1154    0.3349    0.6441 C   0  0  0  0  0  0  0  0  0  0  0  0
   -3.8641    0.7732   -0.1230 C   0  0  0  0  0  0  0  0  0  0  0  0
   -2.6795   -0.0945    0.3102 C   0  0  0  0  0  0  0  0  0  0  0  0
   -2.9867   -1.4700    0.0738 O   0  0  0  0  0  0  0  0  0  0  0  0
   -1.5208    0.2711   -0.4419 O   0  0  0  0  0  0  0  0  0  0  0  0
   -0.3279   -0.4029   -0.0360 C   0  0  0  0  0  0  0  0  0  0  0  0
    0.6151   -0.5660   -1.2371 C   0  0  0  0  0  0  0  0  0  0  0  0
    0.9654    0.7229   -1.7409 O   0  0  0  0  0  0  0  0  0  0  0  0
    1.4605    1.6438   -0.8809 C   0  0  0  0  0  0  0  0  0  0  0  0
    2.2268    2.6923   -1.3575 C   0  0  0  0  0  0  0  0  0  0  0  0
    2.7320    3.6440   -0.4804 C   0  0  0  0  0  0  0  0  0  0  0  0
    2.4758    3.5591    0.8823 C   0  0  0  0  0  0  0  0  0  0  0  0
    1.7127    2.5178    1.3805 C   0  0  0  0  0  0  0  0  0  0  0  0
    1.2045    1.5502    0.5000 C   0  0  0  0  0  0  0  0  0  0  0  0
    0.4067    0.4262    1.0022 C   0  0  0  0  0  0  0  0  0  0  0  0
    0.3374    0.1722    2.1871 O   0  0  0  0  0  0  0  0  0  0  0  0
    1.4585    2.4324    2.7098 O   0  0  0  0  0  0  0  0  0  0  0  0
    3.4838    4.6666   -0.9597 O   0  0  0  0  0  0  0  0  0  0  0  0
    1.8621   -1.2921   -0.8025 C   0  0  0  0  0  0  0  0  0  0  0  0
    1.7749   -2.5848   -0.3204 C   0  0  0  0  0  0  0  0  0  0  0  0
    2.9205   -3.2538    0.0795 C   0  0  0  0  0  0  0  0  0  0  0  0
    4.1572   -2.6215   -0.0054 C   0  0  0  0  0  0  0  0  0  0  0  0
    4.2376   -1.3257   -0.4895 C   0  0  0  0  0  0  0  0  0  0  0  0
    3.0915   -0.6659   -0.8922 C   0  0  0  0  0  0  0  0  0  0  0  0
    5.2844   -3.2738    0.3864 O   0  0  0  0  0  0  0  0  0  0  0  0
    2.8364   -4.5253    0.5544 O   0  0  0  0  0  0  0  0  0  0  0  0
   -4.0841    0.6149   -1.5260 O   0  0  0  0  0  0  0  0  0  0  0  0
   -6.2416    1.0902    0.1930 O   0  0  0  0  0  0  0  0  0  0  0  0
   -5.6217   -1.3644   -1.0013 O   0  0  0  0  0  0  0  0  0  0  0  0
   -3.9456   -1.8205    1.8701 H   0  0  0  0  0  0  0  0  0  0  0  0
   -4.2732   -3.0049    0.5820 H   0  0  0  0  0  0  0  0  0  0  0  0
   -6.2186   -1.4884    0.9741 H   0  0  0  0  0  0  0  0  0  0  0  0
   -4.9664    0.5019    1.7109 H   0  0  0  0  0  0  0  0  0  0  0  0
   -3.6494    1.8189    0.0973 H   0  0  0  0  0  0  0  0  0  0  0  0
   -2.4867    0.0575    1.3722 H   0  0  0  0  0  0  0  0  0  0  0  0
   -0.5763   -1.3809    0.3763 H   0  0  0  0  0  0  0  0  0  0  0  0
    0.1140   -1.1380   -2.0180 H   0  0  0  0  0  0  0  0  0  0  0  0
    2.4333    2.7711   -2.4146 H   0  0  0  0  0  0  0  0  0  0  0  0
    2.8728    4.3062    1.5535 H   0  0  0  0  0  0  0  0  0  0  0  0
    0.6536    2.8914    2.9866 H   0  0  0  0  0  0  0  0  0  0  0  0
    2.9720    5.4493   -1.2059 H   0  0  0  0  0  0  0  0  0  0  0  0
    0.8138   -3.0731   -0.2552 H   0  0  0  0  0  0  0  0  0  0  0  0
    5.1962   -0.8327   -0.5564 H   0  0  0  0  0  0  0  0  0  0  0  0
    3.1555    0.3440   -1.2693 H   0  0  0  0  0  0  0  0  0  0  0  0
    5.7141   -3.7754   -0.3199 H   0  0  0  0  0  0  0  0  0  0  0  0
    2.9155   -5.2060   -0.1278 H   0  0  0  0  0  0  0  0  0  0  0  0
   -3.3308    0.8742   -2.0740 H   0  0  0  0  0  0  0  0  0  0  0  0
   -7.0715    0.8594    0.6325 H   0  0  0  0  0  0  0  0  0  0  0  0
   -5.7824   -2.2885   -1.2365 H   0  0  0  0  0  0  0  0  0  0  0  0
  1  2  1  0  0  0  0
  2  3  1  0  0  0  0
  3  4  1  0  0  0  0
  4  5  1  0  0  0  0
  5  6  1  0  0  0  0
  1  6  1  0  0  0  0
  5  7  1  0  0  0  0
  7  8  1  0  0  0  0
  8  9  1  0  0  0  0
  9 10  1  0  0  0  0
 10 11  1  0  0  0  0
 11 12  2  0  0  0  0
 12 13  1  0  0  0  0
 13 14  2  0  0  0  0
 14 15  1  0  0  0  0
 15 16  2  0  0  0  0
 11 16  1  0  0  0  0
 16 17  1  0  0  0  0
  8 17  1  0  0  0  0
 17 18  2  0  0  0  0
 15 19  1  0  0  0  0
 13 20  1  0  0  0  0
  9 21  1  0  0  0  0
 21 22  2  0  0  0  0
 22 23  1  0  0  0  0
 23 24  2  0  0  0  0
 24 25  1  0  0  0  0
 25 26  2  0  0  0  0
 21 26  1  0  0  0  0
 24 27  1  0  0  0  0
 23 28  1  0  0  0  0
  4 29  1  0  0  0  0
  3 30  1  0  0  0  0
  2 31  1  0  0  0  0
  1 32  1  0  0  0  0
  1 33  1  0  0  0  0
  2 34  1  0  0  0  0
  3 35  1  0  0  0  0
  4 36  1  0  0  0  0
  5 37  1  0  0  0  0
  8 38  1  0  0  0  0
  9 39  1  0  0  0  0
 12 40  1  0  0  0  0
 14 41  1  0  0  0  0
 19 42  1  0  0  0  0
 20 43  1  0  0  0  0
 22 44  1  0  0  0  0
 25 45  1  0  0  0  0
 26 46  1  0  0  0  0
 27 47  1  0  0  0  0
 28 48  1  0  0  0  0
 29 49  1  0  0  0  0
 30 50  1  0  0  0  0
 31 51  1  0  0  0  0
M  END
$$$$
