C15H13NO3
APtclcactv06291802473D 0   0.00000     0.00000
 
 32 34  0  0  0  0  0  0  0  0999 V2000
    2.7196    3.2902   -0.0006 C   0  0  0  0  0  0  0  0  0  0  0  0
    2.7662    1.8619   -0.0003 O   0  0  0  0  0  0  0  0  0  0  0  0
    1.5780    1.2069   -0.0004 C   0  0  0  0  0  0  0  0  0  0  0  0
    1.5533   -0.1992   -0.0001 C   0  0  0  0  0  0  0  0  0  0  0  0
    0.3308   -0.8718   -0.0003 C   0  0  0  0  0  0  0  0  0  0  0  0
   -0.8526   -0.1485   -0.0007 C   0  0  0  0  0  0  0  0  0  0  0  0
   -2.2762   -0.5375   -0.0005 C   0  0  0  0  0  0  0  0  0  0  0  0
   -2.9342   -1.7641    0.0002 C   0  0  0  0  0  0  0  0  0  0  0  0
   -4.3127   -1.8019    0.0007 C   0  0  0  0  0  0  0  0  0  0  0  0
   -5.0429   -0.6242    0.0006 C   0  0  0  0  0  0  0  0  0  0  0  0
   -4.4032    0.5974   -0.0002 C   0  0  0  0  0  0  0  0  0  0  0  0
   -3.0135    0.6557   -0.0007 C   0  0  0  0  0  0  0  0  0  0  0  0
   -2.1260    1.7183   -0.0015 N   0  0  0  0  0  0  0  0  0  0  0  0
   -0.8251    1.2583   -0.0010 C   0  0  0  0  0  0  0  0  0  0  0  0
    0.3978    1.9232    0.0048 C   0  0  0  0  0  0  0  0  0  0  0  0
    2.8138   -0.9594   -0.0001 C   0  0  0  0  0  0  0  0  0  0  0  0
    3.8777   -0.3719   -0.0004 O   0  0  0  0  0  0  0  0  0  0  0  0
    2.7880   -2.3070    0.0002 O   0  0  0  0  0  0  0  0  0  0  0  0
    4.0690   -2.9907    0.0002 C   0  0  0  0  0  0  0  0  0  0  0  0
    3.7348    3.6868   -0.0005 H   0  0  0  0  0  0  0  0  0  0  0  0
    2.1944    3.6363   -0.8908 H   0  0  0  0  0  0  0  0  0  0  0  0
    2.1939    3.6368    0.8891 H   0  0  0  0  0  0  0  0  0  0  0  0
    0.3062   -1.9515   -0.0004 H   0  0  0  0  0  0  0  0  0  0  0  0
   -2.3669   -2.6831   -0.0000 H   0  0  0  0  0  0  0  0  0  0  0  0
   -4.8249   -2.7527    0.0009 H   0  0  0  0  0  0  0  0  0  0  0  0
   -6.1222   -0.6634    0.0006 H   0  0  0  0  0  0  0  0  0  0  0  0
   -4.9816    1.5094   -0.0006 H   0  0  0  0  0  0  0  0  0  0  0  0
   -2.3824    2.6538   -0.0019 H   0  0  0  0  0  0  0  0  0  0  0  0
    0.4234    3.0029    0.0102 H   0  0  0  0  0  0  0  0  0  0  0  0
    4.6316   -2.7083    0.8900 H   0  0  0  0  0  0  0  0  0  0  0  0
    3.9055   -4.0684    0.0004 H   0  0  0  0  0  0  0  0  0  0  0  0
    4.6313   -2.7087   -0.8899 H   0  0  0  0  0  0  0  0  0  0  0  0
  1  2  1  0  0  0  0
  2  3  1  0  0  0  0
  3  4  2  0  0  0  0
  4  5  1  0  0  0  0
  5  6  2  0  0  0  0
  6  7  1  0  0  0  0
  7  8  2  0  0  0  0
  8  9  1  0  0  0  0
  9 10  2  0  0  0  0
 10 11  1  0  0  0  0
 11 12  2  0  0  0  0
  7 12  1  0  0  0  0
 12 13  1  0  0  0  0
 13 14  1  0  0  0  0
  6 14  1  0  0  0  0
 14 15  2  0  0  0  0
  3 15  1  0  0  0  0
  4 16  1  0  0  0  0
 16 17  2  0  0  0  0
 16 18  1  0  0  0  0
 18 19  1  0  0  0  0
  1 20  1  0  0  0  0
  1 21  1  0  0  0  0
  1 22  1  0  0  0  0
  5 23  1  0  0  0  0
  8 24  1  0  0  0  0
  9 25  1  0  0  0  0
 10 26  1  0  0  0  0
 11 27  1  0  0  0  0
 13 28  1  0  0  0  0
 15 29  1  0  0  0  0
 19 30  1  0  0  0  0
 19 31  1  0  0  0  0
 19 32  1  0  0  0  0
M  END
$$$$
