C15H22O
APtclcactv06281816453D 0   0.00000     0.00000
 
 38 37  0  0  0  0  0  0  0  0999 V2000
    0.3950    0.5616   -2.0948 C   0  0  0  0  0  0  0  0  0  0  0  0
    0.2112   -0.5199   -1.0615 C   0  0  0  0  0  0  0  0  0  0  0  0
    1.2492   -0.9950   -0.4189 C   0  0  0  0  0  0  0  0  0  0  0  0
    2.6086   -0.3770   -0.6217 C   0  0  0  0  0  0  0  0  0  0  0  0
    3.1340    0.1496    0.7153 C   0  0  0  0  0  0  0  0  0  0  0  0
    4.4935    0.7676    0.5125 C   0  0  0  0  0  0  0  0  0  0  0  0
    4.6053    2.0766    0.3145 C   0  0  0  0  0  0  0  0  0  0  0  0
    5.6967   -0.0786    0.5337 C   0  0  0  0  0  0  0  0  0  0  0  0
    5.5849   -1.3877    0.7317 C   0  0  0  0  0  0  0  0  0  0  0  0
   -1.1667   -1.0547   -0.7674 C   0  0  0  0  0  0  0  0  0  0  0  0
   -1.8530   -0.1565    0.2637 C   0  0  0  0  0  0  0  0  0  0  0  0
   -3.2309   -0.6914    0.5577 C   0  0  0  0  0  0  0  0  0  0  0  0
   -4.2982    0.0960    0.4088 C   0  0  0  0  0  0  0  0  0  0  0  0
   -4.1177    1.5562    0.0828 C   0  0  0  0  0  0  0  0  0  0  0  0
   -5.6429   -0.4583    0.5620 C   0  0  0  0  0  0  0  0  0  0  0  0
   -6.6132    0.2575    0.4266 O   0  0  0  0  0  0  0  0  0  0  0  0
    1.1187    0.2324   -2.8404 H   0  0  0  0  0  0  0  0  0  0  0  0
   -0.5593    0.7663   -2.5802 H   0  0  0  0  0  0  0  0  0  0  0  0
    0.7585    1.4682   -1.6111 H   0  0  0  0  0  0  0  0  0  0  0  0
    1.1307   -1.8296    0.2563 H   0  0  0  0  0  0  0  0  0  0  0  0
    3.2951   -1.1289   -1.0111 H   0  0  0  0  0  0  0  0  0  0  0  0
    2.5311    0.4466   -1.3314 H   0  0  0  0  0  0  0  0  0  0  0  0
    2.4476    0.9014    1.1047 H   0  0  0  0  0  0  0  0  0  0  0  0
    3.2116   -0.6740    1.4250 H   0  0  0  0  0  0  0  0  0  0  0  0
    5.5795    2.5195    0.1691 H   0  0  0  0  0  0  0  0  0  0  0  0
    3.7220    2.6978    0.2989 H   0  0  0  0  0  0  0  0  0  0  0  0
    6.6710    0.3642    0.3883 H   0  0  0  0  0  0  0  0  0  0  0  0
    4.6107   -1.8306    0.8770 H   0  0  0  0  0  0  0  0  0  0  0  0
    6.4682   -2.0089    0.7472 H   0  0  0  0  0  0  0  0  0  0  0  0
   -1.7544   -1.0691   -1.6853 H   0  0  0  0  0  0  0  0  0  0  0  0
   -1.0866   -2.0671   -0.3713 H   0  0  0  0  0  0  0  0  0  0  0  0
   -1.2653   -0.1421    1.1815 H   0  0  0  0  0  0  0  0  0  0  0  0
   -1.9331    0.8558   -0.1324 H   0  0  0  0  0  0  0  0  0  0  0  0
   -3.3547   -1.7118    0.8890 H   0  0  0  0  0  0  0  0  0  0  0  0
   -4.0017    1.6763   -0.9943 H   0  0  0  0  0  0  0  0  0  0  0  0
   -4.9917    2.1142    0.4186 H   0  0  0  0  0  0  0  0  0  0  0  0
   -3.2290    1.9342    0.5883 H   0  0  0  0  0  0  0  0  0  0  0  0
   -5.7723   -1.5048    0.7957 H   0  0  0  0  0  0  0  0  0  0  0  0
  1  2  1  0  0  0  0
  2  3  2  0  0  0  0
  3  4  1  0  0  0  0
  4  5  1  0  0  0  0
  5  6  1  0  0  0  0
  6  7  2  0  0  0  0
  6  8  1  0  0  0  0
  8  9  2  0  0  0  0
  2 10  1  0  0  0  0
 10 11  1  0  0  0  0
 11 12  1  0  0  0  0
 12 13  2  0  0  0  0
 13 14  1  0  0  0  0
 13 15  1  0  0  0  0
 15 16  2  0  0  0  0
  1 17  1  0  0  0  0
  1 18  1  0  0  0  0
  1 19  1  0  0  0  0
  3 20  1  0  0  0  0
  4 21  1  0  0  0  0
  4 22  1  0  0  0  0
  5 23  1  0  0  0  0
  5 24  1  0  0  0  0
  7 25  1  0  0  0  0
  7 26  1  0  0  0  0
  8 27  1  0  0  0  0
  9 28  1  0  0  0  0
  9 29  1  0  0  0  0
 10 30  1  0  0  0  0
 10 31  1  0  0  0  0
 11 32  1  0  0  0  0
 11 33  1  0  0  0  0
 12 34  1  0  0  0  0
 14 35  1  0  0  0  0
 14 36  1  0  0  0  0
 14 37  1  0  0  0  0
 15 38  1  0  0  0  0
M  END
$$$$
