C33H40O19
APtclcactv06281817123D 0   0.00000     0.00000
 
 92 97  0  0  0  0  0  0  0  0999 V2000
    5.7213   -4.0392    1.6143 C   0  0  0  0  0  0  0  0  0  0  0  0
    5.2602   -2.8781    2.4975 C   0  0  0  0  0  0  0  0  0  0  0  0
    6.3102   -1.7645    2.4661 C   0  0  0  0  0  0  0  0  0  0  0  0
    6.4402   -1.2362    1.0342 C   0  0  0  0  0  0  0  0  0  0  0  0
    5.0680   -0.7551    0.5527 C   0  0  0  0  0  0  0  0  0  0  0  0
    4.0659   -1.9077    0.6580 C   0  0  0  0  0  0  0  0  0  0  0  0
    4.0164   -2.3722    2.0085 O   0  0  0  0  0  0  0  0  0  0  0  0
    2.7707   -1.4507    0.2634 O   0  0  0  0  0  0  0  0  0  0  0  0
    1.7804   -2.4799    0.2172 C   0  0  0  0  0  0  0  0  0  0  0  0
    0.4409   -1.8797   -0.2146 C   0  0  0  0  0  0  0  0  0  0  0  0
   -0.5891   -2.9994   -0.3850 C   0  0  0  0  0  0  0  0  0  0  0  0
   -1.9419   -2.3857   -0.7584 C   0  0  0  0  0  0  0  0  0  0  0  0
   -2.3498   -1.3802    0.3227 C   0  0  0  0  0  0  0  0  0  0  0  0
   -1.2519   -0.3229    0.4657 C   0  0  0  0  0  0  0  0  0  0  0  0
   -0.0143   -0.9633    0.7829 O   0  0  0  0  0  0  0  0  0  0  0  0
   -1.1167    0.3930   -0.7636 O   0  0  0  0  0  0  0  0  0  0  0  0
   -0.4185    1.5606   -0.7250 C   0  0  0  0  0  0  0  0  0  0  0  0
    0.7231    1.7026   -1.4551 C   0  0  0  0  0  0  0  0  0  0  0  0
    1.4461    2.8357   -1.4498 O   0  0  0  0  0  0  0  0  0  0  0  0
    1.0917    3.9143   -0.7202 C   0  0  0  0  0  0  0  0  0  0  0  0
    1.8614    5.0672   -0.7395 C   0  0  0  0  0  0  0  0  0  0  0  0
    1.4838    6.1666    0.0157 C   0  0  0  0  0  0  0  0  0  0  0  0
    0.3349    6.1285    0.7982 C   0  0  0  0  0  0  0  0  0  0  0  0
   -0.4461    4.9882    0.8303 C   0  0  0  0  0  0  0  0  0  0  0  0
   -0.0708    3.8733    0.0697 C   0  0  0  0  0  0  0  0  0  0  0  0
   -0.8768    2.6420    0.0712 C   0  0  0  0  0  0  0  0  0  0  0  0
   -1.8977    2.5531    0.7346 O   0  0  0  0  0  0  0  0  0  0  0  0
   -1.5675    4.9488    1.5938 O   0  0  0  0  0  0  0  0  0  0  0  0
    2.2434    7.2915   -0.0085 O   0  0  0  0  0  0  0  0  0  0  0  0
    1.1828    0.5711   -2.2812 C   0  0  0  0  0  0  0  0  0  0  0  0
    0.2882   -0.0851   -3.1315 C   0  0  0  0  0  0  0  0  0  0  0  0
    0.7220   -1.1417   -3.9014 C   0  0  0  0  0  0  0  0  0  0  0  0
    2.0467   -1.5558   -3.8334 C   0  0  0  0  0  0  0  0  0  0  0  0
    2.9394   -0.9068   -2.9893 C   0  0  0  0  0  0  0  0  0  0  0  0
    2.5160    0.1550   -2.2207 C   0  0  0  0  0  0  0  0  0  0  0  0
    2.4699   -2.5982   -4.5939 O   0  0  0  0  0  0  0  0  0  0  0  0
   -3.5757   -0.7480   -0.0512 O   0  0  0  0  0  0  0  0  0  0  0  0
   -4.3850   -0.3483    1.0566 C   0  0  0  0  0  0  0  0  0  0  0  0
   -5.6044    0.4236    0.5458 C   0  0  0  0  0  0  0  0  0  0  0  0
   -6.4493   -0.4988   -0.3383 C   0  0  0  0  0  0  0  0  0  0  0  0
   -6.8431   -1.7403    0.4678 C   0  0  0  0  0  0  0  0  0  0  0  0
   -5.5759   -2.4287    0.9816 C   0  0  0  0  0  0  0  0  0  0  0  0
   -4.8212   -1.5068    1.7706 O   0  0  0  0  0  0  0  0  0  0  0  0
   -5.9627   -3.6360    1.8382 C   0  0  0  0  0  0  0  0  0  0  0  0
   -7.6581   -1.3518    1.5754 O   0  0  0  0  0  0  0  0  0  0  0  0
   -7.6276    0.1909   -0.7601 O   0  0  0  0  0  0  0  0  0  0  0  0
   -6.3866    0.8695    1.6555 O   0  0  0  0  0  0  0  0  0  0  0  0
   -1.8325   -1.7169   -2.0165 O   0  0  0  0  0  0  0  0  0  0  0  0
   -0.1640   -3.8855   -1.4224 O   0  0  0  0  0  0  0  0  0  0  0  0
    4.6306    0.3339    1.3681 O   0  0  0  0  0  0  0  0  0  0  0  0
    7.3647   -0.1468    1.0087 O   0  0  0  0  0  0  0  0  0  0  0  0
    5.9057   -0.7022    3.3322 O   0  0  0  0  0  0  0  0  0  0  0  0
    6.6705   -4.4244    1.9868 H   0  0  0  0  0  0  0  0  0  0  0  0
    4.9736   -4.8320    1.6367 H   0  0  0  0  0  0  0  0  0  0  0  0
    5.8483   -3.6885    0.5901 H   0  0  0  0  0  0  0  0  0  0  0  0
    5.1327   -3.2288    3.5217 H   0  0  0  0  0  0  0  0  0  0  0  0
    7.2705   -2.1599    2.7971 H   0  0  0  0  0  0  0  0  0  0  0  0
    6.7964   -2.0338    0.3822 H   0  0  0  0  0  0  0  0  0  0  0  0
    5.1399   -0.4286   -0.4848 H   0  0  0  0  0  0  0  0  0  0  0  0
    4.3788   -2.7222    0.0047 H   0  0  0  0  0  0  0  0  0  0  0  0
    2.0837   -3.2441   -0.4985 H   0  0  0  0  0  0  0  0  0  0  0  0
    1.6760   -2.9283    1.2051 H   0  0  0  0  0  0  0  0  0  0  0  0
    0.5664   -1.3541   -1.1612 H   0  0  0  0  0  0  0  0  0  0  0  0
   -0.6851   -3.5513    0.5501 H   0  0  0  0  0  0  0  0  0  0  0  0
   -2.6930   -3.1727   -0.8265 H   0  0  0  0  0  0  0  0  0  0  0  0
   -2.4815   -1.8993    1.2720 H   0  0  0  0  0  0  0  0  0  0  0  0
   -1.5170    0.3709    1.2634 H   0  0  0  0  0  0  0  0  0  0  0  0
    2.7561    5.1087   -1.3431 H   0  0  0  0  0  0  0  0  0  0  0  0
    0.0522    6.9917    1.3825 H   0  0  0  0  0  0  0  0  0  0  0  0
   -2.3663    5.2428    1.1348 H   0  0  0  0  0  0  0  0  0  0  0  0
    1.9901    7.9224   -0.6962 H   0  0  0  0  0  0  0  0  0  0  0  0
   -0.7418    0.2356   -3.1845 H   0  0  0  0  0  0  0  0  0  0  0  0
    0.0315   -1.6493   -4.5587 H   0  0  0  0  0  0  0  0  0  0  0  0
    3.9679   -1.2325   -2.9391 H   0  0  0  0  0  0  0  0  0  0  0  0
    3.2106    0.6591   -1.5651 H   0  0  0  0  0  0  0  0  0  0  0  0
    2.8009   -2.3405   -5.4652 H   0  0  0  0  0  0  0  0  0  0  0  0
   -3.8025    0.2903    1.7206 H   0  0  0  0  0  0  0  0  0  0  0  0
   -5.2734    1.2835   -0.0366 H   0  0  0  0  0  0  0  0  0  0  0  0
   -5.8692   -0.7994   -1.2108 H   0  0  0  0  0  0  0  0  0  0  0  0
   -7.3980   -2.4281   -0.1704 H   0  0  0  0  0  0  0  0  0  0  0  0
   -4.9741   -2.7608    0.1356 H   0  0  0  0  0  0  0  0  0  0  0  0
   -6.5392   -4.3387    1.2365 H   0  0  0  0  0  0  0  0  0  0  0  0
   -5.0603   -4.1260    2.2039 H   0  0  0  0  0  0  0  0  0  0  0  0
   -6.5640   -3.3036    2.6843 H   0  0  0  0  0  0  0  0  0  0  0  0
   -7.9448   -2.0897    2.1308 H   0  0  0  0  0  0  0  0  0  0  0  0
   -7.4522    0.9929   -1.2712 H   0  0  0  0  0  0  0  0  0  0  0  0
   -5.9120    1.4551    2.2612 H   0  0  0  0  0  0  0  0  0  0  0  0
   -1.5701   -2.2936   -2.7470 H   0  0  0  0  0  0  0  0  0  0  0  0
   -0.7707   -4.6207   -1.5848 H   0  0  0  0  0  0  0  0  0  0  0  0
    3.7664    0.6894    1.1191 H   0  0  0  0  0  0  0  0  0  0  0  0
    7.4958    0.2373    0.1310 H   0  0  0  0  0  0  0  0  0  0  0  0
    5.7988   -0.9671    4.2561 H   0  0  0  0  0  0  0  0  0  0  0  0
  1  2  1  0  0  0  0
  2  3  1  0  0  0  0
  3  4  1  0  0  0  0
  4  5  1  0  0  0  0
  5  6  1  0  0  0  0
  6  7  1  0  0  0  0
  2  7  1  0  0  0  0
  6  8  1  0  0  0  0
  8  9  1  0  0  0  0
  9 10  1  0  0  0  0
 10 11  1  0  0  0  0
 11 12  1  0  0  0  0
 12 13  1  0  0  0  0
 13 14  1  0  0  0  0
 14 15  1  0  0  0  0
 10 15  1  0  0  0  0
 14 16  1  0  0  0  0
 16 17  1  0  0  0  0
 17 18  2  0  0  0  0
 18 19  1  0  0  0  0
 19 20  1  0  0  0  0
 20 21  2  0  0  0  0
 21 22  1  0  0  0  0
 22 23  2  0  0  0  0
 23 24  1  0  0  0  0
 24 25  2  0  0  0  0
 20 25  1  0  0  0  0
 25 26  1  0  0  0  0
 17 26  1  0  0  0  0
 26 27  2  0  0  0  0
 24 28  1  0  0  0  0
 22 29  1  0  0  0  0
 18 30  1  0  0  0  0
 30 31  2  0  0  0  0
 31 32  1  0  0  0  0
 32 33  2  0  0  0  0
 33 34  1  0  0  0  0
 34 35  2  0  0  0  0
 30 35  1  0  0  0  0
 33 36  1  0  0  0  0
 13 37  1  0  0  0  0
 37 38  1  0  0  0  0
 38 39  1  0  0  0  0
 39 40  1  0  0  0  0
 40 41  1  0  0  0  0
 41 42  1  0  0  0  0
 42 43  1  0  0  0  0
 38 43  1  0  0  0  0
 42 44  1  0  0  0  0
 41 45  1  0  0  0  0
 40 46  1  0  0  0  0
 39 47  1  0  0  0  0
 12 48  1  0  0  0  0
 11 49  1  0  0  0  0
  5 50  1  0  0  0  0
  4 51  1  0  0  0  0
  3 52  1  0  0  0  0
  1 53  1  0  0  0  0
  1 54  1  0  0  0  0
  1 55  1  0  0  0  0
  2 56  1  0  0  0  0
  3 57  1  0  0  0  0
  4 58  1  0  0  0  0
  5 59  1  0  0  0  0
  6 60  1  0  0  0  0
  9 61  1  0  0  0  0
  9 62  1  0  0  0  0
 10 63  1  0  0  0  0
 11 64  1  0  0  0  0
 12 65  1  0  0  0  0
 13 66  1  0  0  0  0
 14 67  1  0  0  0  0
 21 68  1  0  0  0  0
 23 69  1  0  0  0  0
 28 70  1  0  0  0  0
 29 71  1  0  0  0  0
 31 72  1  0  0  0  0
 32 73  1  0  0  0  0
 34 74  1  0  0  0  0
 35 75  1  0  0  0  0
 36 76  1  0  0  0  0
 38 77  1  0  0  0  0
 39 78  1  0  0  0  0
 40 79  1  0  0  0  0
 41 80  1  0  0  0  0
 42 81  1  0  0  0  0
 44 82  1  0  0  0  0
 44 83  1  0  0  0  0
 44 84  1  0  0  0  0
 45 85  1  0  0  0  0
 46 86  1  0  0  0  0
 47 87  1  0  0  0  0
 48 88  1  0  0  0  0
 49 89  1  0  0  0  0
 50 90  1  0  0  0  0
 51 91  1  0  0  0  0
 52 92  1  0  0  0  0
M  END
$$$$
