C5H4N4O4
APtclcactv06211806463D 0   0.00000     0.00000
 
 17 18  0  0  0  0  0  0  0  0999 V2000
   -0.1573   -0.9516   -0.2096 C   0  0  0  0  0  0  0  0  0  0  0  0
   -1.2945   -1.4374    0.1563 N   0  0  0  0  0  0  0  0  0  0  0  0
   -2.2294   -0.4825    0.2955 C   0  0  0  0  0  0  0  0  0  0  0  0
   -3.3807   -0.7000    0.6248 O   0  0  0  0  0  0  0  0  0  0  0  0
   -1.7398    0.7487    0.0271 N   0  0  0  0  0  0  0  0  0  0  0  0
   -0.3874    0.5299   -0.4905 C   0  0  0  0  0  0  0  0  0  0  0  0
    0.6693    1.2551    0.3060 C   0  0  0  0  0  0  0  0  0  0  0  0
    0.4698    2.3694    0.7401 O   0  0  0  0  0  0  0  0  0  0  0  0
    1.8445    0.6242    0.5209 N   0  0  0  0  0  0  0  0  0  0  0  0
    2.0912   -0.6416    0.1526 C   0  0  0  0  0  0  0  0  0  0  0  0
    3.2352   -1.0498    0.1777 O   0  0  0  0  0  0  0  0  0  0  0  0
    1.1009   -1.4811   -0.2471 N   0  0  0  0  0  0  0  0  0  0  0  0
   -0.3070    0.8220   -1.8871 O   0  0  0  0  0  0  0  0  0  0  0  0
   -2.1899    1.5989    0.1514 H   0  0  0  0  0  0  0  0  0  0  0  0
    2.5515    1.1157    0.9675 H   0  0  0  0  0  0  0  0  0  0  0  0
    1.2747   -2.3901   -0.5379 H   0  0  0  0  0  0  0  0  0  0  0  0
   -0.5125    1.7404   -2.1093 H   0  0  0  0  0  0  0  0  0  0  0  0
  1  2  2  0  0  0  0
  2  3  1  0  0  0  0
  3  4  2  0  0  0  0
  3  5  1  0  0  0  0
  5  6  1  0  0  0  0
  1  6  1  0  0  0  0
  6  7  1  0  0  0  0
  7  8  2  0  0  0  0
  7  9  1  0  0  0  0
  9 10  1  0  0  0  0
 10 11  2  0  0  0  0
 10 12  1  0  0  0  0
  1 12  1  0  0  0  0
  6 13  1  0  0  0  0
  5 14  1  0  0  0  0
  9 15  1  0  0  0  0
 12 16  1  0  0  0  0
 13 17  1  0  0  0  0
M  END
$$$$
