C27H30O16
APtclcactv06291802473D 0   0.00000     0.00000
 
 73 77  0  0  0  0  0  0  0  0999 V2000
   -0.8452    4.5936    1.8465 C   0  0  0  0  0  0  0  0  0  0  0  0
   -0.1615    4.6133    0.5918 O   0  0  0  0  0  0  0  0  0  0  0  0
   -0.4842    3.6409   -0.3025 C   0  0  0  0  0  0  0  0  0  0  0  0
    0.1446    3.6011   -1.5457 C   0  0  0  0  0  0  0  0  0  0  0  0
   -0.1821    2.6103   -2.4611 C   0  0  0  0  0  0  0  0  0  0  0  0
   -1.1304    1.6612   -2.1453 C   0  0  0  0  0  0  0  0  0  0  0  0
   -1.7650    1.6948   -0.9004 C   0  0  0  0  0  0  0  0  0  0  0  0
   -1.4314    2.6892    0.0236 C   0  0  0  0  0  0  0  0  0  0  0  0
   -2.7797    0.6804   -0.5605 C   0  0  0  0  0  0  0  0  0  0  0  0
   -2.5038   -0.6312   -0.8052 C   0  0  0  0  0  0  0  0  0  0  0  0
   -3.4696   -1.6197   -0.4832 C   0  0  0  0  0  0  0  0  0  0  0  0
   -3.2574   -2.8042   -0.6879 O   0  0  0  0  0  0  0  0  0  0  0  0
   -4.7370   -1.1610    0.1075 C   0  0  0  0  0  0  0  0  0  0  0  0
   -5.7463   -2.0675    0.4566 C   0  0  0  0  0  0  0  0  0  0  0  0
   -6.9228   -1.5969    1.0097 C   0  0  0  0  0  0  0  0  0  0  0  0
   -7.1010   -0.2334    1.2172 C   0  0  0  0  0  0  0  0  0  0  0  0
   -6.1069    0.6695    0.8737 C   0  0  0  0  0  0  0  0  0  0  0  0
   -4.9199    0.2172    0.3184 C   0  0  0  0  0  0  0  0  0  0  0  0
   -3.9405    1.0834   -0.0156 O   0  0  0  0  0  0  0  0  0  0  0  0
   -8.2602    0.2178    1.7609 O   0  0  0  0  0  0  0  0  0  0  0  0
   -5.5708   -3.3978    0.2530 O   0  0  0  0  0  0  0  0  0  0  0  0
   -1.3115   -0.9905   -1.3544 O   0  0  0  0  0  0  0  0  0  0  0  0
   -0.4646   -1.8342   -0.5716 C   0  0  0  0  0  0  0  0  0  0  0  0
    0.6420   -2.4109   -1.4584 C   0  0  0  0  0  0  0  0  0  0  0  0
    1.5010   -1.2642   -2.0003 C   0  0  0  0  0  0  0  0  0  0  0  0
    2.0598   -0.4591   -0.8231 C   0  0  0  0  0  0  0  0  0  0  0  0
    0.8984    0.0422    0.0392 C   0  0  0  0  0  0  0  0  0  0  0  0
    0.1224   -1.0718    0.4850 O   0  0  0  0  0  0  0  0  0  0  0  0
    1.4507    0.7966    1.2503 C   0  0  0  0  0  0  0  0  0  0  0  0
    0.3690    1.3637    1.9922 O   0  0  0  0  0  0  0  0  0  0  0  0
    2.9133   -1.2928   -0.0367 O   0  0  0  0  0  0  0  0  0  0  0  0
    4.1528   -0.6800    0.3239 C   0  0  0  0  0  0  0  0  0  0  0  0
    4.8779   -1.5580    1.3472 C   0  0  0  0  0  0  0  0  0  0  0  0
    6.2317   -0.9252    1.6832 C   0  0  0  0  0  0  0  0  0  0  0  0
    7.0367   -0.7523    0.3915 C   0  0  0  0  0  0  0  0  0  0  0  0
    6.2283    0.0946   -0.5948 C   0  0  0  0  0  0  0  0  0  0  0  0
    4.9689   -0.5345   -0.8401 O   0  0  0  0  0  0  0  0  0  0  0  0
    8.2724   -0.0964    0.6832 O   0  0  0  0  0  0  0  0  0  0  0  0
    6.0250    0.3509    2.2921 O   0  0  0  0  0  0  0  0  0  0  0  0
    4.0894   -1.6577    2.5348 O   0  0  0  0  0  0  0  0  0  0  0  0
    2.5804   -1.7978   -2.7698 O   0  0  0  0  0  0  0  0  0  0  0  0
    1.4580   -3.2963   -0.6889 O   0  0  0  0  0  0  0  0  0  0  0  0
    1.0794    4.5349   -1.8625 O   0  0  0  0  0  0  0  0  0  0  0  0
   -1.9173    4.6951    1.6777 H   0  0  0  0  0  0  0  0  0  0  0  0
   -0.6451    3.6502    2.3546 H   0  0  0  0  0  0  0  0  0  0  0  0
   -0.4948    5.4204    2.4642 H   0  0  0  0  0  0  0  0  0  0  0  0
    0.3076    2.5832   -3.4233 H   0  0  0  0  0  0  0  0  0  0  0  0
   -1.3831    0.8917   -2.8597 H   0  0  0  0  0  0  0  0  0  0  0  0
   -1.9191    2.7187    0.9867 H   0  0  0  0  0  0  0  0  0  0  0  0
   -7.7055   -2.2898    1.2810 H   0  0  0  0  0  0  0  0  0  0  0  0
   -6.2571    1.7262    1.0390 H   0  0  0  0  0  0  0  0  0  0  0  0
   -8.2472    0.2712    2.7264 H   0  0  0  0  0  0  0  0  0  0  0  0
   -5.1709   -3.8609    1.0018 H   0  0  0  0  0  0  0  0  0  0  0  0
   -1.0531   -2.6485   -0.1490 H   0  0  0  0  0  0  0  0  0  0  0  0
    0.1954   -2.9559   -2.2901 H   0  0  0  0  0  0  0  0  0  0  0  0
    0.8897   -0.6158   -2.6280 H   0  0  0  0  0  0  0  0  0  0  0  0
    2.6271    0.3917   -1.2003 H   0  0  0  0  0  0  0  0  0  0  0  0
    0.2702    0.7104   -0.5499 H   0  0  0  0  0  0  0  0  0  0  0  0
    2.0051    0.1065    1.8864 H   0  0  0  0  0  0  0  0  0  0  0  0
    2.1149    1.5916    0.9113 H   0  0  0  0  0  0  0  0  0  0  0  0
    0.6459    1.8578    2.7759 H   0  0  0  0  0  0  0  0  0  0  0  0
    3.9605    0.3011    0.7582 H   0  0  0  0  0  0  0  0  0  0  0  0
    5.0343   -2.5521    0.9283 H   0  0  0  0  0  0  0  0  0  0  0  0
    6.7772   -1.5737    2.3688 H   0  0  0  0  0  0  0  0  0  0  0  0
    7.2368   -1.7301   -0.0466 H   0  0  0  0  0  0  0  0  0  0  0  0
    6.0634    1.0859   -0.1727 H   0  0  0  0  0  0  0  0  0  0  0  0
    6.7780    0.1852   -1.5317 H   0  0  0  0  0  0  0  0  0  0  0  0
    8.8342    0.0462   -0.0909 H   0  0  0  0  0  0  0  0  0  0  0  0
    6.8420    0.8094    2.5317 H   0  0  0  0  0  0  0  0  0  0  0  0
    3.2149   -2.0460    2.3949 H   0  0  0  0  0  0  0  0  0  0  0  0
    2.2987   -2.3259   -3.5292 H   0  0  0  0  0  0  0  0  0  0  0  0
    0.9662   -4.0063   -0.2539 H   0  0  0  0  0  0  0  0  0  0  0  0
    1.9816    4.2869   -1.6181 H   0  0  0  0  0  0  0  0  0  0  0  0
  1  2  1  0  0  0  0
  2  3  1  0  0  0  0
  3  4  2  0  0  0  0
  4  5  1  0  0  0  0
  5  6  2  0  0  0  0
  6  7  1  0  0  0  0
  7  8  2  0  0  0  0
  3  8  1  0  0  0  0
  7  9  1  0  0  0  0
  9 10  2  0  0  0  0
 10 11  1  0  0  0  0
 11 12  2  0  0  0  0
 11 13  1  0  0  0  0
 13 14  2  0  0  0  0
 14 15  1  0  0  0  0
 15 16  2  0  0  0  0
 16 17  1  0  0  0  0
 17 18  2  0  0  0  0
 13 18  1  0  0  0  0
 18 19  1  0  0  0  0
  9 19  1  0  0  0  0
 16 20  1  0  0  0  0
 14 21  1  0  0  0  0
 10 22  1  0  0  0  0
 22 23  1  0  0  0  0
 23 24  1  0  0  0  0
 24 25  1  0  0  0  0
 25 26  1  0  0  0  0
 26 27  1  0  0  0  0
 27 28  1  0  0  0  0
 23 28  1  0  0  0  0
 27 29  1  0  0  0  0
 29 30  1  0  0  0  0
 26 31  1  0  0  0  0
 31 32  1  0  0  0  0
 32 33  1  0  0  0  0
 33 34  1  0  0  0  0
 34 35  1  0  0  0  0
 35 36  1  0  0  0  0
 36 37  1  0  0  0  0
 32 37  1  0  0  0  0
 35 38  1  0  0  0  0
 34 39  1  0  0  0  0
 33 40  1  0  0  0  0
 25 41  1  0  0  0  0
 24 42  1  0  0  0  0
  4 43  1  0  0  0  0
  1 44  1  0  0  0  0
  1 45  1  0  0  0  0
  1 46  1  0  0  0  0
  5 47  1  0  0  0  0
  6 48  1  0  0  0  0
  8 49  1  0  0  0  0
 15 50  1  0  0  0  0
 17 51  1  0  0  0  0
 20 52  1  0  0  0  0
 21 53  1  0  0  0  0
 23 54  1  0  0  0  0
 24 55  1  0  0  0  0
 25 56  1  0  0  0  0
 26 57  1  0  0  0  0
 27 58  1  0  0  0  0
 29 59  1  0  0  0  0
 29 60  1  0  0  0  0
 30 61  1  0  0  0  0
 32 62  1  0  0  0  0
 33 63  1  0  0  0  0
 34 64  1  0  0  0  0
 35 65  1  0  0  0  0
 36 66  1  0  0  0  0
 36 67  1  0  0  0  0
 38 68  1  0  0  0  0
 39 69  1  0  0  0  0
 40 70  1  0  0  0  0
 41 71  1  0  0  0  0
 42 72  1  0  0  0  0
 43 73  1  0  0  0  0
M  END
$$$$
