C20H19O11
APtclcactv06291802473D 0   0.00000     0.00000
 
 50 53  0  0  0  0  0  0  0  0999 V2000
   -2.4730   -3.4013   -0.4953 C   0  0  0  0  0  0  0  0  0  0  0  0
   -3.9488   -3.0678   -0.2618 C   0  0  0  0  0  0  0  0  0  0  0  0
   -4.0779   -2.2185    1.0064 C   0  0  0  0  0  0  0  0  0  0  0  0
   -3.2146   -0.9621    0.8563 C   0  0  0  0  0  0  0  0  0  0  0  0
   -1.7672   -1.3769    0.5797 C   0  0  0  0  0  0  0  0  0  0  0  0
   -1.7222   -2.1895   -0.5949 O   0  0  0  0  0  0  0  0  0  0  0  0
   -0.9663   -0.2099    0.3829 O   0  0  0  0  0  0  0  0  0  0  0  0
    0.3711   -0.3981    0.2289 C   0  0  0  0  0  0  0  0  0  0  0  0
    1.2391    0.6908    0.0300 C   0  0  0  0  0  0  0  0  0  0  0  0
    2.4331    0.5582   -0.1099 O   0  3  0  0  0  0  0  0  0  0  0  0
    3.0244   -0.5062   -0.0973 C   0  0  0  0  0  0  0  0  0  0  0  0
    4.4163   -0.5534   -0.2687 C   0  0  0  0  0  0  0  0  0  0  0  0
    5.0692   -1.7666   -0.2513 C   0  0  0  0  0  0  0  0  0  0  0  0
    4.3667   -2.9588   -0.0649 C   0  0  0  0  0  0  0  0  0  0  0  0
    3.0102   -2.9467    0.1045 C   0  0  0  0  0  0  0  0  0  0  0  0
    2.3188   -1.7215    0.0914 C   0  0  0  0  0  0  0  0  0  0  0  0
    0.9207   -1.6613    0.2685 C   0  0  0  0  0  0  0  0  0  0  0  0
    2.3343   -4.1102    0.2847 O   0  0  0  0  0  0  0  0  0  0  0  0
    6.4164   -1.8034   -0.4183 O   0  0  0  0  0  0  0  0  0  0  0  0
    0.6678    2.0546   -0.0102 C   0  0  0  0  0  0  0  0  0  0  0  0
    1.3433    3.1135    0.5984 C   0  0  0  0  0  0  0  0  0  0  0  0
    0.8075    4.3881    0.5592 C   0  0  0  0  0  0  0  0  0  0  0  0
   -0.4045    4.6150   -0.0861 C   0  0  0  0  0  0  0  0  0  0  0  0
   -1.0800    3.5605   -0.6932 C   0  0  0  0  0  0  0  0  0  0  0  0
   -0.5448    2.2854   -0.6617 C   0  0  0  0  0  0  0  0  0  0  0  0
   -2.2645    3.7848   -1.3227 O   0  0  0  0  0  0  0  0  0  0  0  0
   -0.9297    5.8687   -0.1231 O   0  0  0  0  0  0  0  0  0  0  0  0
    1.4653    5.4203    1.1520 O   0  0  0  0  0  0  0  0  0  0  0  0
   -3.7021   -0.1749   -0.2321 O   0  0  0  0  0  0  0  0  0  0  0  0
   -5.4436   -1.8408    1.1919 O   0  0  0  0  0  0  0  0  0  0  0  0
   -4.4558   -2.3364   -1.3799 O   0  0  0  0  0  0  0  0  0  0  0  0
   -2.0979   -3.9938    0.3392 H   0  0  0  0  0  0  0  0  0  0  0  0
   -2.3706   -3.9695   -1.4198 H   0  0  0  0  0  0  0  0  0  0  0  0
   -4.5162   -3.9906   -0.1415 H   0  0  0  0  0  0  0  0  0  0  0  0
   -3.7373   -2.7942    1.8670 H   0  0  0  0  0  0  0  0  0  0  0  0
   -3.2570   -0.3790    1.7763 H   0  0  0  0  0  0  0  0  0  0  0  0
   -1.3828   -1.9430    1.4283 H   0  0  0  0  0  0  0  0  0  0  0  0
    4.9748    0.3594   -0.4143 H   0  0  0  0  0  0  0  0  0  0  0  0
    4.8993   -3.8983   -0.0548 H   0  0  0  0  0  0  0  0  0  0  0  0
    0.3207   -2.5461    0.4216 H   0  0  0  0  0  0  0  0  0  0  0  0
    2.2482   -4.3757    1.2105 H   0  0  0  0  0  0  0  0  0  0  0  0
    6.9169   -1.7422    0.4068 H   0  0  0  0  0  0  0  0  0  0  0  0
    2.2835    2.9378    1.0999 H   0  0  0  0  0  0  0  0  0  0  0  0
   -1.0691    1.4675   -1.1333 H   0  0  0  0  0  0  0  0  0  0  0  0
   -2.1760    4.0081   -2.2594 H   0  0  0  0  0  0  0  0  0  0  0  0
   -0.6503    6.3897   -0.8882 H   0  0  0  0  0  0  0  0  0  0  0  0
    2.0871    5.8770    0.5691 H   0  0  0  0  0  0  0  0  0  0  0  0
   -3.2012    0.6380   -0.3850 H   0  0  0  0  0  0  0  0  0  0  0  0
   -6.0490   -2.5888    1.2873 H   0  0  0  0  0  0  0  0  0  0  0  0
   -4.4008   -2.8132   -2.2194 H   0  0  0  0  0  0  0  0  0  0  0  0
  1  2  1  0  0  0  0
  2  3  1  0  0  0  0
  3  4  1  0  0  0  0
  4  5  1  0  0  0  0
  5  6  1  0  0  0  0
  1  6  1  0  0  0  0
  5  7  1  0  0  0  0
  7  8  1  0  0  0  0
  8  9  2  0  0  0  0
  9 10  1  0  0  0  0
 10 11  2  0  0  0  0
 11 12  1  0  0  0  0
 12 13  2  0  0  0  0
 13 14  1  0  0  0  0
 14 15  2  0  0  0  0
 15 16  1  0  0  0  0
 11 16  1  0  0  0  0
 16 17  2  0  0  0  0
  8 17  1  0  0  0  0
 15 18  1  0  0  0  0
 13 19  1  0  0  0  0
  9 20  1  0  0  0  0
 20 21  2  0  0  0  0
 21 22  1  0  0  0  0
 22 23  2  0  0  0  0
 23 24  1  0  0  0  0
 24 25  2  0  0  0  0
 20 25  1  0  0  0  0
 24 26  1  0  0  0  0
 23 27  1  0  0  0  0
 22 28  1  0  0  0  0
  4 29  1  0  0  0  0
  3 30  1  0  0  0  0
  2 31  1  0  0  0  0
  1 32  1  0  0  0  0
  1 33  1  0  0  0  0
  2 34  1  0  0  0  0
  3 35  1  0  0  0  0
  4 36  1  0  0  0  0
  5 37  1  0  0  0  0
 12 38  1  0  0  0  0
 14 39  1  0  0  0  0
 17 40  1  0  0  0  0
 18 41  1  0  0  0  0
 19 42  1  0  0  0  0
 21 43  1  0  0  0  0
 25 44  1  0  0  0  0
 26 45  1  0  0  0  0
 27 46  1  0  0  0  0
 28 47  1  0  0  0  0
 29 48  1  0  0  0  0
 30 49  1  0  0  0  0
 31 50  1  0  0  0  0
M  CHG  1  10   1
M  END
$$$$
