C18H14N4O8S2
APtclcactv06211806463D 0   0.00000     0.00000
 
 46 48  0  0  0  0  0  0  0  0999 V2000
    0.7555    2.8611   -1.1567 C   0  0  0  0  0  0  0  0  0  0  0  0
   -0.6233    2.8588   -1.2337 C   0  0  0  0  0  0  0  0  0  0  0  0
   -1.3836    2.8558   -0.0718 C   0  0  0  0  0  0  0  0  0  0  0  0
   -0.7574    2.8547    1.1676 C   0  0  0  0  0  0  0  0  0  0  0  0
    0.6214    2.8561    1.2446 C   0  0  0  0  0  0  0  0  0  0  0  0
    1.3817    2.8605    0.0827 C   0  0  0  0  0  0  0  0  0  0  0  0
    2.7795    2.8615    0.1607 N   0  0  0  0  0  0  0  0  0  0  0  0
    3.6623    1.8282   -0.7855 S   0  0  0  0  0  0  0  0  0  0  0  0
    3.1351    1.9388   -2.1004 O   0  0  0  0  0  0  0  0  0  0  0  0
    5.0280    2.0661   -0.4732 O   0  0  0  0  0  0  0  0  0  0  0  0
    3.3057    0.1904   -0.2425 C   0  0  0  0  0  0  0  0  0  0  0  0
    2.2160   -0.4866   -0.7573 C   0  0  0  0  0  0  0  0  0  0  0  0
    1.9362   -1.7716   -0.3313 C   0  0  0  0  0  0  0  0  0  0  0  0
    2.7464   -2.3797    0.6093 C   0  0  0  0  0  0  0  0  0  0  0  0
    3.8366   -1.7030    1.1235 C   0  0  0  0  0  0  0  0  0  0  0  0
    4.1189   -0.4197    0.6942 C   0  0  0  0  0  0  0  0  0  0  0  0
    2.4462   -3.7552    1.0662 N   0  3  0  0  0  0  0  0  0  0  0  0
    1.4853   -4.3513    0.6134 O   0  0  0  0  0  0  0  0  0  0  0  0
    3.1601   -4.2911    1.8950 O   0  5  0  0  0  0  0  0  0  0  0  0
   -2.7814    2.8544   -0.1498 N   0  0  0  0  0  0  0  0  0  0  0  0
   -3.6623    1.8168    0.7935 S   0  0  0  0  0  0  0  0  0  0  0  0
   -3.1333    1.9225    2.1081 O   0  0  0  0  0  0  0  0  0  0  0  0
   -5.0286    2.0550    0.4840 O   0  0  0  0  0  0  0  0  0  0  0  0
   -3.3054    0.1813    0.2435 C   0  0  0  0  0  0  0  0  0  0  0  0
   -2.3395   -0.5691    0.8875 C   0  0  0  0  0  0  0  0  0  0  0  0
   -2.0594   -1.8522    0.4560 C   0  0  0  0  0  0  0  0  0  0  0  0
   -2.7457   -2.3850   -0.6192 C   0  0  0  0  0  0  0  0  0  0  0  0
   -3.7123   -1.6349   -1.2626 C   0  0  0  0  0  0  0  0  0  0  0  0
   -3.9953   -0.3534   -0.8284 C   0  0  0  0  0  0  0  0  0  0  0  0
   -2.4452   -3.7585   -1.0818 N   0  3  0  0  0  0  0  0  0  0  0  0
   -1.5932   -4.4193   -0.5151 O   0  0  0  0  0  0  0  0  0  0  0  0
   -3.0498   -4.2280   -2.0292 O   0  5  0  0  0  0  0  0  0  0  0  0
    1.3468    2.8589   -2.0605 H   0  0  0  0  0  0  0  0  0  0  0  0
   -1.1103    2.8596   -2.1977 H   0  0  0  0  0  0  0  0  0  0  0  0
   -1.3487    2.8531    2.0714 H   0  0  0  0  0  0  0  0  0  0  0  0
    1.1084    2.8560    2.2086 H   0  0  0  0  0  0  0  0  0  0  0  0
    3.2308    3.4674    0.7691 H   0  0  0  0  0  0  0  0  0  0  0  0
    1.5830   -0.0115   -1.4922 H   0  0  0  0  0  0  0  0  0  0  0  0
    1.0844   -2.3002   -0.7330 H   0  0  0  0  0  0  0  0  0  0  0  0
    4.4694   -2.1780    1.8586 H   0  0  0  0  0  0  0  0  0  0  0  0
    4.9707    0.1090    1.0960 H   0  0  0  0  0  0  0  0  0  0  0  0
   -3.2339    3.4611   -0.7565 H   0  0  0  0  0  0  0  0  0  0  0  0
   -1.8033   -0.1528    1.7276 H   0  0  0  0  0  0  0  0  0  0  0  0
   -1.3043   -2.4382    0.9587 H   0  0  0  0  0  0  0  0  0  0  0  0
   -4.2481   -2.0511   -2.1029 H   0  0  0  0  0  0  0  0  0  0  0  0
   -4.7505    0.2326   -1.3311 H   0  0  0  0  0  0  0  0  0  0  0  0
  1  2  2  0  0  0  0
  2  3  1  0  0  0  0
  3  4  2  0  0  0  0
  4  5  1  0  0  0  0
  5  6  2  0  0  0  0
  1  6  1  0  0  0  0
  6  7  1  0  0  0  0
  7  8  1  0  0  0  0
  8  9  2  0  0  0  0
  8 10  2  0  0  0  0
  8 11  1  0  0  0  0
 11 12  2  0  0  0  0
 12 13  1  0  0  0  0
 13 14  2  0  0  0  0
 14 15  1  0  0  0  0
 15 16  2  0  0  0  0
 11 16  1  0  0  0  0
 14 17  1  0  0  0  0
 17 18  2  0  0  0  0
 17 19  1  0  0  0  0
  3 20  1  0  0  0  0
 20 21  1  0  0  0  0
 21 22  2  0  0  0  0
 21 23  2  0  0  0  0
 21 24  1  0  0  0  0
 24 25  2  0  0  0  0
 25 26  1  0  0  0  0
 26 27  2  0  0  0  0
 27 28  1  0  0  0  0
 28 29  2  0  0  0  0
 24 29  1  0  0  0  0
 27 30  1  0  0  0  0
 30 31  2  0  0  0  0
 30 32  1  0  0  0  0
  1 33  1  0  0  0  0
  2 34  1  0  0  0  0
  4 35  1  0  0  0  0
  5 36  1  0  0  0  0
  7 37  1  0  0  0  0
 12 38  1  0  0  0  0
 13 39  1  0  0  0  0
 15 40  1  0  0  0  0
 16 41  1  0  0  0  0
 20 42  1  0  0  0  0
 25 43  1  0  0  0  0
 26 44  1  0  0  0  0
 28 45  1  0  0  0  0
 29 46  1  0  0  0  0
M  CHG  4  17   1  19  -1  30   1  32  -1
M  END
$$$$
