C17H14O5
APtclcactv06291802473D 0   0.00000     0.00000
 
 36 38  0  0  0  0  0  0  0  0999 V2000
    2.5551    3.2527   -0.8152 C   0  0  0  0  0  0  0  0  0  0  0  0
    3.3652    2.1504   -0.4021 O   0  0  0  0  0  0  0  0  0  0  0  0
    2.7227    0.9894   -0.1042 C   0  0  0  0  0  0  0  0  0  0  0  0
    1.3463    0.9158   -0.2077 C   0  0  0  0  0  0  0  0  0  0  0  0
    0.6866   -0.2779    0.0983 C   0  0  0  0  0  0  0  0  0  0  0  0
    1.4212   -1.3938    0.5081 C   0  0  0  0  0  0  0  0  0  0  0  0
    2.7977   -1.3143    0.6099 C   0  0  0  0  0  0  0  0  0  0  0  0
    3.4525   -0.1257    0.2994 C   0  0  0  0  0  0  0  0  0  0  0  0
    4.8059   -0.0504    0.4004 O   0  0  0  0  0  0  0  0  0  0  0  0
    5.5633   -0.3921   -0.7623 C   0  0  0  0  0  0  0  0  0  0  0  0
    3.5132   -2.3998    1.0091 O   0  0  0  0  0  0  0  0  0  0  0  0
   -0.7819   -0.3595   -0.0108 C   0  0  0  0  0  0  0  0  0  0  0  0
   -1.3389   -1.4953   -0.5146 C   0  0  0  0  0  0  0  0  0  0  0  0
   -2.7443   -1.5914   -0.6265 C   0  0  0  0  0  0  0  0  0  0  0  0
   -3.2780   -2.5936   -1.0727 O   0  0  0  0  0  0  0  0  0  0  0  0
   -3.5416   -0.4307   -0.1814 C   0  0  0  0  0  0  0  0  0  0  0  0
   -4.9330   -0.4365   -0.2543 C   0  0  0  0  0  0  0  0  0  0  0  0
   -5.6410    0.6667    0.1717 C   0  0  0  0  0  0  0  0  0  0  0  0
   -4.9744    1.7760    0.6699 C   0  0  0  0  0  0  0  0  0  0  0  0
   -3.5975    1.7935    0.7470 C   0  0  0  0  0  0  0  0  0  0  0  0
   -2.8656    0.6917    0.3228 C   0  0  0  0  0  0  0  0  0  0  0  0
   -1.5181    0.6866    0.3953 O   0  0  0  0  0  0  0  0  0  0  0  0
    3.1909    4.1137   -1.0216 H   0  0  0  0  0  0  0  0  0  0  0  0
    2.0059    2.9821   -1.7171 H   0  0  0  0  0  0  0  0  0  0  0  0
    1.8505    3.5031   -0.0222 H   0  0  0  0  0  0  0  0  0  0  0  0
    0.7811    1.7799   -0.5244 H   0  0  0  0  0  0  0  0  0  0  0  0
    0.9140   -2.3173    0.7455 H   0  0  0  0  0  0  0  0  0  0  0  0
    5.3476   -1.4220   -1.0466 H   0  0  0  0  0  0  0  0  0  0  0  0
    5.2931    0.2750   -1.5809 H   0  0  0  0  0  0  0  0  0  0  0  0
    6.6267   -0.2899   -0.5462 H   0  0  0  0  0  0  0  0  0  0  0  0
    3.7973   -2.9723    0.2834 H   0  0  0  0  0  0  0  0  0  0  0  0
   -0.7110   -2.3168   -0.8267 H   0  0  0  0  0  0  0  0  0  0  0  0
   -5.4533   -1.2996   -0.6424 H   0  0  0  0  0  0  0  0  0  0  0  0
   -6.7197    0.6673    0.1170 H   0  0  0  0  0  0  0  0  0  0  0  0
   -5.5392    2.6350    1.0006 H   0  0  0  0  0  0  0  0  0  0  0  0
   -3.0889    2.6630    1.1364 H   0  0  0  0  0  0  0  0  0  0  0  0
  1  2  1  0  0  0  0
  2  3  1  0  0  0  0
  3  4  2  0  0  0  0
  4  5  1  0  0  0  0
  5  6  2  0  0  0  0
  6  7  1  0  0  0  0
  7  8  2  0  0  0  0
  3  8  1  0  0  0  0
  8  9  1  0  0  0  0
  9 10  1  0  0  0  0
  7 11  1  0  0  0  0
  5 12  1  0  0  0  0
 12 13  2  0  0  0  0
 13 14  1  0  0  0  0
 14 15  2  0  0  0  0
 14 16  1  0  0  0  0
 16 17  2  0  0  0  0
 17 18  1  0  0  0  0
 18 19  2  0  0  0  0
 19 20  1  0  0  0  0
 20 21  2  0  0  0  0
 16 21  1  0  0  0  0
 21 22  1  0  0  0  0
 12 22  1  0  0  0  0
  1 23  1  0  0  0  0
  1 24  1  0  0  0  0
  1 25  1  0  0  0  0
  4 26  1  0  0  0  0
  6 27  1  0  0  0  0
 10 28  1  0  0  0  0
 10 29  1  0  0  0  0
 10 30  1  0  0  0  0
 11 31  1  0  0  0  0
 13 32  1  0  0  0  0
 17 33  1  0  0  0  0
 18 34  1  0  0  0  0
 19 35  1  0  0  0  0
 20 36  1  0  0  0  0
M  END
$$$$
