C19H21NO3
APtclcactv06291802473D 0   0.00000     0.00000
 
 44 45  0  0  0  0  0  0  0  0999 V2000
   -0.4096    2.3873   -0.4216 C   0  0  0  0  0  0  0  0  0  0  0  0
    0.0913    1.0155   -0.5371 N   0  0  0  0  0  0  0  0  0  0  0  0
    1.5250    0.7716   -0.7138 C   0  0  0  0  0  0  0  0  0  0  0  0
    2.1904    0.6269    0.6563 C   0  0  0  0  0  0  0  0  0  0  0  0
    3.6652    0.3760    0.4746 C   0  0  0  0  0  0  0  0  0  0  0  0
    4.5446    1.4415    0.4170 C   0  0  0  0  0  0  0  0  0  0  0  0
    5.8970    1.2142    0.2504 C   0  0  0  0  0  0  0  0  0  0  0  0
    6.3726   -0.0845    0.1409 C   0  0  0  0  0  0  0  0  0  0  0  0
    5.4882   -1.1518    0.1991 C   0  0  0  0  0  0  0  0  0  0  0  0
    4.1374   -0.9194    0.3714 C   0  0  0  0  0  0  0  0  0  0  0  0
    7.7025   -0.3107   -0.0234 O   0  0  0  0  0  0  0  0  0  0  0  0
    8.1207   -1.6730   -0.1289 C   0  0  0  0  0  0  0  0  0  0  0  0
   -0.7668   -0.0223   -0.4808 C   0  0  0  0  0  0  0  0  0  0  0  0
   -0.3506   -1.1621   -0.5767 O   0  0  0  0  0  0  0  0  0  0  0  0
   -2.1982    0.2212   -0.3044 C   0  0  0  0  0  0  0  0  0  0  0  0
   -3.0576   -0.8181   -0.2480 C   0  0  0  0  0  0  0  0  0  0  0  0
   -4.4962   -0.5734   -0.0707 C   0  0  0  0  0  0  0  0  0  0  0  0
   -5.3896   -1.6493   -0.0119 C   0  0  0  0  0  0  0  0  0  0  0  0
   -6.7358   -1.4148    0.1547 C   0  0  0  0  0  0  0  0  0  0  0  0
   -7.2086   -0.1121    0.2640 C   0  0  0  0  0  0  0  0  0  0  0  0
   -6.3255    0.9601    0.2058 C   0  0  0  0  0  0  0  0  0  0  0  0
   -4.9767    0.7361    0.0457 C   0  0  0  0  0  0  0  0  0  0  0  0
   -8.5370    0.1139    0.4278 O   0  0  0  0  0  0  0  0  0  0  0  0
   -0.6523    2.7701   -1.4129 H   0  0  0  0  0  0  0  0  0  0  0  0
   -1.3046    2.3961    0.2004 H   0  0  0  0  0  0  0  0  0  0  0  0
    0.3554    3.0163    0.0336 H   0  0  0  0  0  0  0  0  0  0  0  0
    1.6699   -0.1444   -1.2866 H   0  0  0  0  0  0  0  0  0  0  0  0
    1.9729    1.6092   -1.2485 H   0  0  0  0  0  0  0  0  0  0  0  0
    2.0455    1.5429    1.2292 H   0  0  0  0  0  0  0  0  0  0  0  0
    1.7426   -0.2107    1.1911 H   0  0  0  0  0  0  0  0  0  0  0  0
    4.1738    2.4523    0.5019 H   0  0  0  0  0  0  0  0  0  0  0  0
    6.5834    2.0468    0.2051 H   0  0  0  0  0  0  0  0  0  0  0  0
    5.8560   -2.1637    0.1141 H   0  0  0  0  0  0  0  0  0  0  0  0
    3.4485   -1.7499    0.4167 H   0  0  0  0  0  0  0  0  0  0  0  0
    7.8422   -2.2098    0.7780 H   0  0  0  0  0  0  0  0  0  0  0  0
    7.6364   -2.1362   -0.9885 H   0  0  0  0  0  0  0  0  0  0  0  0
    9.2025   -1.7122   -0.2565 H   0  0  0  0  0  0  0  0  0  0  0  0
   -2.5675    1.2325   -0.2193 H   0  0  0  0  0  0  0  0  0  0  0  0
   -2.6883   -1.8294   -0.3331 H   0  0  0  0  0  0  0  0  0  0  0  0
   -5.0234   -2.6618   -0.0975 H   0  0  0  0  0  0  0  0  0  0  0  0
   -7.4259   -2.2443    0.2002 H   0  0  0  0  0  0  0  0  0  0  0  0
   -6.6979    1.9703    0.2906 H   0  0  0  0  0  0  0  0  0  0  0  0
   -4.2915    1.5697    0.0009 H   0  0  0  0  0  0  0  0  0  0  0  0
   -8.8200    0.1427    1.3520 H   0  0  0  0  0  0  0  0  0  0  0  0
  1  2  1  0  0  0  0
  2  3  1  0  0  0  0
  3  4  1  0  0  0  0
  4  5  1  0  0  0  0
  5  6  2  0  0  0  0
  6  7  1  0  0  0  0
  7  8  2  0  0  0  0
  8  9  1  0  0  0  0
  9 10  2  0  0  0  0
  5 10  1  0  0  0  0
  8 11  1  0  0  0  0
 11 12  1  0  0  0  0
  2 13  1  0  0  0  0
 13 14  2  0  0  0  0
 13 15  1  0  0  0  0
 15 16  2  0  0  0  0
 16 17  1  0  0  0  0
 17 18  2  0  0  0  0
 18 19  1  0  0  0  0
 19 20  2  0  0  0  0
 20 21  1  0  0  0  0
 21 22  2  0  0  0  0
 17 22  1  0  0  0  0
 20 23  1  0  0  0  0
  1 24  1  0  0  0  0
  1 25  1  0  0  0  0
  1 26  1  0  0  0  0
  3 27  1  0  0  0  0
  3 28  1  0  0  0  0
  4 29  1  0  0  0  0
  4 30  1  0  0  0  0
  6 31  1  0  0  0  0
  7 32  1  0  0  0  0
  9 33  1  0  0  0  0
 10 34  1  0  0  0  0
 12 35  1  0  0  0  0
 12 36  1  0  0  0  0
 12 37  1  0  0  0  0
 15 38  1  0  0  0  0
 16 39  1  0  0  0  0
 18 40  1  0  0  0  0
 19 41  1  0  0  0  0
 21 42  1  0  0  0  0
 22 43  1  0  0  0  0
 23 44  1  0  0  0  0
M  END
$$$$
