C20H18O5
APtclcactv06291802473D 0   0.00000     0.00000
 
 43 46  0  0  0  0  0  0  0  0999 V2000
   -5.2939   -2.4729   -0.5430 C   0  0  0  0  0  0  0  0  0  0  0  0
   -4.2596   -2.5624    0.5493 C   0  0  0  0  0  0  0  0  0  0  0  0
   -3.0643   -2.0598    0.3623 C   0  0  0  0  0  0  0  0  0  0  0  0
   -2.7614   -1.2834   -0.8933 C   0  0  0  0  0  0  0  0  0  0  0  0
   -2.2125    0.0712   -0.5261 C   0  0  0  0  0  0  0  0  0  0  0  0
   -0.8481    0.2778   -0.3586 C   0  0  0  0  0  0  0  0  0  0  0  0
   -0.3458    1.5605   -0.0103 C   0  0  0  0  0  0  0  0  0  0  0  0
   -1.2018    2.6522    0.1720 C   0  0  0  0  0  0  0  0  0  0  0  0
   -2.5578    2.4225   -0.0011 C   0  0  0  0  0  0  0  0  0  0  0  0
   -3.0485    1.1654   -0.3468 C   0  0  0  0  0  0  0  0  0  0  0  0
   -4.3897    1.0018   -0.5018 O   0  0  0  0  0  0  0  0  0  0  0  0
   -3.4312    3.4524    0.1650 O   0  0  0  0  0  0  0  0  0  0  0  0
    1.0821    1.4023    0.0817 C   0  0  0  0  0  0  0  0  0  0  0  0
    1.3406    0.0837   -0.2053 C   0  0  0  0  0  0  0  0  0  0  0  0
    0.1966   -0.5574   -0.4673 O   0  0  0  0  0  0  0  0  0  0  0  0
    2.7394   -0.3881   -0.1764 C   0  0  0  0  0  0  0  0  0  0  0  0
    3.6836    0.4729    0.4145 C   0  0  0  0  0  0  0  0  0  0  0  0
    5.0122    0.0869    0.4481 C   0  0  0  0  0  0  0  0  0  0  0  0
    5.3943   -1.1360   -0.0835 C   0  0  0  0  0  0  0  0  0  0  0  0
    4.4546   -1.9852   -0.6548 C   0  0  0  0  0  0  0  0  0  0  0  0
    3.1257   -1.6118   -0.7023 C   0  0  0  0  0  0  0  0  0  0  0  0
    6.7007   -1.5070   -0.0455 O   0  0  0  0  0  0  0  0  0  0  0  0
    3.2923    1.6486    0.9636 O   0  0  0  0  0  0  0  0  0  0  0  0
    2.1881    2.3676    0.4069 C   0  0  0  0  0  0  0  0  0  0  0  0
   -4.6002   -3.2299    1.8568 C   0  0  0  0  0  0  0  0  0  0  0  0
   -4.8933   -2.9068   -1.4592 H   0  0  0  0  0  0  0  0  0  0  0  0
   -6.1877   -3.0198   -0.2426 H   0  0  0  0  0  0  0  0  0  0  0  0
   -5.5490   -1.4276   -0.7172 H   0  0  0  0  0  0  0  0  0  0  0  0
   -2.2960   -2.2020    1.1079 H   0  0  0  0  0  0  0  0  0  0  0  0
   -2.0250   -1.8251   -1.4867 H   0  0  0  0  0  0  0  0  0  0  0  0
   -3.6758   -1.1597   -1.4735 H   0  0  0  0  0  0  0  0  0  0  0  0
   -0.8235    3.6287    0.4358 H   0  0  0  0  0  0  0  0  0  0  0  0
   -4.7039    1.1610   -1.4024 H   0  0  0  0  0  0  0  0  0  0  0  0
   -3.6085    3.9520   -0.6437 H   0  0  0  0  0  0  0  0  0  0  0  0
    5.7524    0.7386    0.8884 H   0  0  0  0  0  0  0  0  0  0  0  0
    4.7633   -2.9369   -1.0615 H   0  0  0  0  0  0  0  0  0  0  0  0
    2.3922   -2.2683   -1.1468 H   0  0  0  0  0  0  0  0  0  0  0  0
    6.9475   -1.9969    0.7509 H   0  0  0  0  0  0  0  0  0  0  0  0
    2.5065    2.8763   -0.5030 H   0  0  0  0  0  0  0  0  0  0  0  0
    1.8302    3.1015    1.1290 H   0  0  0  0  0  0  0  0  0  0  0  0
   -4.3624   -4.2919    1.7953 H   0  0  0  0  0  0  0  0  0  0  0  0
   -4.0207   -2.7737    2.6594 H   0  0  0  0  0  0  0  0  0  0  0  0
   -5.6637   -3.1070    2.0613 H   0  0  0  0  0  0  0  0  0  0  0  0
  1  2  1  0  0  0  0
  2  3  2  0  0  0  0
  3  4  1  0  0  0  0
  4  5  1  0  0  0  0
  5  6  2  0  0  0  0
  6  7  1  0  0  0  0
  7  8  2  0  0  0  0
  8  9  1  0  0  0  0
  9 10  2  0  0  0  0
  5 10  1  0  0  0  0
 10 11  1  0  0  0  0
  9 12  1  0  0  0  0
  7 13  1  0  0  0  0
 13 14  2  0  0  0  0
 14 15  1  0  0  0  0
  6 15  1  0  0  0  0
 14 16  1  0  0  0  0
 16 17  2  0  0  0  0
 17 18  1  0  0  0  0
 18 19  2  0  0  0  0
 19 20  1  0  0  0  0
 20 21  2  0  0  0  0
 16 21  1  0  0  0  0
 19 22  1  0  0  0  0
 17 23  1  0  0  0  0
 23 24  1  0  0  0  0
 13 24  1  0  0  0  0
  2 25  1  0  0  0  0
  1 26  1  0  0  0  0
  1 27  1  0  0  0  0
  1 28  1  0  0  0  0
  3 29  1  0  0  0  0
  4 30  1  0  0  0  0
  4 31  1  0  0  0  0
  8 32  1  0  0  0  0
 11 33  1  0  0  0  0
 12 34  1  0  0  0  0
 18 35  1  0  0  0  0
 20 36  1  0  0  0  0
 21 37  1  0  0  0  0
 22 38  1  0  0  0  0
 24 39  1  0  0  0  0
 24 40  1  0  0  0  0
 25 41  1  0  0  0  0
 25 42  1  0  0  0  0
 25 43  1  0  0  0  0
M  END
$$$$
