C20H27O6
APtclcactv06291802473D 0   0.00000     0.00000
 
 53 56  0  0  0  0  0  0  0  0999 V2000
    2.9057   -0.8900   -1.1516 C   0  0  0  0  0  0  0  0  0  0  0  0
    2.5870   -0.5766    0.3070 C   0  0  0  0  0  0  0  0  0  0  0  0
    3.4361    0.6403    0.7423 C   0  0  0  0  0  0  0  0  0  0  0  0
    2.9118    1.9305    0.1247 C   0  0  0  0  0  0  0  0  0  0  0  0
    1.4521    2.1817    0.5163 C   0  0  0  0  0  0  0  0  0  0  0  0
    0.5984    1.0232    0.0258 C   0  0  0  0  0  0  0  0  0  0  0  0
    1.1603   -0.2861    0.6270 C   0  0  0  0  0  0  0  0  0  0  0  0
    0.0489   -1.3195    0.4699 C   0  0  0  0  0  0  0  0  0  0  0  0
   -1.2350   -0.4883    0.5171 C   0  0  0  0  0  0  0  0  0  0  0  0
   -0.8045    0.9832    0.6165 C   0  0  0  0  0  0  0  0  0  0  0  0
   -1.8117    2.0074    0.2719 C   0  0  0  0  0  0  0  0  0  0  0  0
   -3.0220    1.5624   -0.5221 C   0  0  0  0  0  0  0  0  0  0  0  0
   -3.3780    0.1004   -0.2699 C   0  0  0  0  0  0  0  0  0  0  0  0
   -2.1250   -0.7156   -0.7170 C   0  0  0  0  0  0  0  0  0  0  0  0
   -3.5137   -0.1952    1.2110 C   0  0  0  0  0  0  0  0  0  0  0  0
   -4.5752    0.0096    1.9512 C   0  0  0  0  0  0  0  0  0  0  0  0
   -2.1841   -0.7794    1.6829 C   0  0  0  0  0  0  0  0  0  0  0  0
   -4.5418   -0.2909   -0.9964 O   0  0  0  0  0  0  0  0  0  0  0  0
    0.1210   -2.1614   -0.7631 C   0  0  0  0  0  0  0  0  0  0  0  0
    0.1222   -3.3772   -0.6718 O   0  0  0  0  0  0  0  0  0  0  0  0
    0.1787   -1.6324   -1.8600 O   0  5  0  0  0  0  0  0  0  0  0  0
    0.5123    1.0569   -1.4963 C   0  0  0  0  0  0  0  0  0  0  0  0
   -0.0093    2.3193   -1.9160 O   0  0  0  0  0  0  0  0  0  0  0  0
    3.7101    3.0217    0.6025 O   0  0  0  0  0  0  0  0  0  0  0  0
    3.0524   -1.7596    1.1486 C   0  0  0  0  0  0  0  0  0  0  0  0
    3.5682   -2.7132    0.6168 O   0  0  0  0  0  0  0  0  0  0  0  0
    3.9235   -1.2726   -1.2270 H   0  0  0  0  0  0  0  0  0  0  0  0
    2.2072   -1.6399   -1.5231 H   0  0  0  0  0  0  0  0  0  0  0  0
    2.8140    0.0185   -1.7469 H   0  0  0  0  0  0  0  0  0  0  0  0
    3.4065    0.7185    1.8271 H   0  0  0  0  0  0  0  0  0  0  0  0
    4.4640    0.4790    0.4185 H   0  0  0  0  0  0  0  0  0  0  0  0
    3.0109    1.8896   -0.9572 H   0  0  0  0  0  0  0  0  0  0  0  0
    1.3667    2.2595    1.6027 H   0  0  0  0  0  0  0  0  0  0  0  0
    1.0985    3.1097    0.0616 H   0  0  0  0  0  0  0  0  0  0  0  0
    1.1751   -0.0933    1.7505 H   0  0  0  0  0  0  0  0  0  0  0  0
    0.0548   -1.9842    1.3543 H   0  0  0  0  0  0  0  0  0  0  0  0
   -0.6267    1.1344    1.6978 H   0  0  0  0  0  0  0  0  0  0  0  0
   -2.1786    2.4375    1.2063 H   0  0  0  0  0  0  0  0  0  0  0  0
   -1.3235    2.8058   -0.2806 H   0  0  0  0  0  0  0  0  0  0  0  0
   -3.8699    2.1854   -0.2443 H   0  0  0  0  0  0  0  0  0  0  0  0
   -2.8137    1.6974   -1.5815 H   0  0  0  0  0  0  0  0  0  0  0  0
   -1.7108   -0.3149   -1.6353 H   0  0  0  0  0  0  0  0  0  0  0  0
   -2.4062   -1.7680   -0.8351 H   0  0  0  0  0  0  0  0  0  0  0  0
   -5.4679    0.4285    1.5109 H   0  0  0  0  0  0  0  0  0  0  0  0
   -4.5574   -0.2406    3.0017 H   0  0  0  0  0  0  0  0  0  0  0  0
   -2.2699   -1.8521    1.8390 H   0  0  0  0  0  0  0  0  0  0  0  0
   -1.8411   -0.2766    2.5834 H   0  0  0  0  0  0  0  0  0  0  0  0
   -5.3313    0.2243   -0.7816 H   0  0  0  0  0  0  0  0  0  0  0  0
    1.5067    0.9157   -1.9197 H   0  0  0  0  0  0  0  0  0  0  0  0
   -0.1459    0.2592   -1.8407 H   0  0  0  0  0  0  0  0  0  0  0  0
   -0.0918    2.4116   -2.8751 H   0  0  0  0  0  0  0  0  0  0  0  0
    4.6484    2.9495    0.3800 H   0  0  0  0  0  0  0  0  0  0  0  0
    2.9208   -1.7447    2.2205 H   0  0  0  0  0  0  0  0  0  0  0  0
  1  2  1  0  0  0  0
  2  3  1  0  0  0  0
  3  4  1  0  0  0  0
  4  5  1  0  0  0  0
  5  6  1  0  0  0  0
  6  7  1  0  0  0  0
  2  7  1  0  0  0  0
  7  8  1  0  0  0  0
  8  9  1  0  0  0  0
  9 10  1  0  0  0  0
  6 10  1  0  0  0  0
 10 11  1  0  0  0  0
 11 12  1  0  0  0  0
 12 13  1  0  0  0  0
 13 14  1  0  0  0  0
  9 14  1  0  0  0  0
 13 15  1  0  0  0  0
 15 16  2  0  0  0  0
 15 17  1  0  0  0  0
  9 17  1  0  0  0  0
 13 18  1  0  0  0  0
  8 19  1  0  0  0  0
 19 20  2  0  0  0  0
 19 21  1  0  0  0  0
  6 22  1  0  0  0  0
 22 23  1  0  0  0  0
  4 24  1  0  0  0  0
  2 25  1  0  0  0  0
 25 26  2  0  0  0  0
  1 27  1  0  0  0  0
  1 28  1  0  0  0  0
  1 29  1  0  0  0  0
  3 30  1  0  0  0  0
  3 31  1  0  0  0  0
  4 32  1  0  0  0  0
  5 33  1  0  0  0  0
  5 34  1  0  0  0  0
  7 35  1  0  0  0  0
  8 36  1  0  0  0  0
 10 37  1  0  0  0  0
 11 38  1  0  0  0  0
 11 39  1  0  0  0  0
 12 40  1  0  0  0  0
 12 41  1  0  0  0  0
 14 42  1  0  0  0  0
 14 43  1  0  0  0  0
 16 44  1  0  0  0  0
 16 45  1  0  0  0  0
 17 46  1  0  0  0  0
 17 47  1  0  0  0  0
 18 48  1  0  0  0  0
 22 49  1  0  0  0  0
 22 50  1  0  0  0  0
 23 51  1  0  0  0  0
 24 52  1  0  0  0  0
 25 53  1  0  0  0  0
M  CHG  1  21  -1
M  END
$$$$
