C17H19NO2
APtclcactv06291802473D 0   0.00000     0.00000
 
 39 40  0  0  0  0  0  0  0  0999 V2000
   -2.0219    1.9678    0.0587 C   0  0  0  0  0  0  0  0  0  0  0  0
   -1.4051    0.6742   -0.2452 N   0  0  0  0  0  0  0  0  0  0  0  0
    0.0327    0.5936   -0.5146 C   0  0  0  0  0  0  0  0  0  0  0  0
    0.7847    0.3554    0.7964 C   0  0  0  0  0  0  0  0  0  0  0  0
    2.2636    0.2724    0.5193 C   0  0  0  0  0  0  0  0  0  0  0  0
    3.0373    1.4179    0.5521 C   0  0  0  0  0  0  0  0  0  0  0  0
    4.3932    1.3445    0.2984 C   0  0  0  0  0  0  0  0  0  0  0  0
    4.9786    0.1201    0.0105 C   0  0  0  0  0  0  0  0  0  0  0  0
    4.2002   -1.0278   -0.0218 C   0  0  0  0  0  0  0  0  0  0  0  0
    2.8456   -0.9499    0.2381 C   0  0  0  0  0  0  0  0  0  0  0  0
    6.3122    0.0454   -0.2398 O   0  0  0  0  0  0  0  0  0  0  0  0
    6.8466   -1.2481   -0.5289 C   0  0  0  0  0  0  0  0  0  0  0  0
   -2.1603   -0.4416   -0.2769 C   0  0  0  0  0  0  0  0  0  0  0  0
   -1.6342   -1.5276   -0.4232 O   0  0  0  0  0  0  0  0  0  0  0  0
   -3.6286   -0.3449   -0.1337 C   0  0  0  0  0  0  0  0  0  0  0  0
   -4.3146    0.7465   -0.6689 C   0  0  0  0  0  0  0  0  0  0  0  0
   -5.6848    0.8305   -0.5321 C   0  0  0  0  0  0  0  0  0  0  0  0
   -6.3788   -0.1638    0.1342 C   0  0  0  0  0  0  0  0  0  0  0  0
   -5.7049   -1.2483    0.6670 C   0  0  0  0  0  0  0  0  0  0  0  0
   -4.3355   -1.3473    0.5323 C   0  0  0  0  0  0  0  0  0  0  0  0
   -2.2771    2.4760   -0.8711 H   0  0  0  0  0  0  0  0  0  0  0  0
   -2.9262    1.8100    0.6465 H   0  0  0  0  0  0  0  0  0  0  0  0
   -1.3215    2.5798    0.6269 H   0  0  0  0  0  0  0  0  0  0  0  0
    0.2281   -0.2307   -1.2005 H   0  0  0  0  0  0  0  0  0  0  0  0
    0.3712    1.5275   -0.9631 H   0  0  0  0  0  0  0  0  0  0  0  0
    0.5892    1.1797    1.4823 H   0  0  0  0  0  0  0  0  0  0  0  0
    0.4461   -0.5786    1.2450 H   0  0  0  0  0  0  0  0  0  0  0  0
    2.5811    2.3709    0.7759 H   0  0  0  0  0  0  0  0  0  0  0  0
    4.9971    2.2396    0.3238 H   0  0  0  0  0  0  0  0  0  0  0  0
    4.6535   -1.9821   -0.2457 H   0  0  0  0  0  0  0  0  0  0  0  0
    2.2392   -1.8432    0.2131 H   0  0  0  0  0  0  0  0  0  0  0  0
    6.6698   -1.9117    0.3176 H   0  0  0  0  0  0  0  0  0  0  0  0
    6.3589   -1.6527   -1.4158 H   0  0  0  0  0  0  0  0  0  0  0  0
    7.9185   -1.1664   -0.7090 H   0  0  0  0  0  0  0  0  0  0  0  0
   -3.7739    1.5237   -1.1885 H   0  0  0  0  0  0  0  0  0  0  0  0
   -6.2168    1.6745   -0.9458 H   0  0  0  0  0  0  0  0  0  0  0  0
   -7.4514   -0.0929    0.2391 H   0  0  0  0  0  0  0  0  0  0  0  0
   -6.2525   -2.0211    1.1860 H   0  0  0  0  0  0  0  0  0  0  0  0
   -3.8106   -2.1945    0.9484 H   0  0  0  0  0  0  0  0  0  0  0  0
  1  2  1  0  0  0  0
  2  3  1  0  0  0  0
  3  4  1  0  0  0  0
  4  5  1  0  0  0  0
  5  6  2  0  0  0  0
  6  7  1  0  0  0  0
  7  8  2  0  0  0  0
  8  9  1  0  0  0  0
  9 10  2  0  0  0  0
  5 10  1  0  0  0  0
  8 11  1  0  0  0  0
 11 12  1  0  0  0  0
  2 13  1  0  0  0  0
 13 14  2  0  0  0  0
 13 15  1  0  0  0  0
 15 16  2  0  0  0  0
 16 17  1  0  0  0  0
 17 18  2  0  0  0  0
 18 19  1  0  0  0  0
 19 20  2  0  0  0  0
 15 20  1  0  0  0  0
  1 21  1  0  0  0  0
  1 22  1  0  0  0  0
  1 23  1  0  0  0  0
  3 24  1  0  0  0  0
  3 25  1  0  0  0  0
  4 26  1  0  0  0  0
  4 27  1  0  0  0  0
  6 28  1  0  0  0  0
  7 29  1  0  0  0  0
  9 30  1  0  0  0  0
 10 31  1  0  0  0  0
 12 32  1  0  0  0  0
 12 33  1  0  0  0  0
 12 34  1  0  0  0  0
 16 35  1  0  0  0  0
 17 36  1  0  0  0  0
 18 37  1  0  0  0  0
 19 38  1  0  0  0  0
 20 39  1  0  0  0  0
M  END
$$$$
