C13H24O11
APtclcactv06291802473D 0   0.00000     0.00000
 
 48 49  0  0  0  0  0  0  0  0999 V2000
    4.8986   -1.4236   -1.5858 C   0  0  0  0  0  0  0  0  0  0  0  0
    3.5459   -1.1824   -1.1931 O   0  0  0  0  0  0  0  0  0  0  0  0
    3.3838   -0.9188    0.2020 C   0  0  0  0  0  0  0  0  0  0  0  0
    3.5060    0.5852    0.4544 C   0  0  0  0  0  0  0  0  0  0  0  0
    2.4226    1.3243   -0.3336 C   0  0  0  0  0  0  0  0  0  0  0  0
    1.0434    0.8416    0.1198 C   0  0  0  0  0  0  0  0  0  0  0  0
    0.9211   -0.6625   -0.1326 C   0  0  0  0  0  0  0  0  0  0  0  0
    2.0045   -1.4016    0.6553 C   0  0  0  0  0  0  0  0  0  0  0  0
    1.8904   -2.8064    0.4196 O   0  0  0  0  0  0  0  0  0  0  0  0
   -0.3671   -1.1134    0.2908 O   0  0  0  0  0  0  0  0  0  0  0  0
   -1.3665   -1.0581   -0.7291 C   0  0  0  0  0  0  0  0  0  0  0  0
   -2.6652   -1.6769   -0.2054 C   0  0  0  0  0  0  0  0  0  0  0  0
   -3.1696   -0.8550    0.9847 C   0  0  0  0  0  0  0  0  0  0  0  0
   -3.3553    0.6003    0.5440 C   0  0  0  0  0  0  0  0  0  0  0  0
   -2.0300    1.1311   -0.0086 C   0  0  0  0  0  0  0  0  0  0  0  0
   -1.6018    0.3038   -1.0923 O   0  0  0  0  0  0  0  0  0  0  0  0
   -2.2224    2.5649   -0.5064 C   0  0  0  0  0  0  0  0  0  0  0  0
   -0.9620    3.1008   -0.9143 O   0  0  0  0  0  0  0  0  0  0  0  0
   -4.3575    0.6672   -0.4724 O   0  0  0  0  0  0  0  0  0  0  0  0
   -4.4197   -1.3817    1.4338 O   0  0  0  0  0  0  0  0  0  0  0  0
   -3.6491   -1.6702   -1.2417 O   0  0  0  0  0  0  0  0  0  0  0  0
    0.8813    1.1052    1.5149 O   0  0  0  0  0  0  0  0  0  0  0  0
    2.5368    2.7291   -0.0978 O   0  0  0  0  0  0  0  0  0  0  0  0
    3.3439    0.8488    1.8495 O   0  0  0  0  0  0  0  0  0  0  0  0
    5.5064   -0.5498   -1.3508 H   0  0  0  0  0  0  0  0  0  0  0  0
    5.2841   -2.2897   -1.0479 H   0  0  0  0  0  0  0  0  0  0  0  0
    4.9370   -1.6152   -2.6581 H   0  0  0  0  0  0  0  0  0  0  0  0
    4.1556   -1.4454    0.7633 H   0  0  0  0  0  0  0  0  0  0  0  0
    4.4886    0.9292    0.1314 H   0  0  0  0  0  0  0  0  0  0  0  0
    2.5462    1.1232   -1.3977 H   0  0  0  0  0  0  0  0  0  0  0  0
    0.2715    1.3681   -0.4415 H   0  0  0  0  0  0  0  0  0  0  0  0
    1.0448   -0.8636   -1.1967 H   0  0  0  0  0  0  0  0  0  0  0  0
    1.8809   -1.2005    1.7195 H   0  0  0  0  0  0  0  0  0  0  0  0
    2.5474   -3.3386    0.8888 H   0  0  0  0  0  0  0  0  0  0  0  0
   -1.0255   -1.6138   -1.6026 H   0  0  0  0  0  0  0  0  0  0  0  0
   -2.4775   -2.7022    0.1134 H   0  0  0  0  0  0  0  0  0  0  0  0
   -2.4412   -0.9006    1.7943 H   0  0  0  0  0  0  0  0  0  0  0  0
   -3.6613    1.2035    1.3988 H   0  0  0  0  0  0  0  0  0  0  0  0
   -1.2764    1.1175    0.7788 H   0  0  0  0  0  0  0  0  0  0  0  0
   -2.9090    2.5666   -1.3530 H   0  0  0  0  0  0  0  0  0  0  0  0
   -2.6343    3.1761    0.2966 H   0  0  0  0  0  0  0  0  0  0  0  0
   -1.0085    4.0093   -1.2423 H   0  0  0  0  0  0  0  0  0  0  0  0
   -5.2240    0.3415   -0.1925 H   0  0  0  0  0  0  0  0  0  0  0  0
   -4.3772   -2.3037    1.7222 H   0  0  0  0  0  0  0  0  0  0  0  0
   -3.3936   -2.1688   -2.0299 H   0  0  0  0  0  0  0  0  0  0  0  0
    0.9469    2.0412    1.7485 H   0  0  0  0  0  0  0  0  0  0  0  0
    3.3879    3.1044   -0.3621 H   0  0  0  0  0  0  0  0  0  0  0  0
    3.4096    1.7849    2.0831 H   0  0  0  0  0  0  0  0  0  0  0  0
  1  2  1  0  0  0  0
  2  3  1  0  0  0  0
  3  4  1  0  0  0  0
  4  5  1  0  0  0  0
  5  6  1  0  0  0  0
  6  7  1  0  0  0  0
  7  8  1  0  0  0  0
  3  8  1  0  0  0  0
  8  9  1  0  0  0  0
  7 10  1  0  0  0  0
 10 11  1  0  0  0  0
 11 12  1  0  0  0  0
 12 13  1  0  0  0  0
 13 14  1  0  0  0  0
 14 15  1  0  0  0  0
 15 16  1  0  0  0  0
 11 16  1  0  0  0  0
 15 17  1  0  0  0  0
 17 18  1  0  0  0  0
 14 19  1  0  0  0  0
 13 20  1  0  0  0  0
 12 21  1  0  0  0  0
  6 22  1  0  0  0  0
  5 23  1  0  0  0  0
  4 24  1  0  0  0  0
  1 25  1  0  0  0  0
  1 26  1  0  0  0  0
  1 27  1  0  0  0  0
  3 28  1  0  0  0  0
  4 29  1  0  0  0  0
  5 30  1  0  0  0  0
  6 31  1  0  0  0  0
  7 32  1  0  0  0  0
  8 33  1  0  0  0  0
  9 34  1  0  0  0  0
 11 35  1  0  0  0  0
 12 36  1  0  0  0  0
 13 37  1  0  0  0  0
 14 38  1  0  0  0  0
 15 39  1  0  0  0  0
 17 40  1  0  0  0  0
 17 41  1  0  0  0  0
 18 42  1  0  0  0  0
 19 43  1  0  0  0  0
 20 44  1  0  0  0  0
 21 45  1  0  0  0  0
 22 46  1  0  0  0  0
 23 47  1  0  0  0  0
 24 48  1  0  0  0  0
M  END
$$$$
