C20H26O6
APtclcactv06291802473D 0   0.00000     0.00000
 
 52 55  0  0  0  0  0  0  0  0999 V2000
    1.1130    0.9621    1.9593 C   0  0  0  0  0  0  0  0  0  0  0  0
    0.6641    1.1409    0.5098 C   0  0  0  0  0  0  0  0  0  0  0  0
    1.4021    2.3121   -0.0884 C   0  0  0  0  0  0  0  0  0  0  0  0
    2.9016    1.9747   -0.0740 C   0  0  0  0  0  0  0  0  0  0  0  0
    3.1910    0.7225   -0.8831 C   0  0  0  0  0  0  0  0  0  0  0  0
    2.3428   -0.5006   -0.4975 C   0  0  0  0  0  0  0  0  0  0  0  0
    0.9058   -0.1227   -0.3407 C   0  0  0  0  0  0  0  0  0  0  0  0
   -0.0961   -1.1029    0.2979 C   0  0  0  0  0  0  0  0  0  0  0  0
   -1.3474   -0.2208    0.3525 C   0  0  0  0  0  0  0  0  0  0  0  0
   -0.8584    1.2353    0.5667 C   0  0  0  0  0  0  0  0  0  0  0  0
   -1.4707    2.1349   -0.4944 C   0  0  0  0  0  0  0  0  0  0  0  0
   -3.0019    2.0243   -0.3952 C   0  0  0  0  0  0  0  0  0  0  0  0
   -3.4188    0.5492   -0.4988 C   0  0  0  0  0  0  0  0  0  0  0  0
   -2.1615   -0.2510   -0.9559 C   0  0  0  0  0  0  0  0  0  0  0  0
   -3.6827    0.0224    0.9085 C   0  0  0  0  0  0  0  0  0  0  0  0
   -4.8218    0.0651    1.5547 C   0  0  0  0  0  0  0  0  0  0  0  0
   -2.3742   -0.5687    1.4234 C   0  0  0  0  0  0  0  0  0  0  0  0
   -4.5348    0.3545   -1.3725 O   0  0  0  0  0  0  0  0  0  0  0  0
   -0.3308   -2.3330   -0.5341 C   0  0  0  0  0  0  0  0  0  0  0  0
   -0.4704   -3.4169    0.0064 O   0  0  0  0  0  0  0  0  0  0  0  0
   -0.3815   -2.2466   -1.7492 O   0  5  0  0  0  0  0  0  0  0  0  0
    2.4836   -1.4883   -1.6885 C   0  0  0  0  0  0  0  0  0  0  0  0
    2.9335   -1.1872    0.7057 C   0  0  0  0  0  0  0  0  0  0  0  0
    3.9466   -0.7475    1.2222 O   0  0  0  0  0  0  0  0  0  0  0  0
    2.3986   -2.1827    1.1632 O   0  5  0  0  0  0  0  0  0  0  0  0
    3.6127    3.0724   -0.6683 O   0  0  0  0  0  0  0  0  0  0  0  0
    0.8765    1.8623    2.5265 H   0  0  0  0  0  0  0  0  0  0  0  0
    0.5943    0.1096    2.3978 H   0  0  0  0  0  0  0  0  0  0  0  0
    2.1885    0.7870    1.9876 H   0  0  0  0  0  0  0  0  0  0  0  0
    1.0701    2.4771   -1.1152 H   0  0  0  0  0  0  0  0  0  0  0  0
    1.2177    3.2105    0.5030 H   0  0  0  0  0  0  0  0  0  0  0  0
    3.2656    1.8589    0.9415 H   0  0  0  0  0  0  0  0  0  0  0  0
    3.0213    0.9397   -1.9429 H   0  0  0  0  0  0  0  0  0  0  0  0
    4.2478    0.4614   -0.7639 H   0  0  0  0  0  0  0  0  0  0  0  0
    0.5129    0.0942   -1.3682 H   0  0  0  0  0  0  0  0  0  0  0  0
    0.2063   -1.3916    1.3066 H   0  0  0  0  0  0  0  0  0  0  0  0
   -1.1490    1.5779    1.5603 H   0  0  0  0  0  0  0  0  0  0  0  0
   -1.1784    3.1736   -0.2989 H   0  0  0  0  0  0  0  0  0  0  0  0
   -1.1293    1.8589   -1.4867 H   0  0  0  0  0  0  0  0  0  0  0  0
   -3.3331    2.4349    0.5602 H   0  0  0  0  0  0  0  0  0  0  0  0
   -3.4596    2.5928   -1.2068 H   0  0  0  0  0  0  0  0  0  0  0  0
   -1.6490    0.2302   -1.7821 H   0  0  0  0  0  0  0  0  0  0  0  0
   -2.4705   -1.2630   -1.2371 H   0  0  0  0  0  0  0  0  0  0  0  0
   -5.6905    0.5068    1.0893 H   0  0  0  0  0  0  0  0  0  0  0  0
   -4.8919   -0.3413    2.5529 H   0  0  0  0  0  0  0  0  0  0  0  0
   -2.4621   -1.6479    1.5304 H   0  0  0  0  0  0  0  0  0  0  0  0
   -2.1005   -0.1106    2.3725 H   0  0  0  0  0  0  0  0  0  0  0  0
   -5.3299    0.8374   -1.1086 H   0  0  0  0  0  0  0  0  0  0  0  0
    3.5398   -1.6703   -1.8867 H   0  0  0  0  0  0  0  0  0  0  0  0
    1.9931   -2.4294   -1.4398 H   0  0  0  0  0  0  0  0  0  0  0  0
    2.0165   -1.0581   -2.5744 H   0  0  0  0  0  0  0  0  0  0  0  0
    4.5711    2.9478   -0.7025 H   0  0  0  0  0  0  0  0  0  0  0  0
  1  2  1  0  0  0  0
  2  3  1  0  0  0  0
  3  4  1  0  0  0  0
  4  5  1  0  0  0  0
  5  6  1  0  0  0  0
  6  7  1  0  0  0  0
  2  7  1  0  0  0  0
  7  8  1  0  0  0  0
  8  9  1  0  0  0  0
  9 10  1  0  0  0  0
  2 10  1  0  0  0  0
 10 11  1  0  0  0  0
 11 12  1  0  0  0  0
 12 13  1  0  0  0  0
 13 14  1  0  0  0  0
  9 14  1  0  0  0  0
 13 15  1  0  0  0  0
 15 16  2  0  0  0  0
 15 17  1  0  0  0  0
  9 17  1  0  0  0  0
 13 18  1  0  0  0  0
  8 19  1  0  0  0  0
 19 20  2  0  0  0  0
 19 21  1  0  0  0  0
  6 22  1  0  0  0  0
  6 23  1  0  0  0  0
 23 24  2  0  0  0  0
 23 25  1  0  0  0  0
  4 26  1  0  0  0  0
  1 27  1  0  0  0  0
  1 28  1  0  0  0  0
  1 29  1  0  0  0  0
  3 30  1  0  0  0  0
  3 31  1  0  0  0  0
  4 32  1  0  0  0  0
  5 33  1  0  0  0  0
  5 34  1  0  0  0  0
  7 35  1  0  0  0  0
  8 36  1  0  0  0  0
 10 37  1  0  0  0  0
 11 38  1  0  0  0  0
 11 39  1  0  0  0  0
 12 40  1  0  0  0  0
 12 41  1  0  0  0  0
 14 42  1  0  0  0  0
 14 43  1  0  0  0  0
 16 44  1  0  0  0  0
 16 45  1  0  0  0  0
 17 46  1  0  0  0  0
 17 47  1  0  0  0  0
 18 48  1  0  0  0  0
 22 49  1  0  0  0  0
 22 50  1  0  0  0  0
 22 51  1  0  0  0  0
 26 52  1  0  0  0  0
M  CHG  2  21  -1  25  -1
M  END
$$$$
