C27H46O
APtclcactv06291802473D 0   0.00000     0.00000
 
 74 77  0  0  0  0  0  0  0  0999 V2000
   -6.6058    2.6933   -0.9486 C   0  0  0  0  0  0  0  0  0  0  0  0
   -7.1708    1.6452    0.0122 C   0  0  0  0  0  0  0  0  0  0  0  0
   -8.6363    1.3740   -0.3333 C   0  0  0  0  0  0  0  0  0  0  0  0
   -6.3679    0.3492   -0.1172 C   0  0  0  0  0  0  0  0  0  0  0  0
   -4.9304    0.5912    0.3474 C   0  0  0  0  0  0  0  0  0  0  0  0
   -4.1276   -0.7048    0.2179 C   0  0  0  0  0  0  0  0  0  0  0  0
   -2.6901   -0.4628    0.6826 C   0  0  0  0  0  0  0  0  0  0  0  0
   -2.6859   -0.1316    2.1763 C   0  0  0  0  0  0  0  0  0  0  0  0
   -1.8595   -1.7164    0.4380 C   0  0  0  0  0  0  0  0  0  0  0  0
   -2.0130   -2.1916   -1.0333 C   0  0  0  0  0  0  0  0  0  0  0  0
   -0.6436   -1.9275   -1.7259 C   0  0  0  0  0  0  0  0  0  0  0  0
   -0.0293   -0.8570   -0.8140 C   0  0  0  0  0  0  0  0  0  0  0  0
   -0.3554   -1.4410    0.5810 C   0  0  0  0  0  0  0  0  0  0  0  0
    0.1058   -0.5048    1.6545 C   0  0  0  0  0  0  0  0  0  0  0  0
    1.5817   -0.1164    1.5073 C   0  0  0  0  0  0  0  0  0  0  0  0
    2.2806   -0.7267    0.3056 C   0  0  0  0  0  0  0  0  0  0  0  0
    1.4443   -0.6255   -0.9348 C   0  0  0  0  0  0  0  0  0  0  0  0
    1.9173   -0.2862   -2.1052 C   0  0  0  0  0  0  0  0  0  0  0  0
    3.3575    0.1010   -2.3008 C   0  0  0  0  0  0  0  0  0  0  0  0
    3.8259    0.7746   -1.0062 C   0  0  0  0  0  0  0  0  0  0  0  0
    3.7019   -0.2051    0.1501 C   0  0  0  0  0  0  0  0  0  0  0  0
    4.1704    0.4637    1.4439 C   0  0  0  0  0  0  0  0  0  0  0  0
    5.6107    0.9546    1.3026 C   0  0  0  0  0  0  0  0  0  0  0  0
    5.7279    1.9315    0.1340 C   0  0  0  0  0  0  0  0  0  0  0  0
    5.2625    1.2651   -1.1615 C   0  0  0  0  0  0  0  0  0  0  0  0
    4.9285    3.0881    0.3925 O   0  0  0  0  0  0  0  0  0  0  0  0
    4.5915   -1.4265   -0.1054 C   0  0  0  0  0  0  0  0  0  0  0  0
    0.2807   -2.8221    0.7846 C   0  0  0  0  0  0  0  0  0  0  0  0
   -6.6755    2.3234   -1.9716 H   0  0  0  0  0  0  0  0  0  0  0  0
   -7.1777    3.6166   -0.8564 H   0  0  0  0  0  0  0  0  0  0  0  0
   -5.5617    2.8865   -0.7025 H   0  0  0  0  0  0  0  0  0  0  0  0
   -7.1011    2.0151    1.0352 H   0  0  0  0  0  0  0  0  0  0  0  0
   -8.7060    1.0041   -1.3562 H   0  0  0  0  0  0  0  0  0  0  0  0
   -9.0388    0.6273    0.3513 H   0  0  0  0  0  0  0  0  0  0  0  0
   -9.2083    2.2973   -0.2410 H   0  0  0  0  0  0  0  0  0  0  0  0
   -6.8242   -0.4241    0.5007 H   0  0  0  0  0  0  0  0  0  0  0  0
   -6.3638    0.0269   -1.1585 H   0  0  0  0  0  0  0  0  0  0  0  0
   -4.4741    1.3645   -0.2706 H   0  0  0  0  0  0  0  0  0  0  0  0
   -4.9345    0.9136    1.3886 H   0  0  0  0  0  0  0  0  0  0  0  0
   -4.5839   -1.4781    0.8359 H   0  0  0  0  0  0  0  0  0  0  0  0
   -4.1235   -1.0271   -0.8233 H   0  0  0  0  0  0  0  0  0  0  0  0
   -2.2632    0.3705    0.1244 H   0  0  0  0  0  0  0  0  0  0  0  0
   -3.2510   -0.8899    2.7182 H   0  0  0  0  0  0  0  0  0  0  0  0
   -1.6590   -0.1136    2.5415 H   0  0  0  0  0  0  0  0  0  0  0  0
   -3.1445    0.8447    2.3332 H   0  0  0  0  0  0  0  0  0  0  0  0
   -2.1493   -2.5135    1.1216 H   0  0  0  0  0  0  0  0  0  0  0  0
   -2.2441   -3.2557   -1.0577 H   0  0  0  0  0  0  0  0  0  0  0  0
   -2.7975   -1.6217   -1.5282 H   0  0  0  0  0  0  0  0  0  0  0  0
   -0.0404   -2.8231   -1.7821 H   0  0  0  0  0  0  0  0  0  0  0  0
   -0.8072   -1.5190   -2.7281 H   0  0  0  0  0  0  0  0  0  0  0  0
   -0.5619    0.1003   -0.9716 H   0  0  0  0  0  0  0  0  0  0  0  0
   -0.4873    0.4181    1.6394 H   0  0  0  0  0  0  0  0  0  0  0  0
   -0.0438   -0.9739    2.6357 H   0  0  0  0  0  0  0  0  0  0  0  0
    1.6441    0.9783    1.4353 H   0  0  0  0  0  0  0  0  0  0  0  0
    2.1125   -0.4124    2.4208 H   0  0  0  0  0  0  0  0  0  0  0  0
    2.4389   -1.7888    0.5145 H   0  0  0  0  0  0  0  0  0  0  0  0
    1.2468   -0.2811   -2.9497 H   0  0  0  0  0  0  0  0  0  0  0  0
    3.9593   -0.7663   -2.5426 H   0  0  0  0  0  0  0  0  0  0  0  0
    3.4252    0.8216   -3.1237 H   0  0  0  0  0  0  0  0  0  0  0  0
    3.1771    1.6394   -0.8093 H   0  0  0  0  0  0  0  0  0  0  0  0
    3.5231    1.3126    1.6705 H   0  0  0  0  0  0  0  0  0  0  0  0
    4.1145   -0.2570    2.2628 H   0  0  0  0  0  0  0  0  0  0  0  0
    5.8955    1.4740    2.2261 H   0  0  0  0  0  0  0  0  0  0  0  0
    6.2921    0.1196    1.1620 H   0  0  0  0  0  0  0  0  0  0  0  0
    6.7719    2.2369    0.0249 H   0  0  0  0  0  0  0  0  0  0  0  0
    5.9294    0.4470   -1.4182 H   0  0  0  0  0  0  0  0  0  0  0  0
    5.3007    2.0061   -1.9684 H   0  0  0  0  0  0  0  0  0  0  0  0
    5.1812    3.5702    1.1918 H   0  0  0  0  0  0  0  0  0  0  0  0
    5.6296   -1.1071   -0.1969 H   0  0  0  0  0  0  0  0  0  0  0  0
    4.4981   -2.1244    0.7266 H   0  0  0  0  0  0  0  0  0  0  0  0
    4.2795   -1.9166   -1.0276 H   0  0  0  0  0  0  0  0  0  0  0  0
    1.3652   -2.7204    0.8239 H   0  0  0  0  0  0  0  0  0  0  0  0
   -0.0780   -3.2531    1.7193 H   0  0  0  0  0  0  0  0  0  0  0  0
    0.0067   -3.4741   -0.0449 H   0  0  0  0  0  0  0  0  0  0  0  0
  1  2  1  0  0  0  0
  2  3  1  0  0  0  0
  2  4  1  0  0  0  0
  4  5  1  0  0  0  0
  5  6  1  0  0  0  0
  6  7  1  0  0  0  0
  7  8  1  0  0  0  0
  7  9  1  0  0  0  0
  9 10  1  0  0  0  0
 10 11  1  0  0  0  0
 11 12  1  0  0  0  0
 12 13  1  0  0  0  0
  9 13  1  0  0  0  0
 13 14  1  0  0  0  0
 14 15  1  0  0  0  0
 15 16  1  0  0  0  0
 16 17  1  0  0  0  0
 12 17  1  0  0  0  0
 17 18  2  0  0  0  0
 18 19  1  0  0  0  0
 19 20  1  0  0  0  0
 20 21  1  0  0  0  0
 16 21  1  0  0  0  0
 21 22  1  0  0  0  0
 22 23  1  0  0  0  0
 23 24  1  0  0  0  0
 24 25  1  0  0  0  0
 20 25  1  0  0  0  0
 24 26  1  0  0  0  0
 21 27  1  0  0  0  0
 13 28  1  0  0  0  0
  1 29  1  0  0  0  0
  1 30  1  0  0  0  0
  1 31  1  0  0  0  0
  2 32  1  0  0  0  0
  3 33  1  0  0  0  0
  3 34  1  0  0  0  0
  3 35  1  0  0  0  0
  4 36  1  0  0  0  0
  4 37  1  0  0  0  0
  5 38  1  0  0  0  0
  5 39  1  0  0  0  0
  6 40  1  0  0  0  0
  6 41  1  0  0  0  0
  7 42  1  0  0  0  0
  8 43  1  0  0  0  0
  8 44  1  0  0  0  0
  8 45  1  0  0  0  0
  9 46  1  0  0  0  0
 10 47  1  0  0  0  0
 10 48  1  0  0  0  0
 11 49  1  0  0  0  0
 11 50  1  0  0  0  0
 12 51  1  0  0  0  0
 14 52  1  0  0  0  0
 14 53  1  0  0  0  0
 15 54  1  0  0  0  0
 15 55  1  0  0  0  0
 16 56  1  0  0  0  0
 18 57  1  0  0  0  0
 19 58  1  0  0  0  0
 19 59  1  0  0  0  0
 20 60  1  0  0  0  0
 22 61  1  0  0  0  0
 22 62  1  0  0  0  0
 23 63  1  0  0  0  0
 23 64  1  0  0  0  0
 24 65  1  0  0  0  0
 25 66  1  0  0  0  0
 25 67  1  0  0  0  0
 26 68  1  0  0  0  0
 27 69  1  0  0  0  0
 27 70  1  0  0  0  0
 27 71  1  0  0  0  0
 28 72  1  0  0  0  0
 28 73  1  0  0  0  0
 28 74  1  0  0  0  0
M  END
$$$$
