C16H21NO10
APtclcactv06291802473D 0   0.00000     0.00000
 
 48 50  0  0  0  0  0  0  0  0999 V2000
    5.7118    3.1622    0.2012 C   0  0  0  0  0  0  0  0  0  0  0  0
    4.5053    2.8293    0.8908 O   0  0  0  0  0  0  0  0  0  0  0  0
    3.8903    1.6703    0.5343 C   0  0  0  0  0  0  0  0  0  0  0  0
    2.7151    1.2878    1.1645 C   0  0  0  0  0  0  0  0  0  0  0  0
    2.0900    0.1080    0.7996 C   0  0  0  0  0  0  0  0  0  0  0  0
    2.6361   -0.6855   -0.2069 C   0  0  0  0  0  0  0  0  0  0  0  0
    3.8135   -0.3033   -0.8296 C   0  0  0  0  0  0  0  0  0  0  0  0
    4.4361    0.8751   -0.4630 C   0  0  0  0  0  0  0  0  0  0  0  0
    1.9741   -1.8609   -0.5946 N   0  0  0  0  0  0  0  0  0  0  0  0
    0.7237   -2.0923   -0.1429 C   0  0  0  0  0  0  0  0  0  0  0  0
    0.1777   -3.1497   -0.3780 O   0  0  0  0  0  0  0  0  0  0  0  0
    0.0079   -1.0323    0.6553 C   0  0  0  0  0  0  0  0  0  0  0  0
    0.9537   -0.2927    1.4307 O   0  0  0  0  0  0  0  0  0  0  0  0
   -0.6740   -0.1463   -0.2346 O   0  0  0  0  0  0  0  0  0  0  0  0
   -1.4795    0.8330    0.4243 C   0  0  0  0  0  0  0  0  0  0  0  0
   -2.0593    1.7987   -0.6125 C   0  0  0  0  0  0  0  0  0  0  0  0
   -2.9650    1.0213   -1.5726 C   0  0  0  0  0  0  0  0  0  0  0  0
   -4.0562    0.3113   -0.7654 C   0  0  0  0  0  0  0  0  0  0  0  0
   -3.3993   -0.5970    0.2773 C   0  0  0  0  0  0  0  0  0  0  0  0
   -2.5470    0.1836    1.1178 O   0  0  0  0  0  0  0  0  0  0  0  0
   -4.4822   -1.2642    1.1275 C   0  0  0  0  0  0  0  0  0  0  0  0
   -3.8766   -2.1992    2.0224 O   0  0  0  0  0  0  0  0  0  0  0  0
   -4.8714    1.2826   -0.1068 O   0  0  0  0  0  0  0  0  0  0  0  0
   -3.5684    1.9266   -2.4991 O   0  0  0  0  0  0  0  0  0  0  0  0
   -2.8217    2.8095    0.0502 O   0  0  0  0  0  0  0  0  0  0  0  0
    2.6107   -2.7926   -1.4500 O   0  0  0  0  0  0  0  0  0  0  0  0
    3.3625   -3.7942   -0.7618 C   0  0  0  0  0  0  0  0  0  0  0  0
    6.0982    4.1080    0.5809 H   0  0  0  0  0  0  0  0  0  0  0  0
    6.4507    2.3771    0.3619 H   0  0  0  0  0  0  0  0  0  0  0  0
    5.5068    3.2555   -0.8653 H   0  0  0  0  0  0  0  0  0  0  0  0
    2.2890    1.9092    1.9383 H   0  0  0  0  0  0  0  0  0  0  0  0
    4.2421   -0.9235   -1.6030 H   0  0  0  0  0  0  0  0  0  0  0  0
    5.3535    1.1735   -0.9484 H   0  0  0  0  0  0  0  0  0  0  0  0
   -0.7152   -1.5052    1.3199 H   0  0  0  0  0  0  0  0  0  0  0  0
   -0.8680    1.3878    1.1358 H   0  0  0  0  0  0  0  0  0  0  0  0
   -1.2473    2.2622   -1.1727 H   0  0  0  0  0  0  0  0  0  0  0  0
   -2.3737    0.2832   -2.1145 H   0  0  0  0  0  0  0  0  0  0  0  0
   -4.6722   -0.2890   -1.4350 H   0  0  0  0  0  0  0  0  0  0  0  0
   -2.8099   -1.3627   -0.2272 H   0  0  0  0  0  0  0  0  0  0  0  0
   -5.0135   -0.5044    1.7008 H   0  0  0  0  0  0  0  0  0  0  0  0
   -5.1845   -1.7860    0.4774 H   0  0  0  0  0  0  0  0  0  0  0  0
   -4.5055   -2.6608    2.5939 H   0  0  0  0  0  0  0  0  0  0  0  0
   -5.3155    1.8962   -0.7080 H   0  0  0  0  0  0  0  0  0  0  0  0
   -2.9341    2.4166   -3.0400 H   0  0  0  0  0  0  0  0  0  0  0  0
   -2.3113    3.3387    0.6783 H   0  0  0  0  0  0  0  0  0  0  0  0
    4.1424   -3.3185   -0.1672 H   0  0  0  0  0  0  0  0  0  0  0  0
    2.6999   -4.3596   -0.1065 H   0  0  0  0  0  0  0  0  0  0  0  0
    3.8186   -4.4683   -1.4868 H   0  0  0  0  0  0  0  0  0  0  0  0
  1  2  1  0  0  0  0
  2  3  1  0  0  0  0
  3  4  2  0  0  0  0
  4  5  1  0  0  0  0
  5  6  2  0  0  0  0
  6  7  1  0  0  0  0
  7  8  2  0  0  0  0
  3  8  1  0  0  0  0
  6  9  1  0  0  0  0
  9 10  1  0  0  0  0
 10 11  2  0  0  0  0
 10 12  1  0  0  0  0
 12 13  1  0  0  0  0
  5 13  1  0  0  0  0
 12 14  1  0  0  0  0
 14 15  1  0  0  0  0
 15 16  1  0  0  0  0
 16 17  1  0  0  0  0
 17 18  1  0  0  0  0
 18 19  1  0  0  0  0
 19 20  1  0  0  0  0
 15 20  1  0  0  0  0
 19 21  1  0  0  0  0
 21 22  1  0  0  0  0
 18 23  1  0  0  0  0
 17 24  1  0  0  0  0
 16 25  1  0  0  0  0
  9 26  1  0  0  0  0
 26 27  1  0  0  0  0
  1 28  1  0  0  0  0
  1 29  1  0  0  0  0
  1 30  1  0  0  0  0
  4 31  1  0  0  0  0
  7 32  1  0  0  0  0
  8 33  1  0  0  0  0
 12 34  1  0  0  0  0
 15 35  1  0  0  0  0
 16 36  1  0  0  0  0
 17 37  1  0  0  0  0
 18 38  1  0  0  0  0
 19 39  1  0  0  0  0
 21 40  1  0  0  0  0
 21 41  1  0  0  0  0
 22 42  1  0  0  0  0
 23 43  1  0  0  0  0
 24 44  1  0  0  0  0
 25 45  1  0  0  0  0
 27 46  1  0  0  0  0
 27 47  1  0  0  0  0
 27 48  1  0  0  0  0
M  END
$$$$
