C16H18O9
APtclcactv06281816283D 0   0.00000     0.00000
 
 43 44  0  0  0  0  0  0  0  0999 V2000
    4.3168   -0.0414   -1.1499 C   0  0  0  0  0  0  0  0  0  0  0  0
    3.1929   -0.9708   -1.6126 C   0  0  0  0  0  0  0  0  0  0  0  0
    2.8679   -1.9708   -0.5012 C   0  0  0  0  0  0  0  0  0  0  0  0
    2.4208   -1.2140    0.7511 C   0  0  0  0  0  0  0  0  0  0  0  0
    3.5446   -0.2846    1.2138 C   0  0  0  0  0  0  0  0  0  0  0  0
    3.8696    0.7154    0.1024 C   0  0  0  0  0  0  0  0  0  0  0  0
    4.9766    1.6308    0.5582 C   0  0  0  0  0  0  0  0  0  0  0  0
    5.7527    1.2636    1.4083 O   0  0  0  0  0  0  0  0  0  0  0  0
    5.1004    2.8541    0.0197 O   0  0  0  0  0  0  0  0  0  0  0  0
    2.7058    1.4882   -0.1982 O   0  0  0  0  0  0  0  0  0  0  0  0
    1.2570   -0.4411    0.4504 O   0  0  0  0  0  0  0  0  0  0  0  0
    0.0610   -1.0382    0.6337 C   0  0  0  0  0  0  0  0  0  0  0  0
    0.0089   -2.1844    1.0380 O   0  0  0  0  0  0  0  0  0  0  0  0
   -1.1351   -0.3298    0.3551 C   0  0  0  0  0  0  0  0  0  0  0  0
   -2.3326   -0.9277    0.5386 C   0  0  0  0  0  0  0  0  0  0  0  0
   -3.5724   -0.1934    0.2498 C   0  0  0  0  0  0  0  0  0  0  0  0
   -4.8144   -0.8109    0.4392 C   0  0  0  0  0  0  0  0  0  0  0  0
   -5.9757   -0.1156    0.1666 C   0  0  0  0  0  0  0  0  0  0  0  0
   -5.9100    1.1981   -0.2966 C   0  0  0  0  0  0  0  0  0  0  0  0
   -4.6784    1.8114   -0.4853 C   0  0  0  0  0  0  0  0  0  0  0  0
   -3.5150    1.1275   -0.2099 C   0  0  0  0  0  0  0  0  0  0  0  0
   -7.0539    1.8796   -0.5645 O   0  0  0  0  0  0  0  0  0  0  0  0
   -7.1841   -0.7122    0.3494 O   0  0  0  0  0  0  0  0  0  0  0  0
    1.8183   -2.8388   -0.9334 O   0  0  0  0  0  0  0  0  0  0  0  0
    2.0291   -0.1979   -1.9133 O   0  0  0  0  0  0  0  0  0  0  0  0
    5.2045   -0.6309   -0.9205 H   0  0  0  0  0  0  0  0  0  0  0  0
    4.5483    0.6710   -1.9417 H   0  0  0  0  0  0  0  0  0  0  0  0
    3.5115   -1.5099   -2.5048 H   0  0  0  0  0  0  0  0  0  0  0  0
    3.7556   -2.5603   -0.2719 H   0  0  0  0  0  0  0  0  0  0  0  0
    2.1893   -1.9264    1.5429 H   0  0  0  0  0  0  0  0  0  0  0  0
    3.2261    0.2546    2.1060 H   0  0  0  0  0  0  0  0  0  0  0  0
    4.4323   -0.8741    1.4432 H   0  0  0  0  0  0  0  0  0  0  0  0
    5.8258    3.4052    0.3441 H   0  0  0  0  0  0  0  0  0  0  0  0
    2.8389    2.1445   -0.8959 H   0  0  0  0  0  0  0  0  0  0  0  0
   -1.0889    0.6877   -0.0038 H   0  0  0  0  0  0  0  0  0  0  0  0
   -2.3788   -1.9452    0.8975 H   0  0  0  0  0  0  0  0  0  0  0  0
   -4.8640   -1.8286    0.7973 H   0  0  0  0  0  0  0  0  0  0  0  0
   -4.6329    2.8289   -0.8445 H   0  0  0  0  0  0  0  0  0  0  0  0
   -2.5586    1.6070   -0.3576 H   0  0  0  0  0  0  0  0  0  0  0  0
   -7.4046    2.3715    0.1906 H   0  0  0  0  0  0  0  0  0  0  0  0
   -7.5528   -0.5905    1.2350 H   0  0  0  0  0  0  0  0  0  0  0  0
    2.0326   -3.3515   -1.7248 H   0  0  0  0  0  0  0  0  0  0  0  0
    2.1622    0.4583   -2.6109 H   0  0  0  0  0  0  0  0  0  0  0  0
  1  2  1  0  0  0  0
  2  3  1  0  0  0  0
  3  4  1  0  0  0  0
  4  5  1  0  0  0  0
  5  6  1  0  0  0  0
  1  6  1  0  0  0  0
  6  7  1  0  0  0  0
  7  8  2  0  0  0  0
  7  9  1  0  0  0  0
  6 10  1  0  0  0  0
  4 11  1  0  0  0  0
 11 12  1  0  0  0  0
 12 13  2  0  0  0  0
 12 14  1  0  0  0  0
 14 15  2  0  0  0  0
 15 16  1  0  0  0  0
 16 17  2  0  0  0  0
 17 18  1  0  0  0  0
 18 19  2  0  0  0  0
 19 20  1  0  0  0  0
 20 21  2  0  0  0  0
 16 21  1  0  0  0  0
 19 22  1  0  0  0  0
 18 23  1  0  0  0  0
  3 24  1  0  0  0  0
  2 25  1  0  0  0  0
  1 26  1  0  0  0  0
  1 27  1  0  0  0  0
  2 28  1  0  0  0  0
  3 29  1  0  0  0  0
  4 30  1  0  0  0  0
  5 31  1  0  0  0  0
  5 32  1  0  0  0  0
  9 33  1  0  0  0  0
 10 34  1  0  0  0  0
 14 35  1  0  0  0  0
 15 36  1  0  0  0  0
 17 37  1  0  0  0  0
 20 38  1  0  0  0  0
 21 39  1  0  0  0  0
 22 40  1  0  0  0  0
 23 41  1  0  0  0  0
 24 42  1  0  0  0  0
 25 43  1  0  0  0  0
M  END
$$$$
