C55H102O6
APtclcactv06291802483D 0   0.00000     0.00000
 
163162  0  0  0  0  0  0  0  0999 V2000
   12.2154   14.4597    1.7346 C   0  0  0  0  0  0  0  0  0  0  0  0
   11.1282   13.9697    0.7762 C   0  0  0  0  0  0  0  0  0  0  0  0
   10.5734   12.6337    1.2744 C   0  0  0  0  0  0  0  0  0  0  0  0
    9.4861   12.1437    0.3159 C   0  0  0  0  0  0  0  0  0  0  0  0
    8.9313   10.8077    0.8141 C   0  0  0  0  0  0  0  0  0  0  0  0
    7.8440   10.3177   -0.1444 C   0  0  0  0  0  0  0  0  0  0  0  0
    7.2892    8.9817    0.3538 C   0  0  0  0  0  0  0  0  0  0  0  0
    6.2020    8.4918   -0.6047 C   0  0  0  0  0  0  0  0  0  0  0  0
    5.6472    7.1558   -0.1065 C   0  0  0  0  0  0  0  0  0  0  0  0
    4.5599    6.6658   -1.0649 C   0  0  0  0  0  0  0  0  0  0  0  0
    4.0051    5.3298   -0.5667 C   0  0  0  0  0  0  0  0  0  0  0  0
    2.9178    4.8398   -1.5252 C   0  0  0  0  0  0  0  0  0  0  0  0
    2.3630    3.5038   -1.0270 C   0  0  0  0  0  0  0  0  0  0  0  0
    1.2758    3.0139   -1.9855 C   0  0  0  0  0  0  0  0  0  0  0  0
    0.7210    1.6779   -1.4873 C   0  0  0  0  0  0  0  0  0  0  0  0
   -0.3500    1.1953   -2.4313 C   0  0  0  0  0  0  0  0  0  0  0  0
   -0.6397    1.8524   -3.4030 O   0  0  0  0  0  0  0  0  0  0  0  0
   -0.9819    0.0353   -2.1928 O   0  0  0  0  0  0  0  0  0  0  0  0
   -2.0022   -0.3673   -3.1443 C   0  0  0  0  0  0  0  0  0  0  0  0
   -2.6063   -1.7039   -2.7092 C   0  0  0  0  0  0  0  0  0  0  0  0
   -1.4903   -2.7364   -2.5381 C   0  0  0  0  0  0  0  0  0  0  0  0
   -0.4938   -2.2236   -1.6149 O   0  0  0  0  0  0  0  0  0  0  0  0
    0.5595   -3.0137   -1.3544 C   0  0  0  0  0  0  0  0  0  0  0  0
    0.6460   -4.0980   -1.8804 O   0  0  0  0  0  0  0  0  0  0  0  0
    1.6342   -2.5485   -0.4059 C   0  0  0  0  0  0  0  0  0  0  0  0
    2.7111   -3.6287   -0.2859 C   0  0  0  0  0  0  0  0  0  0  0  0
    3.8021   -3.1563    0.6771 C   0  0  0  0  0  0  0  0  0  0  0  0
    4.8790   -4.2365    0.7972 C   0  0  0  0  0  0  0  0  0  0  0  0
    5.9701   -3.7641    1.7601 C   0  0  0  0  0  0  0  0  0  0  0  0
    7.0470   -4.8443    1.8802 C   0  0  0  0  0  0  0  0  0  0  0  0
    8.1380   -4.3720    2.8432 C   0  0  0  0  0  0  0  0  0  0  0  0
    9.1987   -5.4359    2.9614 C   0  0  0  0  0  0  0  0  0  0  0  0
   10.4519   -5.1413    2.7187 C   0  0  0  0  0  0  0  0  0  0  0  0
   11.5126   -6.2053    2.8369 C   0  0  0  0  0  0  0  0  0  0  0  0
   12.2948   -6.2936    1.5249 C   0  0  0  0  0  0  0  0  0  0  0  0
   13.3717   -7.3738    1.6450 C   0  0  0  0  0  0  0  0  0  0  0  0
   14.1540   -7.4620    0.3330 C   0  0  0  0  0  0  0  0  0  0  0  0
   15.2309   -8.5422    0.4531 C   0  0  0  0  0  0  0  0  0  0  0  0
   16.0131   -8.6305   -0.8589 C   0  0  0  0  0  0  0  0  0  0  0  0
   17.0900   -9.7107   -0.7388 C   0  0  0  0  0  0  0  0  0  0  0  0
   17.8723   -9.7990   -2.0508 C   0  0  0  0  0  0  0  0  0  0  0  0
   -3.3041   -1.5319   -1.4475 O   0  0  0  0  0  0  0  0  0  0  0  0
   -4.6027   -1.1978   -1.5099 C   0  0  0  0  0  0  0  0  0  0  0  0
   -5.1385   -1.0539   -2.5832 O   0  0  0  0  0  0  0  0  0  0  0  0
   -5.3922   -1.0022   -0.2413 C   0  0  0  0  0  0  0  0  0  0  0  0
   -6.8344   -0.6295   -0.5905 C   0  0  0  0  0  0  0  0  0  0  0  0
   -7.6360   -0.4309    0.6975 C   0  0  0  0  0  0  0  0  0  0  0  0
   -9.0783   -0.0583    0.3483 C   0  0  0  0  0  0  0  0  0  0  0  0
   -9.8799    0.1403    1.6363 C   0  0  0  0  0  0  0  0  0  0  0  0
  -11.3221    0.5130    1.2871 C   0  0  0  0  0  0  0  0  0  0  0  0
  -12.1237    0.7116    2.5751 C   0  0  0  0  0  0  0  0  0  0  0  0
  -13.5442    1.0786    2.2311 C   0  0  0  0  0  0  0  0  0  0  0  0
  -14.5377    0.3717    2.7100 C   0  0  0  0  0  0  0  0  0  0  0  0
  -15.9583    0.7387    2.3660 C   0  0  0  0  0  0  0  0  0  0  0  0
  -16.6667   -0.4753    1.7617 C   0  0  0  0  0  0  0  0  0  0  0  0
  -18.1089   -0.1027    1.4125 C   0  0  0  0  0  0  0  0  0  0  0  0
  -18.8173   -1.3167    0.8082 C   0  0  0  0  0  0  0  0  0  0  0  0
  -20.2596   -0.9440    0.4590 C   0  0  0  0  0  0  0  0  0  0  0  0
  -20.9680   -2.1581   -0.1453 C   0  0  0  0  0  0  0  0  0  0  0  0
  -22.4102   -1.7854   -0.4945 C   0  0  0  0  0  0  0  0  0  0  0  0
  -23.1187   -2.9994   -1.0988 C   0  0  0  0  0  0  0  0  0  0  0  0
   12.6107   15.4114    1.3797 H   0  0  0  0  0  0  0  0  0  0  0  0
   11.7903   14.5912    2.7296 H   0  0  0  0  0  0  0  0  0  0  0  0
   13.0199   13.7254    1.7774 H   0  0  0  0  0  0  0  0  0  0  0  0
   10.3237   14.7039    0.7334 H   0  0  0  0  0  0  0  0  0  0  0  0
   11.5533   13.8382   -0.2189 H   0  0  0  0  0  0  0  0  0  0  0  0
   11.3778   11.8995    1.3171 H   0  0  0  0  0  0  0  0  0  0  0  0
   10.1482   12.7652    2.2694 H   0  0  0  0  0  0  0  0  0  0  0  0
    8.6816   12.8779    0.2731 H   0  0  0  0  0  0  0  0  0  0  0  0
    9.9112   12.0122   -0.6791 H   0  0  0  0  0  0  0  0  0  0  0  0
    9.7358   10.0735    0.8568 H   0  0  0  0  0  0  0  0  0  0  0  0
    8.5062   10.9392    1.8091 H   0  0  0  0  0  0  0  0  0  0  0  0
    7.0395   11.0520   -0.1871 H   0  0  0  0  0  0  0  0  0  0  0  0
    8.2692   10.1862   -1.1394 H   0  0  0  0  0  0  0  0  0  0  0  0
    8.0937    8.2475    0.3966 H   0  0  0  0  0  0  0  0  0  0  0  0
    6.8641    9.1133    1.3488 H   0  0  0  0  0  0  0  0  0  0  0  0
    5.3975    9.2260   -0.6474 H   0  0  0  0  0  0  0  0  0  0  0  0
    6.6271    8.3603   -1.5997 H   0  0  0  0  0  0  0  0  0  0  0  0
    6.4516    6.4215   -0.0637 H   0  0  0  0  0  0  0  0  0  0  0  0
    5.2220    7.2873    0.8886 H   0  0  0  0  0  0  0  0  0  0  0  0
    3.7554    7.4000   -1.1077 H   0  0  0  0  0  0  0  0  0  0  0  0
    4.9850    6.5343   -2.0600 H   0  0  0  0  0  0  0  0  0  0  0  0
    4.8096    4.5956   -0.5240 H   0  0  0  0  0  0  0  0  0  0  0  0
    3.5800    5.4613    0.4283 H   0  0  0  0  0  0  0  0  0  0  0  0
    2.1133    5.5741   -1.5680 H   0  0  0  0  0  0  0  0  0  0  0  0
    3.3430    4.7083   -2.5202 H   0  0  0  0  0  0  0  0  0  0  0  0
    3.1675    2.7696   -0.9843 H   0  0  0  0  0  0  0  0  0  0  0  0
    1.9379    3.6353   -0.0320 H   0  0  0  0  0  0  0  0  0  0  0  0
    0.4713    3.7481   -2.0282 H   0  0  0  0  0  0  0  0  0  0  0  0
    1.7009    2.8824   -2.9805 H   0  0  0  0  0  0  0  0  0  0  0  0
    1.5254    0.9436   -1.4445 H   0  0  0  0  0  0  0  0  0  0  0  0
    0.2958    1.8094   -0.4923 H   0  0  0  0  0  0  0  0  0  0  0  0
   -2.7848    0.3906   -3.1802 H   0  0  0  0  0  0  0  0  0  0  0  0
   -1.5552   -0.4751   -4.1325 H   0  0  0  0  0  0  0  0  0  0  0  0
   -3.3080   -2.0497   -3.4682 H   0  0  0  0  0  0  0  0  0  0  0  0
   -1.9091   -3.6621   -2.1433 H   0  0  0  0  0  0  0  0  0  0  0  0
   -1.0244   -2.9313   -3.5040 H   0  0  0  0  0  0  0  0  0  0  0  0
    2.0816   -1.6301   -0.7860 H   0  0  0  0  0  0  0  0  0  0  0  0
    1.1969   -2.3608    0.5748 H   0  0  0  0  0  0  0  0  0  0  0  0
    2.2637   -4.5471    0.0943 H   0  0  0  0  0  0  0  0  0  0  0  0
    3.1483   -3.8163   -1.2665 H   0  0  0  0  0  0  0  0  0  0  0  0
    4.2495   -2.2379    0.2970 H   0  0  0  0  0  0  0  0  0  0  0  0
    3.3649   -2.9686    1.6578 H   0  0  0  0  0  0  0  0  0  0  0  0
    4.4316   -5.1549    1.1773 H   0  0  0  0  0  0  0  0  0  0  0  0
    5.3163   -4.4242   -0.1835 H   0  0  0  0  0  0  0  0  0  0  0  0
    6.4175   -2.8457    1.3800 H   0  0  0  0  0  0  0  0  0  0  0  0
    5.5328   -3.5765    2.7408 H   0  0  0  0  0  0  0  0  0  0  0  0
    6.5996   -5.7627    2.2603 H   0  0  0  0  0  0  0  0  0  0  0  0
    7.4842   -5.0320    0.8995 H   0  0  0  0  0  0  0  0  0  0  0  0
    8.5854   -3.4536    2.4630 H   0  0  0  0  0  0  0  0  0  0  0  0
    7.7008   -4.1843    3.8238 H   0  0  0  0  0  0  0  0  0  0  0  0
    8.9257   -6.4413    3.2462 H   0  0  0  0  0  0  0  0  0  0  0  0
   10.7249   -4.1360    2.4338 H   0  0  0  0  0  0  0  0  0  0  0  0
   12.1933   -5.9510    3.6494 H   0  0  0  0  0  0  0  0  0  0  0  0
   11.0418   -7.1662    3.0446 H   0  0  0  0  0  0  0  0  0  0  0  0
   11.6142   -6.5478    0.7125 H   0  0  0  0  0  0  0  0  0  0  0  0
   12.7656   -5.3327    1.3173 H   0  0  0  0  0  0  0  0  0  0  0  0
   14.0524   -7.1195    2.4575 H   0  0  0  0  0  0  0  0  0  0  0  0
   12.9009   -8.3347    1.8526 H   0  0  0  0  0  0  0  0  0  0  0  0
   13.4733   -7.7163   -0.4794 H   0  0  0  0  0  0  0  0  0  0  0  0
   14.6248   -6.5011    0.1254 H   0  0  0  0  0  0  0  0  0  0  0  0
   15.9115   -8.2880    1.2655 H   0  0  0  0  0  0  0  0  0  0  0  0
   14.7601   -9.5031    0.6607 H   0  0  0  0  0  0  0  0  0  0  0  0
   15.3324   -8.8848   -1.6714 H   0  0  0  0  0  0  0  0  0  0  0  0
   16.4839   -7.6696   -1.0665 H   0  0  0  0  0  0  0  0  0  0  0  0
   17.7707   -9.4565    0.0736 H   0  0  0  0  0  0  0  0  0  0  0  0
   16.6192  -10.6716   -0.5312 H   0  0  0  0  0  0  0  0  0  0  0  0
   17.1916  -10.0533   -2.8633 H   0  0  0  0  0  0  0  0  0  0  0  0
   18.3431   -8.8381   -2.2585 H   0  0  0  0  0  0  0  0  0  0  0  0
   18.6395  -10.5686   -1.9653 H   0  0  0  0  0  0  0  0  0  0  0  0
   -5.3855   -1.9261    0.3369 H   0  0  0  0  0  0  0  0  0  0  0  0
   -4.9425   -0.2022    0.3469 H   0  0  0  0  0  0  0  0  0  0  0  0
   -6.8411    0.2945   -1.1687 H   0  0  0  0  0  0  0  0  0  0  0  0
   -7.2842   -1.4295   -1.1786 H   0  0  0  0  0  0  0  0  0  0  0  0
   -7.6293   -1.3549    1.2757 H   0  0  0  0  0  0  0  0  0  0  0  0
   -7.1863    0.3690    1.2857 H   0  0  0  0  0  0  0  0  0  0  0  0
   -9.0850    0.8657   -0.2299 H   0  0  0  0  0  0  0  0  0  0  0  0
   -9.5280   -0.8582   -0.2398 H   0  0  0  0  0  0  0  0  0  0  0  0
   -9.8732   -0.7836    2.2145 H   0  0  0  0  0  0  0  0  0  0  0  0
   -9.4301    0.9403    2.2245 H   0  0  0  0  0  0  0  0  0  0  0  0
  -11.3288    1.4370    0.7089 H   0  0  0  0  0  0  0  0  0  0  0  0
  -11.7718   -0.2870    0.6989 H   0  0  0  0  0  0  0  0  0  0  0  0
  -12.1170   -0.2124    3.1533 H   0  0  0  0  0  0  0  0  0  0  0  0
  -11.6739    1.5115    3.1632 H   0  0  0  0  0  0  0  0  0  0  0  0
  -13.7433    1.9245    1.5899 H   0  0  0  0  0  0  0  0  0  0  0  0
  -14.3387   -0.4743    3.3513 H   0  0  0  0  0  0  0  0  0  0  0  0
  -16.4814    1.0522    3.2694 H   0  0  0  0  0  0  0  0  0  0  0  0
  -15.9579    1.5556    1.6444 H   0  0  0  0  0  0  0  0  0  0  0  0
  -16.1435   -0.7888    0.8583 H   0  0  0  0  0  0  0  0  0  0  0  0
  -16.6671   -1.2922    2.4834 H   0  0  0  0  0  0  0  0  0  0  0  0
  -18.6321    0.2108    2.3159 H   0  0  0  0  0  0  0  0  0  0  0  0
  -18.1086    0.7142    0.6909 H   0  0  0  0  0  0  0  0  0  0  0  0
  -18.2942   -1.6302   -0.0952 H   0  0  0  0  0  0  0  0  0  0  0  0
  -18.8177   -2.1336    1.5299 H   0  0  0  0  0  0  0  0  0  0  0  0
  -20.7828   -0.6305    1.3624 H   0  0  0  0  0  0  0  0  0  0  0  0
  -20.2592   -0.1271   -0.2626 H   0  0  0  0  0  0  0  0  0  0  0  0
  -20.4448   -2.4716   -1.0487 H   0  0  0  0  0  0  0  0  0  0  0  0
  -20.9684   -2.9749    0.5764 H   0  0  0  0  0  0  0  0  0  0  0  0
  -22.9334   -1.4719    0.4089 H   0  0  0  0  0  0  0  0  0  0  0  0
  -22.4099   -0.9685   -1.2162 H   0  0  0  0  0  0  0  0  0  0  0  0
  -22.5955   -3.3129   -2.0022 H   0  0  0  0  0  0  0  0  0  0  0  0
  -23.1190   -3.8163   -0.3771 H   0  0  0  0  0  0  0  0  0  0  0  0
  -24.1461   -2.7339   -1.3476 H   0  0  0  0  0  0  0  0  0  0  0  0
  1  2  1  0  0  0  0
  2  3  1  0  0  0  0
  3  4  1  0  0  0  0
  4  5  1  0  0  0  0
  5  6  1  0  0  0  0
  6  7  1  0  0  0  0
  7  8  1  0  0  0  0
  8  9  1  0  0  0  0
  9 10  1  0  0  0  0
 10 11  1  0  0  0  0
 11 12  1  0  0  0  0
 12 13  1  0  0  0  0
 13 14  1  0  0  0  0
 14 15  1  0  0  0  0
 15 16  1  0  0  0  0
 16 17  2  0  0  0  0
 16 18  1  0  0  0  0
 18 19  1  0  0  0  0
 19 20  1  0  0  0  0
 20 21  1  0  0  0  0
 21 22  1  0  0  0  0
 22 23  1  0  0  0  0
 23 24  2  0  0  0  0
 23 25  1  0  0  0  0
 25 26  1  0  0  0  0
 26 27  1  0  0  0  0
 27 28  1  0  0  0  0
 28 29  1  0  0  0  0
 29 30  1  0  0  0  0
 30 31  1  0  0  0  0
 31 32  1  0  0  0  0
 32 33  2  0  0  0  0
 33 34  1  0  0  0  0
 34 35  1  0  0  0  0
 35 36  1  0  0  0  0
 36 37  1  0  0  0  0
 37 38  1  0  0  0  0
 38 39  1  0  0  0  0
 39 40  1  0  0  0  0
 40 41  1  0  0  0  0
 20 42  1  0  0  0  0
 42 43  1  0  0  0  0
 43 44  2  0  0  0  0
 43 45  1  0  0  0  0
 45 46  1  0  0  0  0
 46 47  1  0  0  0  0
 47 48  1  0  0  0  0
 48 49  1  0  0  0  0
 49 50  1  0  0  0  0
 50 51  1  0  0  0  0
 51 52  1  0  0  0  0
 52 53  2  0  0  0  0
 53 54  1  0  0  0  0
 54 55  1  0  0  0  0
 55 56  1  0  0  0  0
 56 57  1  0  0  0  0
 57 58  1  0  0  0  0
 58 59  1  0  0  0  0
 59 60  1  0  0  0  0
 60 61  1  0  0  0  0
  1 62  1  0  0  0  0
  1 63  1  0  0  0  0
  1 64  1  0  0  0  0
  2 65  1  0  0  0  0
  2 66  1  0  0  0  0
  3 67  1  0  0  0  0
  3 68  1  0  0  0  0
  4 69  1  0  0  0  0
  4 70  1  0  0  0  0
  5 71  1  0  0  0  0
  5 72  1  0  0  0  0
  6 73  1  0  0  0  0
  6 74  1  0  0  0  0
  7 75  1  0  0  0  0
  7 76  1  0  0  0  0
  8 77  1  0  0  0  0
  8 78  1  0  0  0  0
  9 79  1  0  0  0  0
  9 80  1  0  0  0  0
 10 81  1  0  0  0  0
 10 82  1  0  0  0  0
 11 83  1  0  0  0  0
 11 84  1  0  0  0  0
 12 85  1  0  0  0  0
 12 86  1  0  0  0  0
 13 87  1  0  0  0  0
 13 88  1  0  0  0  0
 14 89  1  0  0  0  0
 14 90  1  0  0  0  0
 15 91  1  0  0  0  0
 15 92  1  0  0  0  0
 19 93  1  0  0  0  0
 19 94  1  0  0  0  0
 20 95  1  0  0  0  0
 21 96  1  0  0  0  0
 21 97  1  0  0  0  0
 25 98  1  0  0  0  0
 25 99  1  0  0  0  0
 26100  1  0  0  0  0
 26101  1  0  0  0  0
 27102  1  0  0  0  0
 27103  1  0  0  0  0
 28104  1  0  0  0  0
 28105  1  0  0  0  0
 29106  1  0  0  0  0
 29107  1  0  0  0  0
 30108  1  0  0  0  0
 30109  1  0  0  0  0
 31110  1  0  0  0  0
 31111  1  0  0  0  0
 32112  1  0  0  0  0
 33113  1  0  0  0  0
 34114  1  0  0  0  0
 34115  1  0  0  0  0
 35116  1  0  0  0  0
 35117  1  0  0  0  0
 36118  1  0  0  0  0
 36119  1  0  0  0  0
 37120  1  0  0  0  0
 37121  1  0  0  0  0
 38122  1  0  0  0  0
 38123  1  0  0  0  0
 39124  1  0  0  0  0
 39125  1  0  0  0  0
 40126  1  0  0  0  0
 40127  1  0  0  0  0
 41128  1  0  0  0  0
 41129  1  0  0  0  0
 41130  1  0  0  0  0
 45131  1  0  0  0  0
 45132  1  0  0  0  0
 46133  1  0  0  0  0
 46134  1  0  0  0  0
 47135  1  0  0  0  0
 47136  1  0  0  0  0
 48137  1  0  0  0  0
 48138  1  0  0  0  0
 49139  1  0  0  0  0
 49140  1  0  0  0  0
 50141  1  0  0  0  0
 50142  1  0  0  0  0
 51143  1  0  0  0  0
 51144  1  0  0  0  0
 52145  1  0  0  0  0
 53146  1  0  0  0  0
 54147  1  0  0  0  0
 54148  1  0  0  0  0
 55149  1  0  0  0  0
 55150  1  0  0  0  0
 56151  1  0  0  0  0
 56152  1  0  0  0  0
 57153  1  0  0  0  0
 57154  1  0  0  0  0
 58155  1  0  0  0  0
 58156  1  0  0  0  0
 59157  1  0  0  0  0
 59158  1  0  0  0  0
 60159  1  0  0  0  0
 60160  1  0  0  0  0
 61161  1  0  0  0  0
 61162  1  0  0  0  0
 61163  1  0  0  0  0
M  END
$$$$
