C11H18N2O5S
APtclcactv06291802483D 0   0.00000     0.00000
 
 37 36  0  0  0  0  0  0  0  0999 V2000
    6.5779    2.9974    0.4467 C   0  0  0  0  0  0  0  0  0  0  0  0
    5.1854    2.6335   -0.0001 C   0  0  0  0  0  0  0  0  0  0  0  0
    4.7437    1.3981    0.1546 C   0  0  0  0  0  0  0  0  0  0  0  0
    3.1156    0.9726   -0.3678 S   0  0  0  0  0  0  0  0  0  0  0  0
    2.9992   -0.7881    0.0528 C   0  0  0  0  0  0  0  0  0  0  0  0
    1.6199   -1.3174   -0.3451 C   0  0  0  0  0  0  0  0  0  0  0  0
    1.5231   -2.7801    0.0043 C   0  0  0  0  0  0  0  0  0  0  0  0
    0.6762   -3.1619    0.7769 O   0  0  0  0  0  0  0  0  0  0  0  0
    2.3778   -3.6588   -0.5426 O   0  0  0  0  0  0  0  0  0  0  0  0
    0.5845   -0.5734    0.3765 N   0  0  0  0  0  0  0  0  0  0  0  0
   -0.6589   -0.4808   -0.1351 C   0  0  0  0  0  0  0  0  0  0  0  0
   -0.9207   -1.0133   -1.1928 O   0  0  0  0  0  0  0  0  0  0  0  0
   -1.7240    0.2846    0.6072 C   0  0  0  0  0  0  0  0  0  0  0  0
   -3.0326    0.2351   -0.1840 C   0  0  0  0  0  0  0  0  0  0  0  0
   -4.1139    1.0121    0.5696 C   0  0  0  0  0  0  0  0  0  0  0  0
   -5.3669    1.0679   -0.2659 C   0  0  0  0  0  0  0  0  0  0  0  0
   -6.2796    0.3099   -0.0374 O   0  0  0  0  0  0  0  0  0  0  0  0
   -5.4689    1.9597   -1.2640 O   0  0  0  0  0  0  0  0  0  0  0  0
   -4.4037    0.3385    1.8424 N   0  0  0  0  0  0  0  0  0  0  0  0
    6.7621    4.0516    0.2395 H   0  0  0  0  0  0  0  0  0  0  0  0
    6.6753    2.8151    1.5169 H   0  0  0  0  0  0  0  0  0  0  0  0
    7.3034    2.3889   -0.0931 H   0  0  0  0  0  0  0  0  0  0  0  0
    4.5486    3.3827   -0.4469 H   0  0  0  0  0  0  0  0  0  0  0  0
    5.3806    0.6489    0.6014 H   0  0  0  0  0  0  0  0  0  0  0  0
    3.7695   -1.3417   -0.4841 H   0  0  0  0  0  0  0  0  0  0  0  0
    3.1415   -0.9155    1.1259 H   0  0  0  0  0  0  0  0  0  0  0  0
    1.4776   -1.1900   -1.4183 H   0  0  0  0  0  0  0  0  0  0  0  0
    2.2768   -4.5862   -0.2881 H   0  0  0  0  0  0  0  0  0  0  0  0
    0.7939   -0.1475    1.2224 H   0  0  0  0  0  0  0  0  0  0  0  0
   -1.8759   -0.1637    1.5890 H   0  0  0  0  0  0  0  0  0  0  0  0
   -1.4101    1.3216    0.7259 H   0  0  0  0  0  0  0  0  0  0  0  0
   -2.8807    0.6834   -1.1659 H   0  0  0  0  0  0  0  0  0  0  0  0
   -3.3464   -0.8019   -0.3028 H   0  0  0  0  0  0  0  0  0  0  0  0
   -3.7630    2.0252    0.7663 H   0  0  0  0  0  0  0  0  0  0  0  0
   -6.2916    1.9577   -1.7721 H   0  0  0  0  0  0  0  0  0  0  0  0
   -4.7310   -0.6032    1.6869 H   0  0  0  0  0  0  0  0  0  0  0  0
   -3.5961    0.3453    2.4472 H   0  0  0  0  0  0  0  0  0  0  0  0
  1  2  1  0  0  0  0
  2  3  2  0  0  0  0
  3  4  1  0  0  0  0
  4  5  1  0  0  0  0
  5  6  1  0  0  0  0
  6  7  1  0  0  0  0
  7  8  2  0  0  0  0
  7  9  1  0  0  0  0
  6 10  1  0  0  0  0
 10 11  1  0  0  0  0
 11 12  2  0  0  0  0
 11 13  1  0  0  0  0
 13 14  1  0  0  0  0
 14 15  1  0  0  0  0
 15 16  1  0  0  0  0
 16 17  2  0  0  0  0
 16 18  1  0  0  0  0
 15 19  1  0  0  0  0
  1 20  1  0  0  0  0
  1 21  1  0  0  0  0
  1 22  1  0  0  0  0
  2 23  1  0  0  0  0
  3 24  1  0  0  0  0
  5 25  1  0  0  0  0
  5 26  1  0  0  0  0
  6 27  1  0  0  0  0
  9 28  1  0  0  0  0
 10 29  1  0  0  0  0
 13 30  1  0  0  0  0
 13 31  1  0  0  0  0
 14 32  1  0  0  0  0
 14 33  1  0  0  0  0
 15 34  1  0  0  0  0
 18 35  1  0  0  0  0
 19 36  1  0  0  0  0
 19 37  1  0  0  0  0
M  END
$$$$
