C20H26O5
APtclcactv06291802483D 0   0.00000     0.00000
 
 51 54  0  0  0  0  0  0  0  0999 V2000
    0.8149    0.9915    1.9295 C   0  0  0  0  0  0  0  0  0  0  0  0
    0.4551    1.1565    0.4536 C   0  0  0  0  0  0  0  0  0  0  0  0
    1.2581    2.2975   -0.1185 C   0  0  0  0  0  0  0  0  0  0  0  0
    2.7446    1.9226   -0.0096 C   0  0  0  0  0  0  0  0  0  0  0  0
    3.0485    0.6489   -0.7788 C   0  0  0  0  0  0  0  0  0  0  0  0
    2.1457   -0.5447   -0.4271 C   0  0  0  0  0  0  0  0  0  0  0  0
    0.7128   -0.1273   -0.3607 C   0  0  0  0  0  0  0  0  0  0  0  0
   -0.3492   -1.0711    0.2346 C   0  0  0  0  0  0  0  0  0  0  0  0
   -1.5781   -0.1569    0.2010 C   0  0  0  0  0  0  0  0  0  0  0  0
   -1.0653    1.2898    0.4212 C   0  0  0  0  0  0  0  0  0  0  0  0
   -1.5938    2.1875   -0.6854 C   0  0  0  0  0  0  0  0  0  0  0  0
   -3.1303    2.1129   -0.6785 C   0  0  0  0  0  0  0  0  0  0  0  0
   -3.5749    0.6464   -0.7850 C   0  0  0  0  0  0  0  0  0  0  0  0
   -2.3124   -0.1899   -1.1538 C   0  0  0  0  0  0  0  0  0  0  0  0
   -3.9369    0.1471    0.6101 C   0  0  0  0  0  0  0  0  0  0  0  0
   -5.1125    0.2219    1.1842 C   0  0  0  0  0  0  0  0  0  0  0  0
   -2.6751   -0.4614    1.2141 C   0  0  0  0  0  0  0  0  0  0  0  0
   -0.5667   -2.3099   -0.5892 C   0  0  0  0  0  0  0  0  0  0  0  0
   -0.7656   -3.3801   -0.0400 O   0  0  0  0  0  0  0  0  0  0  0  0
   -0.5442   -2.2443   -1.8064 O   0  5  0  0  0  0  0  0  0  0  0  0
    2.3292   -1.5547   -1.5934 C   0  0  0  0  0  0  0  0  0  0  0  0
    2.6457   -1.2275    0.8188 C   0  0  0  0  0  0  0  0  0  0  0  0
    3.6383   -0.8066    1.3881 O   0  0  0  0  0  0  0  0  0  0  0  0
    2.0577   -2.2010    1.2582 O   0  5  0  0  0  0  0  0  0  0  0  0
    3.5184    2.9909   -0.5790 O   0  0  0  0  0  0  0  0  0  0  0  0
    0.5706    1.9074    2.4677 H   0  0  0  0  0  0  0  0  0  0  0  0
    0.2490    0.1606    2.3507 H   0  0  0  0  0  0  0  0  0  0  0  0
    1.8818    0.7889    2.0229 H   0  0  0  0  0  0  0  0  0  0  0  0
    0.9920    2.4541   -1.1654 H   0  0  0  0  0  0  0  0  0  0  0  0
    1.0638    3.2107    0.4470 H   0  0  0  0  0  0  0  0  0  0  0  0
    3.0455    1.8163    1.0273 H   0  0  0  0  0  0  0  0  0  0  0  0
    2.9519    0.8514   -1.8504 H   0  0  0  0  0  0  0  0  0  0  0  0
    4.0884    0.3622   -0.5893 H   0  0  0  0  0  0  0  0  0  0  0  0
    0.3856    0.0810   -1.4125 H   0  0  0  0  0  0  0  0  0  0  0  0
   -0.1136   -1.3482    1.2639 H   0  0  0  0  0  0  0  0  0  0  0  0
   -1.4029    1.6551    1.3915 H   0  0  0  0  0  0  0  0  0  0  0  0
   -1.2907    3.2226   -0.4851 H   0  0  0  0  0  0  0  0  0  0  0  0
   -1.1992    1.8917   -1.6520 H   0  0  0  0  0  0  0  0  0  0  0  0
   -3.5102    2.5483    0.2467 H   0  0  0  0  0  0  0  0  0  0  0  0
   -3.5232    2.6770   -1.5268 H   0  0  0  0  0  0  0  0  0  0  0  0
   -4.3884    0.5059   -1.5002 H   0  0  0  0  0  0  0  0  0  0  0  0
   -1.7403    0.2669   -1.9542 H   0  0  0  0  0  0  0  0  0  0  0  0
   -2.6284   -1.1982   -1.4388 H   0  0  0  0  0  0  0  0  0  0  0  0
   -5.9418    0.6731    0.6597 H   0  0  0  0  0  0  0  0  0  0  0  0
   -5.2521   -0.1677    2.1817 H   0  0  0  0  0  0  0  0  0  0  0  0
   -2.7932   -1.5362    1.3352 H   0  0  0  0  0  0  0  0  0  0  0  0
   -2.4482    0.0091    2.1693 H   0  0  0  0  0  0  0  0  0  0  0  0
    3.3899   -1.7678   -1.7259 H   0  0  0  0  0  0  0  0  0  0  0  0
    1.7993   -2.4784   -1.3608 H   0  0  0  0  0  0  0  0  0  0  0  0
    1.9272   -1.1264   -2.5115 H   0  0  0  0  0  0  0  0  0  0  0  0
    4.4734    2.8413   -0.5543 H   0  0  0  0  0  0  0  0  0  0  0  0
  1  2  1  0  0  0  0
  2  3  1  0  0  0  0
  3  4  1  0  0  0  0
  4  5  1  0  0  0  0
  5  6  1  0  0  0  0
  6  7  1  0  0  0  0
  2  7  1  0  0  0  0
  7  8  1  0  0  0  0
  8  9  1  0  0  0  0
  9 10  1  0  0  0  0
  2 10  1  0  0  0  0
 10 11  1  0  0  0  0
 11 12  1  0  0  0  0
 12 13  1  0  0  0  0
 13 14  1  0  0  0  0
  9 14  1  0  0  0  0
 13 15  1  0  0  0  0
 15 16  2  0  0  0  0
 15 17  1  0  0  0  0
  9 17  1  0  0  0  0
  8 18  1  0  0  0  0
 18 19  2  0  0  0  0
 18 20  1  0  0  0  0
  6 21  1  0  0  0  0
  6 22  1  0  0  0  0
 22 23  2  0  0  0  0
 22 24  1  0  0  0  0
  4 25  1  0  0  0  0
  1 26  1  0  0  0  0
  1 27  1  0  0  0  0
  1 28  1  0  0  0  0
  3 29  1  0  0  0  0
  3 30  1  0  0  0  0
  4 31  1  0  0  0  0
  5 32  1  0  0  0  0
  5 33  1  0  0  0  0
  7 34  1  0  0  0  0
  8 35  1  0  0  0  0
 10 36  1  0  0  0  0
 11 37  1  0  0  0  0
 11 38  1  0  0  0  0
 12 39  1  0  0  0  0
 12 40  1  0  0  0  0
 13 41  1  0  0  0  0
 14 42  1  0  0  0  0
 14 43  1  0  0  0  0
 16 44  1  0  0  0  0
 16 45  1  0  0  0  0
 17 46  1  0  0  0  0
 17 47  1  0  0  0  0
 21 48  1  0  0  0  0
 21 49  1  0  0  0  0
 21 50  1  0  0  0  0
 25 51  1  0  0  0  0
M  CHG  2  20  -1  24  -1
M  END
$$$$
