C16H20O9
APtclcactv06291802483D 0   0.00000     0.00000
 
 45 46  0  0  0  0  0  0  0  0999 V2000
    6.7397    2.4973   -0.8216 C   0  0  0  0  0  0  0  0  0  0  0  0
    7.0246    1.1992   -0.2965 O   0  0  0  0  0  0  0  0  0  0  0  0
    5.9618    0.3918   -0.0354 C   0  0  0  0  0  0  0  0  0  0  0  0
    6.1683   -0.8880    0.4783 C   0  0  0  0  0  0  0  0  0  0  0  0
    5.0862   -1.7160    0.7465 C   0  0  0  0  0  0  0  0  0  0  0  0
    3.8027   -1.2776    0.5063 C   0  0  0  0  0  0  0  0  0  0  0  0
    3.5871    0.0059   -0.0089 C   0  0  0  0  0  0  0  0  0  0  0  0
    4.6783    0.8417   -0.2739 C   0  0  0  0  0  0  0  0  0  0  0  0
    2.2188    0.4764   -0.2661 C   0  0  0  0  0  0  0  0  0  0  0  0
    1.1669   -0.3301   -0.0053 C   0  0  0  0  0  0  0  0  0  0  0  0
   -0.1531    0.1238   -0.2535 C   0  0  0  0  0  0  0  0  0  0  0  0
   -0.3385    1.2396   -0.7013 O   0  0  0  0  0  0  0  0  0  0  0  0
   -1.2037   -0.6818    0.0070 O   0  0  0  0  0  0  0  0  0  0  0  0
   -2.5053   -0.1595   -0.2671 C   0  0  0  0  0  0  0  0  0  0  0  0
   -3.4483   -1.3065   -0.6433 C   0  0  0  0  0  0  0  0  0  0  0  0
   -4.8571   -0.7448   -0.8586 C   0  0  0  0  0  0  0  0  0  0  0  0
   -5.3066   -0.0155    0.4101 C   0  0  0  0  0  0  0  0  0  0  0  0
   -4.3701    1.0181    0.7210 O   0  0  0  0  0  0  0  0  0  0  0  0
   -3.0457    0.5472    0.9788 C   0  0  0  0  0  0  0  0  0  0  0  0
   -3.0710   -0.3704    2.0740 O   0  0  0  0  0  0  0  0  0  0  0  0
   -6.6888    0.5999    0.1823 C   0  0  0  0  0  0  0  0  0  0  0  0
   -7.1586    1.1801    1.4008 O   0  0  0  0  0  0  0  0  0  0  0  0
   -4.8438    0.1702   -1.9561 O   0  0  0  0  0  0  0  0  0  0  0  0
   -2.9914   -1.9256   -1.8474 O   0  0  0  0  0  0  0  0  0  0  0  0
    7.4316   -1.3261    0.7168 O   0  0  0  0  0  0  0  0  0  0  0  0
    7.6730    3.0364   -0.9841 H   0  0  0  0  0  0  0  0  0  0  0  0
    6.2081    2.3977   -1.7679 H   0  0  0  0  0  0  0  0  0  0  0  0
    6.1206    3.0479   -0.1133 H   0  0  0  0  0  0  0  0  0  0  0  0
    5.2514   -2.7065    1.1440 H   0  0  0  0  0  0  0  0  0  0  0  0
    2.9631   -1.9240    0.7151 H   0  0  0  0  0  0  0  0  0  0  0  0
    4.5171    1.8330   -0.6711 H   0  0  0  0  0  0  0  0  0  0  0  0
    2.0542    1.4670   -0.6637 H   0  0  0  0  0  0  0  0  0  0  0  0
    1.3315   -1.3207    0.3922 H   0  0  0  0  0  0  0  0  0  0  0  0
   -2.4468    0.5497   -1.0927 H   0  0  0  0  0  0  0  0  0  0  0  0
   -3.4678   -2.0414    0.1614 H   0  0  0  0  0  0  0  0  0  0  0  0
   -5.5462   -1.5618   -1.0726 H   0  0  0  0  0  0  0  0  0  0  0  0
   -5.3555   -0.7228    1.2381 H   0  0  0  0  0  0  0  0  0  0  0  0
   -2.4016    1.3911    1.2262 H   0  0  0  0  0  0  0  0  0  0  0  0
   -3.4040    0.0100    2.8983 H   0  0  0  0  0  0  0  0  0  0  0  0
   -6.6211    1.3712   -0.5849 H   0  0  0  0  0  0  0  0  0  0  0  0
   -7.3827   -0.1754   -0.1422 H   0  0  0  0  0  0  0  0  0  0  0  0
   -8.0316    1.5899    1.3303 H   0  0  0  0  0  0  0  0  0  0  0  0
   -5.7051    0.5651   -2.1494 H   0  0  0  0  0  0  0  0  0  0  0  0
   -2.1011   -2.2979   -1.7849 H   0  0  0  0  0  0  0  0  0  0  0  0
    7.7543   -1.1303    1.6071 H   0  0  0  0  0  0  0  0  0  0  0  0
  1  2  1  0  0  0  0
  2  3  1  0  0  0  0
  3  4  2  0  0  0  0
  4  5  1  0  0  0  0
  5  6  2  0  0  0  0
  6  7  1  0  0  0  0
  7  8  2  0  0  0  0
  3  8  1  0  0  0  0
  7  9  1  0  0  0  0
  9 10  2  0  0  0  0
 10 11  1  0  0  0  0
 11 12  2  0  0  0  0
 11 13  1  0  0  0  0
 13 14  1  0  0  0  0
 14 15  1  0  0  0  0
 15 16  1  0  0  0  0
 16 17  1  0  0  0  0
 17 18  1  0  0  0  0
 18 19  1  0  0  0  0
 14 19  1  0  0  0  0
 19 20  1  0  0  0  0
 17 21  1  0  0  0  0
 21 22  1  0  0  0  0
 16 23  1  0  0  0  0
 15 24  1  0  0  0  0
  4 25  1  0  0  0  0
  1 26  1  0  0  0  0
  1 27  1  0  0  0  0
  1 28  1  0  0  0  0
  5 29  1  0  0  0  0
  6 30  1  0  0  0  0
  8 31  1  0  0  0  0
  9 32  1  0  0  0  0
 10 33  1  0  0  0  0
 14 34  1  0  0  0  0
 15 35  1  0  0  0  0
 16 36  1  0  0  0  0
 17 37  1  0  0  0  0
 19 38  1  0  0  0  0
 20 39  1  0  0  0  0
 21 40  1  0  0  0  0
 21 41  1  0  0  0  0
 22 42  1  0  0  0  0
 23 43  1  0  0  0  0
 24 44  1  0  0  0  0
 25 45  1  0  0  0  0
M  END
$$$$
