C20H22O6
APtclcactv06291802483D 0   0.00000     0.00000
 
 48 51  0  0  0  0  0  0  0  0999 V2000
   -5.5938   -2.3645    1.6199 C   0  0  0  0  0  0  0  0  0  0  0  0
   -5.9724   -1.5038    0.5438 O   0  0  0  0  0  0  0  0  0  0  0  0
   -5.0743   -0.5547    0.1670 C   0  0  0  0  0  0  0  0  0  0  0  0
   -5.3770    0.3177   -0.8740 C   0  0  0  0  0  0  0  0  0  0  0  0
   -4.4587    1.2833   -1.2539 C   0  0  0  0  0  0  0  0  0  0  0  0
   -3.2449    1.3785   -0.5991 C   0  0  0  0  0  0  0  0  0  0  0  0
   -2.9439    0.5114    0.4348 C   0  0  0  0  0  0  0  0  0  0  0  0
   -3.8579   -0.4506    0.8225 C   0  0  0  0  0  0  0  0  0  0  0  0
   -1.6189    0.6189    1.1445 C   0  0  0  0  0  0  0  0  0  0  0  0
   -0.5647   -0.2853    0.4640 C   0  0  0  0  0  0  0  0  0  0  0  0
   -0.6501   -0.0759   -1.0666 C   0  0  0  0  0  0  0  0  0  0  0  0
    0.7219   -0.1664   -1.5040 O   0  0  0  0  0  0  0  0  0  0  0  0
    1.5197    0.5183   -0.5248 C   0  0  0  0  0  0  0  0  0  0  0  0
    0.7726    0.4359    0.8192 C   0  0  0  0  0  0  0  0  0  0  0  0
    0.3358    1.8519    1.2366 C   0  0  0  0  0  0  0  0  0  0  0  0
   -1.0793    1.9495    1.0086 O   0  0  0  0  0  0  0  0  0  0  0  0
    2.8656   -0.1487   -0.4039 C   0  0  0  0  0  0  0  0  0  0  0  0
    3.9883    0.6087   -0.1266 C   0  0  0  0  0  0  0  0  0  0  0  0
    5.2266   -0.0031   -0.0152 C   0  0  0  0  0  0  0  0  0  0  0  0
    5.3365   -1.3801   -0.1830 C   0  0  0  0  0  0  0  0  0  0  0  0
    4.2072   -2.1334   -0.4608 C   0  0  0  0  0  0  0  0  0  0  0  0
    2.9739   -1.5175   -0.5651 C   0  0  0  0  0  0  0  0  0  0  0  0
    6.5497   -1.9850   -0.0750 O   0  0  0  0  0  0  0  0  0  0  0  0
    6.3321    0.7407    0.2572 O   0  0  0  0  0  0  0  0  0  0  0  0
    6.1440    2.1483    0.4164 C   0  0  0  0  0  0  0  0  0  0  0  0
   -6.5714    0.2225   -1.5174 O   0  0  0  0  0  0  0  0  0  0  0  0
   -5.4056   -1.7684    2.5129 H   0  0  0  0  0  0  0  0  0  0  0  0
   -6.3980   -3.0729    1.8188 H   0  0  0  0  0  0  0  0  0  0  0  0
   -4.6890   -2.9086    1.3489 H   0  0  0  0  0  0  0  0  0  0  0  0
   -4.6911    1.9614   -2.0617 H   0  0  0  0  0  0  0  0  0  0  0  0
   -2.5301    2.1315   -0.8962 H   0  0  0  0  0  0  0  0  0  0  0  0
   -3.6205   -1.1264    1.6308 H   0  0  0  0  0  0  0  0  0  0  0  0
   -1.7274    0.3541    2.1962 H   0  0  0  0  0  0  0  0  0  0  0  0
   -0.6190   -1.3304    0.7688 H   0  0  0  0  0  0  0  0  0  0  0  0
   -1.2511   -0.8598   -1.5273 H   0  0  0  0  0  0  0  0  0  0  0  0
   -1.0608    0.9074   -1.2961 H   0  0  0  0  0  0  0  0  0  0  0  0
    1.6465    1.5615   -0.8145 H   0  0  0  0  0  0  0  0  0  0  0  0
    1.3443   -0.0833    1.5884 H   0  0  0  0  0  0  0  0  0  0  0  0
    0.5525    2.0100    2.2930 H   0  0  0  0  0  0  0  0  0  0  0  0
    0.8599    2.5938    0.6342 H   0  0  0  0  0  0  0  0  0  0  0  0
    3.9003    1.6773    0.0028 H   0  0  0  0  0  0  0  0  0  0  0  0
    4.2898   -3.2022   -0.5918 H   0  0  0  0  0  0  0  0  0  0  0  0
    2.0945   -2.1058   -0.7816 H   0  0  0  0  0  0  0  0  0  0  0  0
    6.7656   -2.2762    0.8215 H   0  0  0  0  0  0  0  0  0  0  0  0
    5.7290    2.5655   -0.5012 H   0  0  0  0  0  0  0  0  0  0  0  0
    5.4567    2.3319    1.2423 H   0  0  0  0  0  0  0  0  0  0  0  0
    7.1027    2.6211    0.6295 H   0  0  0  0  0  0  0  0  0  0  0  0
   -7.2730    0.7605   -1.1258 H   0  0  0  0  0  0  0  0  0  0  0  0
  1  2  1  0  0  0  0
  2  3  1  0  0  0  0
  3  4  2  0  0  0  0
  4  5  1  0  0  0  0
  5  6  2  0  0  0  0
  6  7  1  0  0  0  0
  7  8  2  0  0  0  0
  3  8  1  0  0  0  0
  7  9  1  0  0  0  0
  9 10  1  0  0  0  0
 10 11  1  0  0  0  0
 11 12  1  0  0  0  0
 12 13  1  0  0  0  0
 13 14  1  0  0  0  0
 10 14  1  0  0  0  0
 14 15  1  0  0  0  0
 15 16  1  0  0  0  0
  9 16  1  0  0  0  0
 13 17  1  0  0  0  0
 17 18  2  0  0  0  0
 18 19  1  0  0  0  0
 19 20  2  0  0  0  0
 20 21  1  0  0  0  0
 21 22  2  0  0  0  0
 17 22  1  0  0  0  0
 20 23  1  0  0  0  0
 19 24  1  0  0  0  0
 24 25  1  0  0  0  0
  4 26  1  0  0  0  0
  1 27  1  0  0  0  0
  1 28  1  0  0  0  0
  1 29  1  0  0  0  0
  5 30  1  0  0  0  0
  6 31  1  0  0  0  0
  8 32  1  0  0  0  0
  9 33  1  0  0  0  0
 10 34  1  0  0  0  0
 11 35  1  0  0  0  0
 11 36  1  0  0  0  0
 13 37  1  0  0  0  0
 14 38  1  0  0  0  0
 15 39  1  0  0  0  0
 15 40  1  0  0  0  0
 18 41  1  0  0  0  0
 21 42  1  0  0  0  0
 22 43  1  0  0  0  0
 23 44  1  0  0  0  0
 25 45  1  0  0  0  0
 25 46  1  0  0  0  0
 25 47  1  0  0  0  0
 26 48  1  0  0  0  0
M  END
$$$$
