C20H23O8
APtclcactv06291802483D 0   0.00000     0.00000
 
 51 54  0  0  0  0  0  0  0  0999 V2000
   -2.2095   -0.7410   -2.4053 C   0  0  0  0  0  0  0  0  0  0  0  0
   -1.8992   -0.0858   -1.0579 C   0  0  0  0  0  0  0  0  0  0  0  0
   -0.4413    0.3282   -1.0079 C   0  0  0  0  0  0  0  0  0  0  0  0
    0.5887   -0.8114   -1.0980 C   0  0  0  0  0  0  0  0  0  0  0  0
    1.8208   -0.1630   -0.4700 C   0  0  0  0  0  0  0  0  0  0  0  0
    2.6359    0.6251   -1.5213 C   0  0  0  0  0  0  0  0  0  0  0  0
    3.9208    0.9160   -0.6923 C   0  0  0  0  0  0  0  0  0  0  0  0
    3.5278    1.9807    0.3489 C   0  0  0  0  0  0  0  0  0  0  0  0
    2.0061    2.1971    0.2907 C   0  0  0  0  0  0  0  0  0  0  0  0
    1.3211    0.8645    0.5771 C   0  0  0  0  0  0  0  0  0  0  0  0
   -0.1811    0.8903    0.4157 C   0  0  0  0  0  0  0  0  0  0  0  0
   -0.9040    2.2125    0.5299 C   0  0  0  0  0  0  0  0  0  0  0  0
   -2.4095    1.9172    0.4106 C   0  0  0  0  0  0  0  0  0  0  0  0
   -2.7378    1.1927   -0.8911 C   0  0  0  0  0  0  0  0  0  0  0  0
   -2.4767    2.0679   -1.9901 O   0  0  0  0  0  0  0  0  0  0  0  0
   -2.8140    1.1026    1.5128 O   0  0  0  0  0  0  0  0  0  0  0  0
   -0.7861   -0.0597    1.4170 C   0  0  0  0  0  0  0  0  0  0  0  0
   -1.2649    0.3699    2.4527 O   0  0  0  0  0  0  0  0  0  0  0  0
   -0.7968   -1.2578    1.1913 O   0  5  0  0  0  0  0  0  0  0  0  0
    4.1727   -0.3932    0.0483 C   0  0  0  0  0  0  0  0  0  0  0  0
    5.3251   -0.8241    0.4982 C   0  0  0  0  0  0  0  0  0  0  0  0
    2.8307   -1.1055    0.1662 C   0  0  0  0  0  0  0  0  0  0  0  0
    0.1415   -2.0079   -0.2983 C   0  0  0  0  0  0  0  0  0  0  0  0
   -0.6716   -2.7856   -0.7679 O   0  0  0  0  0  0  0  0  0  0  0  0
    0.5928   -2.1983    0.8182 O   0  5  0  0  0  0  0  0  0  0  0  0
   -2.1987   -1.0485    0.0622 C   0  0  0  0  0  0  0  0  0  0  0  0
   -2.0977   -2.2493   -0.1227 O   0  0  0  0  0  0  0  0  0  0  0  0
   -2.5419   -0.6264    1.1533 O   0  5  0  0  0  0  0  0  0  0  0  0
   -1.5813   -1.6223   -2.5339 H   0  0  0  0  0  0  0  0  0  0  0  0
   -3.2586   -1.0354   -2.4331 H   0  0  0  0  0  0  0  0  0  0  0  0
   -2.0097   -0.0319   -3.2087 H   0  0  0  0  0  0  0  0  0  0  0  0
   -0.2372    1.0826   -1.7677 H   0  0  0  0  0  0  0  0  0  0  0  0
    0.7780   -1.0858   -2.1358 H   0  0  0  0  0  0  0  0  0  0  0  0
    2.8572    0.0108   -2.3941 H   0  0  0  0  0  0  0  0  0  0  0  0
    2.1299    1.5475   -1.8061 H   0  0  0  0  0  0  0  0  0  0  0  0
    4.7607    1.2280   -1.3131 H   0  0  0  0  0  0  0  0  0  0  0  0
    3.8100    1.6390    1.3447 H   0  0  0  0  0  0  0  0  0  0  0  0
    4.0385    2.9171    0.1241 H   0  0  0  0  0  0  0  0  0  0  0  0
    1.7104    2.9308    1.0406 H   0  0  0  0  0  0  0  0  0  0  0  0
    1.7228    2.5501   -0.7009 H   0  0  0  0  0  0  0  0  0  0  0  0
    1.5797    0.5249    1.5800 H   0  0  0  0  0  0  0  0  0  0  0  0
   -0.6906    2.6703    1.4958 H   0  0  0  0  0  0  0  0  0  0  0  0
   -0.5910    2.8777   -0.2748 H   0  0  0  0  0  0  0  0  0  0  0  0
   -2.9603    2.8572    0.4433 H   0  0  0  0  0  0  0  0  0  0  0  0
   -3.7949    0.9272   -0.8932 H   0  0  0  0  0  0  0  0  0  0  0  0
   -2.9951    2.8841   -1.9747 H   0  0  0  0  0  0  0  0  0  0  0  0
   -3.7533    0.8730    1.5083 H   0  0  0  0  0  0  0  0  0  0  0  0
    6.2162   -0.2308    0.3562 H   0  0  0  0  0  0  0  0  0  0  0  0
    5.3840   -1.7728    1.0110 H   0  0  0  0  0  0  0  0  0  0  0  0
    2.5828   -1.2736    1.2143 H   0  0  0  0  0  0  0  0  0  0  0  0
    2.8564   -2.0521   -0.3735 H   0  0  0  0  0  0  0  0  0  0  0  0
  1  2  1  0  0  0  0
  2  3  1  0  0  0  0
  3  4  1  0  0  0  0
  4  5  1  0  0  0  0
  5  6  1  0  0  0  0
  6  7  1  0  0  0  0
  7  8  1  0  0  0  0
  8  9  1  0  0  0  0
  9 10  1  0  0  0  0
  5 10  1  0  0  0  0
 10 11  1  0  0  0  0
  3 11  1  0  0  0  0
 11 12  1  0  0  0  0
 12 13  1  0  0  0  0
 13 14  1  0  0  0  0
  2 14  1  0  0  0  0
 14 15  1  0  0  0  0
 13 16  1  0  0  0  0
 11 17  1  0  0  0  0
 17 18  2  0  0  0  0
 17 19  1  0  0  0  0
  7 20  1  0  0  0  0
 20 21  2  0  0  0  0
 20 22  1  0  0  0  0
  5 22  1  0  0  0  0
  4 23  1  0  0  0  0
 23 24  2  0  0  0  0
 23 25  1  0  0  0  0
  2 26  1  0  0  0  0
 26 27  2  0  0  0  0
 26 28  1  0  0  0  0
  1 29  1  0  0  0  0
  1 30  1  0  0  0  0
  1 31  1  0  0  0  0
  3 32  1  0  0  0  0
  4 33  1  0  0  0  0
  6 34  1  0  0  0  0
  6 35  1  0  0  0  0
  7 36  1  0  0  0  0
  8 37  1  0  0  0  0
  8 38  1  0  0  0  0
  9 39  1  0  0  0  0
  9 40  1  0  0  0  0
 10 41  1  0  0  0  0
 12 42  1  0  0  0  0
 12 43  1  0  0  0  0
 13 44  1  0  0  0  0
 14 45  1  0  0  0  0
 15 46  1  0  0  0  0
 16 47  1  0  0  0  0
 21 48  1  0  0  0  0
 21 49  1  0  0  0  0
 22 50  1  0  0  0  0
 22 51  1  0  0  0  0
M  CHG  3  19  -1  25  -1  28  -1
M  END
$$$$
