C16H19ClN2O
APtclcactv06211804343D 0   0.00000     0.00000
 
 39 40  0  0  0  0  0  0  0  0999 V2000
    3.2984    3.1976    1.1396 C   0  0  0  0  0  0  0  0  0  0  0  0
    3.2526    2.5817   -0.1932 N   0  0  0  0  0  0  0  0  0  0  0  0
    4.0103    3.3783   -1.1676 C   0  0  0  0  0  0  0  0  0  0  0  0
    3.7423    1.1973   -0.1505 C   0  0  0  0  0  0  0  0  0  0  0  0
    2.7822    0.3422    0.6788 C   0  0  0  0  0  0  0  0  0  0  0  0
    1.5152    0.2749    0.0214 O   0  0  0  0  0  0  0  0  0  0  0  0
    0.5402   -0.5047    0.7169 C   0  0  0  0  0  0  0  0  0  0  0  0
   -0.8360    0.0364    0.4264 C   0  0  0  0  0  0  0  0  0  0  0  0
   -1.7778    0.1075    1.4358 C   0  0  0  0  0  0  0  0  0  0  0  0
   -3.0401    0.6036    1.1699 C   0  0  0  0  0  0  0  0  0  0  0  0
   -3.3611    1.0292   -0.1068 C   0  0  0  0  0  0  0  0  0  0  0  0
   -2.4181    0.9578   -1.1167 C   0  0  0  0  0  0  0  0  0  0  0  0
   -1.1543    0.4667   -0.8482 C   0  0  0  0  0  0  0  0  0  0  0  0
   -4.9465    1.6519   -0.4417 Cl  0  0  0  0  0  0  0  0  0  0  0  0
    0.6234   -1.9380    0.2591 C   0  0  0  0  0  0  0  0  0  0  0  0
    1.6203   -2.3176   -0.6193 C   0  0  0  0  0  0  0  0  0  0  0  0
    1.6881   -3.6389   -1.0345 C   0  0  0  0  0  0  0  0  0  0  0  0
    0.7463   -4.5325   -0.5482 C   0  0  0  0  0  0  0  0  0  0  0  0
   -0.2221   -4.0798    0.3282 C   0  0  0  0  0  0  0  0  0  0  0  0
   -0.2528   -2.8168    0.7056 N   0  0  0  0  0  0  0  0  0  0  0  0
    2.8656    4.1969    1.0931 H   0  0  0  0  0  0  0  0  0  0  0  0
    2.7297    2.5877    1.8415 H   0  0  0  0  0  0  0  0  0  0  0  0
    4.3339    3.2653    1.4732 H   0  0  0  0  0  0  0  0  0  0  0  0
    5.0637    3.3886   -0.8877 H   0  0  0  0  0  0  0  0  0  0  0  0
    3.9021    2.9385   -2.1590 H   0  0  0  0  0  0  0  0  0  0  0  0
    3.6273    4.3987   -1.1789 H   0  0  0  0  0  0  0  0  0  0  0  0
    3.7991    0.8006   -1.1642 H   0  0  0  0  0  0  0  0  0  0  0  0
    4.7328    1.1761    0.3040 H   0  0  0  0  0  0  0  0  0  0  0  0
    3.1902   -0.6630    0.7850 H   0  0  0  0  0  0  0  0  0  0  0  0
    2.6566    0.7894    1.6649 H   0  0  0  0  0  0  0  0  0  0  0  0
    0.7317   -0.4540    1.7888 H   0  0  0  0  0  0  0  0  0  0  0  0
   -1.5273   -0.2250    2.4324 H   0  0  0  0  0  0  0  0  0  0  0  0
   -3.7759    0.6588    1.9586 H   0  0  0  0  0  0  0  0  0  0  0  0
   -2.6680    1.2898   -2.1135 H   0  0  0  0  0  0  0  0  0  0  0  0
   -0.4181    0.4109   -1.6365 H   0  0  0  0  0  0  0  0  0  0  0  0
    2.3374   -1.5942   -0.9783 H   0  0  0  0  0  0  0  0  0  0  0  0
    2.4561   -3.9641   -1.7206 H   0  0  0  0  0  0  0  0  0  0  0  0
    0.7688   -5.5691   -0.8504 H   0  0  0  0  0  0  0  0  0  0  0  0
   -0.9596   -4.7695    0.7113 H   0  0  0  0  0  0  0  0  0  0  0  0
  1  2  1  0  0  0  0
  2  3  1  0  0  0  0
  2  4  1  0  0  0  0
  4  5  1  0  0  0  0
  5  6  1  0  0  0  0
  6  7  1  0  0  0  0
  7  8  1  0  0  0  0
  8  9  2  0  0  0  0
  9 10  1  0  0  0  0
 10 11  2  0  0  0  0
 11 12  1  0  0  0  0
 12 13  2  0  0  0  0
  8 13  1  0  0  0  0
 11 14  1  0  0  0  0
  7 15  1  0  0  0  0
 15 16  2  0  0  0  0
 16 17  1  0  0  0  0
 17 18  2  0  0  0  0
 18 19  1  0  0  0  0
 19 20  2  0  0  0  0
 15 20  1  0  0  0  0
  1 21  1  0  0  0  0
  1 22  1  0  0  0  0
  1 23  1  0  0  0  0
  3 24  1  0  0  0  0
  3 25  1  0  0  0  0
  3 26  1  0  0  0  0
  4 27  1  0  0  0  0
  4 28  1  0  0  0  0
  5 29  1  0  0  0  0
  5 30  1  0  0  0  0
  7 31  1  0  0  0  0
  9 32  1  0  0  0  0
 10 33  1  0  0  0  0
 12 34  1  0  0  0  0
 13 35  1  0  0  0  0
 16 36  1  0  0  0  0
 17 37  1  0  0  0  0
 18 38  1  0  0  0  0
 19 39  1  0  0  0  0
M  END
$$$$
