C7H10N2
APtclcactv06211806173D 0   0.00000     0.00000
 
 19 19  0  0  0  0  0  0  0  0999 V2000
    3.1294    0.4912   -0.6236 C   0  0  0  0  0  0  0  0  0  0  0  0
    2.3976   -0.3875    0.3929 C   0  0  0  0  0  0  0  0  0  0  0  0
    0.9099   -0.2062    0.2347 C   0  0  0  0  0  0  0  0  0  0  0  0
    0.3812    1.0029    0.2993 N   0  0  0  0  0  0  0  0  0  0  0  0
   -0.9233    1.1620    0.1602 C   0  0  0  0  0  0  0  0  0  0  0  0
   -1.7354    0.0624   -0.0528 C   0  0  0  0  0  0  0  0  0  0  0  0
   -1.2067   -1.1470   -0.1174 N   0  0  0  0  0  0  0  0  0  0  0  0
    0.0983   -1.3055    0.0160 C   0  0  0  0  0  0  0  0  0  0  0  0
   -3.2232    0.2437   -0.2105 C   0  0  0  0  0  0  0  0  0  0  0  0
    2.8335    0.2033   -1.6324 H   0  0  0  0  0  0  0  0  0  0  0  0
    2.8706    1.5363   -0.4534 H   0  0  0  0  0  0  0  0  0  0  0  0
    4.2054    0.3601   -0.5092 H   0  0  0  0  0  0  0  0  0  0  0  0
    2.6564   -1.4325    0.2227 H   0  0  0  0  0  0  0  0  0  0  0  0
    2.6935   -0.0995    1.4017 H   0  0  0  0  0  0  0  0  0  0  0  0
   -1.3555    2.1503    0.2130 H   0  0  0  0  0  0  0  0  0  0  0  0
    0.5304   -2.2938   -0.0368 H   0  0  0  0  0  0  0  0  0  0  0  0
   -3.4612    0.3948   -1.2634 H   0  0  0  0  0  0  0  0  0  0  0  0
   -3.7382   -0.6449    0.1546 H   0  0  0  0  0  0  0  0  0  0  0  0
   -3.5462    1.1123    0.3633 H   0  0  0  0  0  0  0  0  0  0  0  0
  1  2  1  0  0  0  0
  2  3  1  0  0  0  0
  3  4  2  0  0  0  0
  4  5  1  0  0  0  0
  5  6  2  0  0  0  0
  6  7  1  0  0  0  0
  7  8  2  0  0  0  0
  3  8  1  0  0  0  0
  6  9  1  0  0  0  0
  1 10  1  0  0  0  0
  1 11  1  0  0  0  0
  1 12  1  0  0  0  0
  2 13  1  0  0  0  0
  2 14  1  0  0  0  0
  5 15  1  0  0  0  0
  8 16  1  0  0  0  0
  9 17  1  0  0  0  0
  9 18  1  0  0  0  0
  9 19  1  0  0  0  0
M  END
$$$$
