C15H30
APtclcactv06211806173D 0   0.00000     0.00000
 
 45 44  0  0  0  0  0  0  0  0999 V2000
    8.6472    0.3282    0.1018 C   0  0  0  0  0  0  0  0  0  0  0  0
    7.3855   -0.5366    0.0678 C   0  0  0  0  0  0  0  0  0  0  0  0
    6.1494    0.3650    0.0561 C   0  0  0  0  0  0  0  0  0  0  0  0
    4.8877   -0.4997    0.0222 C   0  0  0  0  0  0  0  0  0  0  0  0
    3.6516    0.4019    0.0104 C   0  0  0  0  0  0  0  0  0  0  0  0
    2.3899   -0.4629   -0.0235 C   0  0  0  0  0  0  0  0  0  0  0  0
    1.1538    0.4387   -0.0353 C   0  0  0  0  0  0  0  0  0  0  0  0
   -0.1079   -0.4260   -0.0692 C   0  0  0  0  0  0  0  0  0  0  0  0
   -1.3440    0.4756   -0.0809 C   0  0  0  0  0  0  0  0  0  0  0  0
   -2.6057   -0.3892   -0.1149 C   0  0  0  0  0  0  0  0  0  0  0  0
   -3.8418    0.5124   -0.1266 C   0  0  0  0  0  0  0  0  0  0  0  0
   -5.1035   -0.3524   -0.1606 C   0  0  0  0  0  0  0  0  0  0  0  0
   -6.3395    0.5492   -0.1723 C   0  0  0  0  0  0  0  0  0  0  0  0
   -7.5823   -0.3025   -0.2057 C   0  0  0  0  0  0  0  0  0  0  0  0
   -8.5075   -0.1474    0.7086 C   0  0  0  0  0  0  0  0  0  0  0  0
    8.6399    0.9465    0.9995 H   0  0  0  0  0  0  0  0  0  0  0  0
    9.5278   -0.3141    0.1101 H   0  0  0  0  0  0  0  0  0  0  0  0
    8.6728    0.9684   -0.7801 H   0  0  0  0  0  0  0  0  0  0  0  0
    7.3928   -1.1548   -0.8298 H   0  0  0  0  0  0  0  0  0  0  0  0
    7.3599   -1.1767    0.9497 H   0  0  0  0  0  0  0  0  0  0  0  0
    6.1421    0.9833    0.9538 H   0  0  0  0  0  0  0  0  0  0  0  0
    6.1750    1.0052   -0.8258 H   0  0  0  0  0  0  0  0  0  0  0  0
    4.8950   -1.1180   -0.8755 H   0  0  0  0  0  0  0  0  0  0  0  0
    4.8621   -1.1399    0.9040 H   0  0  0  0  0  0  0  0  0  0  0  0
    3.6443    1.0201    0.9081 H   0  0  0  0  0  0  0  0  0  0  0  0
    3.6772    1.0420   -0.8714 H   0  0  0  0  0  0  0  0  0  0  0  0
    2.3972   -1.0811   -0.9212 H   0  0  0  0  0  0  0  0  0  0  0  0
    2.3643   -1.1030    0.8583 H   0  0  0  0  0  0  0  0  0  0  0  0
    1.1465    1.0570    0.8624 H   0  0  0  0  0  0  0  0  0  0  0  0
    1.1794    1.0789   -0.9171 H   0  0  0  0  0  0  0  0  0  0  0  0
   -0.1006   -1.0443   -0.9669 H   0  0  0  0  0  0  0  0  0  0  0  0
   -0.1335   -1.0662    0.8126 H   0  0  0  0  0  0  0  0  0  0  0  0
   -1.3513    1.0938    0.8167 H   0  0  0  0  0  0  0  0  0  0  0  0
   -1.3184    1.1157   -0.9628 H   0  0  0  0  0  0  0  0  0  0  0  0
   -2.5984   -1.0075   -1.0126 H   0  0  0  0  0  0  0  0  0  0  0  0
   -2.6312   -1.0294    0.7670 H   0  0  0  0  0  0  0  0  0  0  0  0
   -3.8491    1.1306    0.7710 H   0  0  0  0  0  0  0  0  0  0  0  0
   -3.8162    1.1525   -1.0085 H   0  0  0  0  0  0  0  0  0  0  0  0
   -5.0962   -0.9706   -1.0582 H   0  0  0  0  0  0  0  0  0  0  0  0
   -5.1290   -0.9925    0.7213 H   0  0  0  0  0  0  0  0  0  0  0  0
   -6.3468    1.1675    0.7254 H   0  0  0  0  0  0  0  0  0  0  0  0
   -6.3140    1.1894   -1.0542 H   0  0  0  0  0  0  0  0  0  0  0  0
   -7.7102   -1.0408   -0.9835 H   0  0  0  0  0  0  0  0  0  0  0  0
   -8.3796    0.5909    1.4864 H   0  0  0  0  0  0  0  0  0  0  0  0
   -9.3981   -0.7579    0.6847 H   0  0  0  0  0  0  0  0  0  0  0  0
  1  2  1  0  0  0  0
  2  3  1  0  0  0  0
  3  4  1  0  0  0  0
  4  5  1  0  0  0  0
  5  6  1  0  0  0  0
  6  7  1  0  0  0  0
  7  8  1  0  0  0  0
  8  9  1  0  0  0  0
  9 10  1  0  0  0  0
 10 11  1  0  0  0  0
 11 12  1  0  0  0  0
 12 13  1  0  0  0  0
 13 14  1  0  0  0  0
 14 15  2  0  0  0  0
  1 16  1  0  0  0  0
  1 17  1  0  0  0  0
  1 18  1  0  0  0  0
  2 19  1  0  0  0  0
  2 20  1  0  0  0  0
  3 21  1  0  0  0  0
  3 22  1  0  0  0  0
  4 23  1  0  0  0  0
  4 24  1  0  0  0  0
  5 25  1  0  0  0  0
  5 26  1  0  0  0  0
  6 27  1  0  0  0  0
  6 28  1  0  0  0  0
  7 29  1  0  0  0  0
  7 30  1  0  0  0  0
  8 31  1  0  0  0  0
  8 32  1  0  0  0  0
  9 33  1  0  0  0  0
  9 34  1  0  0  0  0
 10 35  1  0  0  0  0
 10 36  1  0  0  0  0
 11 37  1  0  0  0  0
 11 38  1  0  0  0  0
 12 39  1  0  0  0  0
 12 40  1  0  0  0  0
 13 41  1  0  0  0  0
 13 42  1  0  0  0  0
 14 43  1  0  0  0  0
 15 44  1  0  0  0  0
 15 45  1  0  0  0  0
M  END
$$$$
