C15H22N2O3
APtclcactv06211806463D 0   0.00000     0.00000
 
 42 42  0  0  0  0  0  0  0  0999 V2000
    5.4394    0.3434   -0.9732 C   0  0  0  0  0  0  0  0  0  0  0  0
    4.2529    1.0524   -0.3172 C   0  0  0  0  0  0  0  0  0  0  0  0
    3.7267    2.1404   -1.2554 C   0  0  0  0  0  0  0  0  0  0  0  0
    3.1422    0.0374   -0.0396 C   0  0  0  0  0  0  0  0  0  0  0  0
    2.0080    0.7197    0.7278 C   0  0  0  0  0  0  0  0  0  0  0  0
    0.8624   -0.2452    0.8940 C   0  0  0  0  0  0  0  0  0  0  0  0
    0.7133   -0.8345    1.9435 O   0  0  0  0  0  0  0  0  0  0  0  0
    0.0036   -0.4533   -0.1236 N   0  0  0  0  0  0  0  0  0  0  0  0
   -1.1101   -1.3914    0.0380 C   0  0  0  0  0  0  0  0  0  0  0  0
   -2.2383   -1.0142   -0.9242 C   0  0  0  0  0  0  0  0  0  0  0  0
   -2.7939    0.3338   -0.5431 C   0  0  0  0  0  0  0  0  0  0  0  0
   -2.2553    1.4832   -1.0904 C   0  0  0  0  0  0  0  0  0  0  0  0
   -2.7650    2.7197   -0.7408 C   0  0  0  0  0  0  0  0  0  0  0  0
   -3.8136    2.8067    0.1558 C   0  0  0  0  0  0  0  0  0  0  0  0
   -4.3528    1.6572    0.7024 C   0  0  0  0  0  0  0  0  0  0  0  0
   -3.8459    0.4205    0.3494 C   0  0  0  0  0  0  0  0  0  0  0  0
   -0.6372   -2.7896   -0.2658 C   0  0  0  0  0  0  0  0  0  0  0  0
    0.5121   -2.9828   -0.5845 O   0  0  0  0  0  0  0  0  0  0  0  0
   -1.4928   -3.8205   -0.1822 O   0  0  0  0  0  0  0  0  0  0  0  0
    2.4929    1.1366    2.0503 N   0  0  0  0  0  0  0  0  0  0  0  0
    6.2307    1.0665   -1.1709 H   0  0  0  0  0  0  0  0  0  0  0  0
    5.8143   -0.4317   -0.3048 H   0  0  0  0  0  0  0  0  0  0  0  0
    5.1186   -0.1097   -1.9112 H   0  0  0  0  0  0  0  0  0  0  0  0
    4.5738    1.5055    0.6208 H   0  0  0  0  0  0  0  0  0  0  0  0
    2.8814    2.6456   -0.7880 H   0  0  0  0  0  0  0  0  0  0  0  0
    4.5180    2.8635   -1.4531 H   0  0  0  0  0  0  0  0  0  0  0  0
    3.4058    1.6873   -2.1934 H   0  0  0  0  0  0  0  0  0  0  0  0
    2.7602   -0.3505   -0.9839 H   0  0  0  0  0  0  0  0  0  0  0  0
    3.5411   -0.7839    0.5558 H   0  0  0  0  0  0  0  0  0  0  0  0
    1.6687    1.5944    0.1729 H   0  0  0  0  0  0  0  0  0  0  0  0
    0.1228    0.0180   -0.9630 H   0  0  0  0  0  0  0  0  0  0  0  0
   -1.4770   -1.3466    1.0634 H   0  0  0  0  0  0  0  0  0  0  0  0
   -1.8493   -0.9724   -1.9416 H   0  0  0  0  0  0  0  0  0  0  0  0
   -3.0291   -1.7623   -0.8680 H   0  0  0  0  0  0  0  0  0  0  0  0
   -1.4361    1.4153   -1.7909 H   0  0  0  0  0  0  0  0  0  0  0  0
   -2.3438    3.6178   -1.1679 H   0  0  0  0  0  0  0  0  0  0  0  0
   -4.2113    3.7728    0.4294 H   0  0  0  0  0  0  0  0  0  0  0  0
   -5.1718    1.7252    1.4031 H   0  0  0  0  0  0  0  0  0  0  0  0
   -4.2672   -0.4776    0.7765 H   0  0  0  0  0  0  0  0  0  0  0  0
   -1.1434   -4.6987   -0.3864 H   0  0  0  0  0  0  0  0  0  0  0  0
    2.8134    0.3429    2.5846 H   0  0  0  0  0  0  0  0  0  0  0  0
    3.2184    1.8328    1.9665 H   0  0  0  0  0  0  0  0  0  0  0  0
  1  2  1  0  0  0  0
  2  3  1  0  0  0  0
  2  4  1  0  0  0  0
  4  5  1  0  0  0  0
  5  6  1  0  0  0  0
  6  7  2  0  0  0  0
  6  8  1  0  0  0  0
  8  9  1  0  0  0  0
  9 10  1  0  0  0  0
 10 11  1  0  0  0  0
 11 12  2  0  0  0  0
 12 13  1  0  0  0  0
 13 14  2  0  0  0  0
 14 15  1  0  0  0  0
 15 16  2  0  0  0  0
 11 16  1  0  0  0  0
  9 17  1  0  0  0  0
 17 18  2  0  0  0  0
 17 19  1  0  0  0  0
  5 20  1  0  0  0  0
  1 21  1  0  0  0  0
  1 22  1  0  0  0  0
  1 23  1  0  0  0  0
  2 24  1  0  0  0  0
  3 25  1  0  0  0  0
  3 26  1  0  0  0  0
  3 27  1  0  0  0  0
  4 28  1  0  0  0  0
  4 29  1  0  0  0  0
  5 30  1  0  0  0  0
  8 31  1  0  0  0  0
  9 32  1  0  0  0  0
 10 33  1  0  0  0  0
 10 34  1  0  0  0  0
 12 35  1  0  0  0  0
 13 36  1  0  0  0  0
 14 37  1  0  0  0  0
 15 38  1  0  0  0  0
 16 39  1  0  0  0  0
 19 40  1  0  0  0  0
 20 41  1  0  0  0  0
 20 42  1  0  0  0  0
M  END
$$$$
