C30H50O
APtclcactv06211806463D 0   0.00000     0.00000
 
 81 85  0  0  0  0  0  0  0  0999 V2000
   -5.1267    3.1658    0.1236 C   0  0  0  0  0  0  0  0  0  0  0  0
   -4.2896    1.9304   -0.0860 C   0  0  0  0  0  0  0  0  0  0  0  0
   -3.7210    1.7135   -1.2461 C   0  0  0  0  0  0  0  0  0  0  0  0
   -4.1063    0.9431    1.0404 C   0  0  0  0  0  0  0  0  0  0  0  0
   -5.4345    0.1030    1.1403 C   0  0  0  0  0  0  0  0  0  0  0  0
   -5.0067   -1.4040    0.9910 C   0  0  0  0  0  0  0  0  0  0  0  0
   -3.7730   -1.3039    0.0281 C   0  0  0  0  0  0  0  0  0  0  0  0
   -3.0705   -0.1141    0.7718 C   0  0  0  0  0  0  0  0  0  0  0  0
   -1.6464    0.1260    0.3497 C   0  0  0  0  0  0  0  0  0  0  0  0
   -1.2875    1.4348   -0.3711 C   0  0  0  0  0  0  0  0  0  0  0  0
    0.2487    1.5964   -0.4234 C   0  0  0  0  0  0  0  0  0  0  0  0
    0.8822    0.4613    0.3236 C   0  0  0  0  0  0  0  0  0  0  0  0
    2.3235    0.6688    0.5905 C   0  0  0  0  0  0  0  0  0  0  0  0
    2.8461    1.9755   -0.0665 C   0  0  0  0  0  0  0  0  0  0  0  0
    4.3652    2.1272    0.3538 C   0  0  0  0  0  0  0  0  0  0  0  0
    5.1907    1.0244   -0.1941 C   0  0  0  0  0  0  0  0  0  0  0  0
    4.6753   -0.3202    0.2314 C   0  0  0  0  0  0  0  0  0  0  0  0
    3.1277   -0.5252    0.0811 C   0  0  0  0  0  0  0  0  0  0  0  0
    2.6841   -1.8257    0.6499 C   0  0  0  0  0  0  0  0  0  0  0  0
    1.1575   -2.0568    0.3993 C   0  0  0  0  0  0  0  0  0  0  0  0
    0.5134   -0.8862   -0.3870 C   0  0  0  0  0  0  0  0  0  0  0  0
   -1.0297   -1.0473   -0.3977 C   0  0  0  0  0  0  0  0  0  0  0  0
   -1.4795   -2.3445    0.1855 C   0  0  0  0  0  0  0  0  0  0  0  0
   -2.9774   -2.5598    0.0749 C   0  0  0  0  0  0  0  0  0  0  0  0
   -1.3404   -1.0088   -1.8897 C   0  0  0  0  0  0  0  0  0  0  0  0
    0.9277   -0.8779   -1.8795 C   0  0  0  0  0  0  0  0  0  0  0  0
    5.3670   -1.4226   -0.5921 C   0  0  0  0  0  0  0  0  0  0  0  0
    5.1828   -0.5954    1.6513 C   0  0  0  0  0  0  0  0  0  0  0  0
    5.1587    1.0064   -1.6395 O   0  0  0  0  0  0  0  0  0  0  0  0
    2.4530    0.7843    2.1281 C   0  0  0  0  0  0  0  0  0  0  0  0
   -4.3702   -0.9381   -1.3910 C   0  0  0  0  0  0  0  0  0  0  0  0
   -6.1432    2.9790   -0.2229 H   0  0  0  0  0  0  0  0  0  0  0  0
   -5.1448    3.4168    1.1842 H   0  0  0  0  0  0  0  0  0  0  0  0
   -4.6977    3.9951   -0.4388 H   0  0  0  0  0  0  0  0  0  0  0  0
   -3.8743    2.4061   -2.0604 H   0  0  0  0  0  0  0  0  0  0  0  0
   -3.0989    0.8422   -1.3881 H   0  0  0  0  0  0  0  0  0  0  0  0
   -3.8332    1.4604    1.8955 H   0  0  0  0  0  0  0  0  0  0  0  0
   -5.7964    0.2862    2.2175 H   0  0  0  0  0  0  0  0  0  0  0  0
   -6.1643    0.3650    0.4024 H   0  0  0  0  0  0  0  0  0  0  0  0
   -4.6751   -1.8163    1.9910 H   0  0  0  0  0  0  0  0  0  0  0  0
   -5.8051   -1.9835    0.4871 H   0  0  0  0  0  0  0  0  0  0  0  0
   -2.8444   -0.5557    1.8249 H   0  0  0  0  0  0  0  0  0  0  0  0
   -1.1088    0.2620    1.3203 H   0  0  0  0  0  0  0  0  0  0  0  0
   -1.7260    1.5582   -1.4062 H   0  0  0  0  0  0  0  0  0  0  0  0
   -1.7234    2.2932    0.1918 H   0  0  0  0  0  0  0  0  0  0  0  0
    0.5399    1.6655   -1.5065 H   0  0  0  0  0  0  0  0  0  0  0  0
    0.5340    2.5153    0.0598 H   0  0  0  0  0  0  0  0  0  0  0  0
    0.4275    0.4141    1.2581 H   0  0  0  0  0  0  0  0  0  0  0  0
    2.7291    1.9473   -1.0768 H   0  0  0  0  0  0  0  0  0  0  0  0
    2.2825    2.7329    0.3877 H   0  0  0  0  0  0  0  0  0  0  0  0
    4.6714    3.0651   -0.0916 H   0  0  0  0  0  0  0  0  0  0  0  0
    4.4865    2.2151    1.4330 H   0  0  0  0  0  0  0  0  0  0  0  0
    6.2009    1.1882    0.1333 H   0  0  0  0  0  0  0  0  0  0  0  0
    3.0529   -0.5626   -1.0234 H   0  0  0  0  0  0  0  0  0  0  0  0
    3.2054   -2.6774    0.0640 H   0  0  0  0  0  0  0  0  0  0  0  0
    2.8519   -2.0091    1.6808 H   0  0  0  0  0  0  0  0  0  0  0  0
    1.0053   -2.9841   -0.2477 H   0  0  0  0  0  0  0  0  0  0  0  0
    0.6498   -2.1893    1.3383 H   0  0  0  0  0  0  0  0  0  0  0  0
   -0.9605   -3.1767   -0.1351 H   0  0  0  0  0  0  0  0  0  0  0  0
   -1.2518   -2.3246    1.3359 H   0  0  0  0  0  0  0  0  0  0  0  0
   -3.3100   -3.2740    0.7749 H   0  0  0  0  0  0  0  0  0  0  0  0
   -3.1100   -3.0506   -0.9014 H   0  0  0  0  0  0  0  0  0  0  0  0
   -0.6822   -1.7003   -2.4157 H   0  0  0  0  0  0  0  0  0  0  0  0
   -2.3781   -1.2999   -2.0524 H   0  0  0  0  0  0  0  0  0  0  0  0
   -1.1828    0.0013   -2.2677 H   0  0  0  0  0  0  0  0  0  0  0  0
    0.7615   -1.8662   -2.3082 H   0  0  0  0  0  0  0  0  0  0  0  0
    0.3299   -0.1429   -2.4185 H   0  0  0  0  0  0  0  0  0  0  0  0
    1.9832   -0.6188   -1.9622 H   0  0  0  0  0  0  0  0  0  0  0  0
    6.4435   -1.3783   -0.4267 H   0  0  0  0  0  0  0  0  0  0  0  0
    4.9915   -2.3976   -0.2818 H   0  0  0  0  0  0  0  0  0  0  0  0
    5.1556   -1.2719   -1.6508 H   0  0  0  0  0  0  0  0  0  0  0  0
    4.7900    0.1613    2.3305 H   0  0  0  0  0  0  0  0  0  0  0  0
    4.8470   -1.5814    1.9724 H   0  0  0  0  0  0  0  0  0  0  0  0
    6.2722   -0.5617    1.6606 H   0  0  0  0  0  0  0  0  0  0  0  0
    5.4894    1.8169   -2.0503 H   0  0  0  0  0  0  0  0  0  0  0  0
    2.2425   -0.1830    2.5842 H   0  0  0  0  0  0  0  0  0  0  0  0
    3.4659    1.0945    2.3851 H   0  0  0  0  0  0  0  0  0  0  0  0
    1.7419    1.5229    2.4982 H   0  0  0  0  0  0  0  0  0  0  0  0
   -5.1997   -0.2419   -1.2676 H   0  0  0  0  0  0  0  0  0  0  0  0
   -3.5957   -0.4757   -2.0029 H   0  0  0  0  0  0  0  0  0  0  0  0
   -4.7264   -1.8448   -1.8799 H   0  0  0  0  0  0  0  0  0  0  0  0
  1  2  1  0  0  0  0
  2  3  2  0  0  0  0
  2  4  1  0  0  0  0
  4  5  1  0  0  0  0
  5  6  1  0  0  0  0
  6  7  1  0  0  0  0
  7  8  1  0  0  0  0
  4  8  1  0  0  0  0
  8  9  1  0  0  0  0
  9 10  1  0  0  0  0
 10 11  1  0  0  0  0
 11 12  1  0  0  0  0
 12 13  1  0  0  0  0
 13 14  1  0  0  0  0
 14 15  1  0  0  0  0
 15 16  1  0  0  0  0
 16 17  1  0  0  0  0
 17 18  1  0  0  0  0
 13 18  1  0  0  0  0
 18 19  1  0  0  0  0
 19 20  1  0  0  0  0
 20 21  1  0  0  0  0
 12 21  1  0  0  0  0
 21 22  1  0  0  0  0
  9 22  1  0  0  0  0
 22 23  1  0  0  0  0
 23 24  1  0  0  0  0
  7 24  1  0  0  0  0
 22 25  1  0  0  0  0
 21 26  1  0  0  0  0
 17 27  1  0  0  0  0
 17 28  1  0  0  0  0
 16 29  1  0  0  0  0
 13 30  1  0  0  0  0
  7 31  1  0  0  0  0
  1 32  1  0  0  0  0
  1 33  1  0  0  0  0
  1 34  1  0  0  0  0
  3 35  1  0  0  0  0
  3 36  1  0  0  0  0
  4 37  1  0  0  0  0
  5 38  1  0  0  0  0
  5 39  1  0  0  0  0
  6 40  1  0  0  0  0
  6 41  1  0  0  0  0
  8 42  1  0  0  0  0
  9 43  1  0  0  0  0
 10 44  1  0  0  0  0
 10 45  1  0  0  0  0
 11 46  1  0  0  0  0
 11 47  1  0  0  0  0
 12 48  1  0  0  0  0
 14 49  1  0  0  0  0
 14 50  1  0  0  0  0
 15 51  1  0  0  0  0
 15 52  1  0  0  0  0
 16 53  1  0  0  0  0
 18 54  1  0  0  0  0
 19 55  1  0  0  0  0
 19 56  1  0  0  0  0
 20 57  1  0  0  0  0
 20 58  1  0  0  0  0
 23 59  1  0  0  0  0
 23 60  1  0  0  0  0
 24 61  1  0  0  0  0
 24 62  1  0  0  0  0
 25 63  1  0  0  0  0
 25 64  1  0  0  0  0
 25 65  1  0  0  0  0
 26 66  1  0  0  0  0
 26 67  1  0  0  0  0
 26 68  1  0  0  0  0
 27 69  1  0  0  0  0
 27 70  1  0  0  0  0
 27 71  1  0  0  0  0
 28 72  1  0  0  0  0
 28 73  1  0  0  0  0
 28 74  1  0  0  0  0
 29 75  1  0  0  0  0
 30 76  1  0  0  0  0
 30 77  1  0  0  0  0
 30 78  1  0  0  0  0
 31 79  1  0  0  0  0
 31 80  1  0  0  0  0
 31 81  1  0  0  0  0
M  END
$$$$
