C4H8O
APtclcactv06211802143D 0   0.00000     0.00000
 
 13 12  0  0  0  0  0  0  0  0999 V2000
    2.4506   -0.2065   -0.1097 C   0  0  0  0  0  0  0  0  0  0  0  0
    1.1075    0.5256   -0.1373 C   0  0  0  0  0  0  0  0  0  0  0  0
   -0.0007   -0.4244    0.3212 C   0  0  0  0  0  0  0  0  0  0  0  0
   -1.3237    0.2968    0.2940 C   0  0  0  0  0  0  0  0  0  0  0  0
   -2.2486   -0.1617   -0.3327 O   0  0  0  0  0  0  0  0  0  0  0  0
    3.2402    0.4703   -0.4363 H   0  0  0  0  0  0  0  0  0  0  0  0
    2.6591   -0.5451    0.9052 H   0  0  0  0  0  0  0  0  0  0  0  0
    2.4095   -1.0664   -0.7783 H   0  0  0  0  0  0  0  0  0  0  0  0
    1.1486    1.3855    0.5313 H   0  0  0  0  0  0  0  0  0  0  0  0
    0.8990    0.8642   -1.1522 H   0  0  0  0  0  0  0  0  0  0  0  0
   -0.0419   -1.2842   -0.3474 H   0  0  0  0  0  0  0  0  0  0  0  0
    0.2077   -0.7629    1.3361 H   0  0  0  0  0  0  0  0  0  0  0  0
   -1.4447    1.2237    0.8349 H   0  0  0  0  0  0  0  0  0  0  0  0
  1  2  1  0  0  0  0
  2  3  1  0  0  0  0
  3  4  1  0  0  0  0
  4  5  2  0  0  0  0
  1  6  1  0  0  0  0
  1  7  1  0  0  0  0
  1  8  1  0  0  0  0
  2  9  1  0  0  0  0
  2 10  1  0  0  0  0
  3 11  1  0  0  0  0
  3 12  1  0  0  0  0
  4 13  1  0  0  0  0
M  END
$$$$
