C10H16N4O7
APtclcactv06211806303D 0   0.00000     0.00000
 
 37 38  0  0  0  0  0  0  0  0999 V2000
   -2.0954    2.4610   -1.0082 C   0  0  0  0  0  0  0  0  0  0  0  0
   -1.8253    1.0841   -0.3983 C   0  0  0  0  0  0  0  0  0  0  0  0
   -3.1551    0.3735   -0.1328 C   0  0  0  0  0  0  0  0  0  0  0  0
   -2.8750   -1.0268    0.4213 C   0  0  0  0  0  0  0  0  0  0  0  0
   -1.9959   -1.7911   -0.5734 C   0  0  0  0  0  0  0  0  0  0  0  0
   -0.7109   -0.9969   -0.8219 C   0  0  0  0  0  0  0  0  0  0  0  0
   -1.0437    0.3055   -1.3067 O   0  0  0  0  0  0  0  0  0  0  0  0
    0.0198   -0.8781    0.4004 O   0  0  0  0  0  0  0  0  0  0  0  0
    1.3098   -0.4462    0.3109 C   0  0  0  0  0  0  0  0  0  0  0  0
    1.6913    0.7309    0.8914 C   0  0  0  0  0  0  0  0  0  0  0  0
    2.9978    1.1344    0.7817 N   0  0  0  0  0  0  0  0  0  0  0  0
    3.8960    0.3703    0.1040 C   0  0  0  0  0  0  0  0  0  0  0  0
    3.5399   -0.7642   -0.4591 N   0  0  0  0  0  0  0  0  0  0  0  0
    2.2763   -1.2092   -0.3776 C   0  0  0  0  0  0  0  0  0  0  0  0
    1.9617   -2.2661   -0.9068 O   0  0  0  0  0  0  0  0  0  0  0  0
    5.1973    0.7905    0.0053 N   0  0  0  0  0  0  0  0  0  0  0  0
    0.7757    1.5021    1.5773 N   0  0  0  0  0  0  0  0  0  0  0  0
   -1.6682   -3.0732   -0.0340 O   0  0  0  0  0  0  0  0  0  0  0  0
   -2.1961   -0.9182    1.6741 O   0  0  0  0  0  0  0  0  0  0  0  0
   -3.9141    1.1210    0.8197 O   0  0  0  0  0  0  0  0  0  0  0  0
   -0.8627    3.1702   -1.1482 O   0  0  0  0  0  0  0  0  0  0  0  0
   -2.5583    2.3401   -1.9877 H   0  0  0  0  0  0  0  0  0  0  0  0
   -2.7653    3.0220   -0.3566 H   0  0  0  0  0  0  0  0  0  0  0  0
   -1.2826    1.2021    0.5396 H   0  0  0  0  0  0  0  0  0  0  0  0
   -3.7164    0.2914   -1.0635 H   0  0  0  0  0  0  0  0  0  0  0  0
   -3.8161   -1.5590    0.5600 H   0  0  0  0  0  0  0  0  0  0  0  0
   -2.5338   -1.9169   -1.5130 H   0  0  0  0  0  0  0  0  0  0  0  0
   -0.1006   -1.5151   -1.5615 H   0  0  0  0  0  0  0  0  0  0  0  0
    3.2820    1.9678    1.1886 H   0  0  0  0  0  0  0  0  0  0  0  0
    5.4698    1.6256    0.4167 H   0  0  0  0  0  0  0  0  0  0  0  0
    5.8455    0.2527   -0.4759 H   0  0  0  0  0  0  0  0  0  0  0  0
   -0.1086    1.1514    1.7668 H   0  0  0  0  0  0  0  0  0  0  0  0
    1.0163    2.3951    1.8700 H   0  0  0  0  0  0  0  0  0  0  0  0
   -1.1119   -3.6127   -0.6124 H   0  0  0  0  0  0  0  0  0  0  0  0
   -1.9869   -1.7691    2.0830 H   0  0  0  0  0  0  0  0  0  0  0  0
   -4.7707    0.7279    1.0356 H   0  0  0  0  0  0  0  0  0  0  0  0
   -0.9583    4.0536   -1.5297 H   0  0  0  0  0  0  0  0  0  0  0  0
  1  2  1  0  0  0  0
  2  3  1  0  0  0  0
  3  4  1  0  0  0  0
  4  5  1  0  0  0  0
  5  6  1  0  0  0  0
  6  7  1  0  0  0  0
  2  7  1  0  0  0  0
  6  8  1  0  0  0  0
  8  9  1  0  0  0  0
  9 10  2  0  0  0  0
 10 11  1  0  0  0  0
 11 12  1  0  0  0  0
 12 13  2  0  0  0  0
 13 14  1  0  0  0  0
  9 14  1  0  0  0  0
 14 15  2  0  0  0  0
 12 16  1  0  0  0  0
 10 17  1  0  0  0  0
  5 18  1  0  0  0  0
  4 19  1  0  0  0  0
  3 20  1  0  0  0  0
  1 21  1  0  0  0  0
  1 22  1  0  0  0  0
  1 23  1  0  0  0  0
  2 24  1  0  0  0  0
  3 25  1  0  0  0  0
  4 26  1  0  0  0  0
  5 27  1  0  0  0  0
  6 28  1  0  0  0  0
 11 29  1  0  0  0  0
 16 30  1  0  0  0  0
 16 31  1  0  0  0  0
 17 32  1  0  0  0  0
 17 33  1  0  0  0  0
 18 34  1  0  0  0  0
 19 35  1  0  0  0  0
 20 36  1  0  0  0  0
 21 37  1  0  0  0  0
M  END
$$$$
