C25H26O5
APtclcactv06291802483D 0   0.00000     0.00000
 
 56 58  0  0  0  0  0  0  0  0999 V2000
   -7.5670   -0.3180   -1.1781 C   0  0  0  0  0  0  0  0  0  0  0  0
   -6.6299   -1.4845   -0.9982 C   0  0  0  0  0  0  0  0  0  0  0  0
   -5.3376   -1.3123   -1.1262 C   0  0  0  0  0  0  0  0  0  0  0  0
   -4.7779    0.0730   -1.3235 C   0  0  0  0  0  0  0  0  0  0  0  0
   -3.8189    0.3912   -0.2055 C   0  0  0  0  0  0  0  0  0  0  0  0
   -4.3042    0.8004    1.0287 C   0  0  0  0  0  0  0  0  0  0  0  0
   -3.4239    1.0949    2.0610 C   0  0  0  0  0  0  0  0  0  0  0  0
   -2.0638    0.9817    1.8629 C   0  0  0  0  0  0  0  0  0  0  0  0
   -1.5732    0.5706    0.6244 C   0  0  0  0  0  0  0  0  0  0  0  0
   -2.4597    0.2702   -0.4082 C   0  0  0  0  0  0  0  0  0  0  0  0
   -0.1109    0.4482    0.4078 C   0  0  0  0  0  0  0  0  0  0  0  0
    0.4602   -0.7587    0.1614 C   0  0  0  0  0  0  0  0  0  0  0  0
    1.7709   -0.9201   -0.0219 O   0  0  0  0  0  0  0  0  0  0  0  0
    2.5751    0.1271   -0.2869 C   0  0  0  0  0  0  0  0  0  0  0  0
    2.1331    1.4428   -0.0593 C   0  0  0  0  0  0  0  0  0  0  0  0
    0.7648    1.6362    0.4477 C   0  0  0  0  0  0  0  0  0  0  0  0
    0.3801    2.7088    0.8811 O   0  0  0  0  0  0  0  0  0  0  0  0
    2.9749    2.5310   -0.3192 C   0  0  0  0  0  0  0  0  0  0  0  0
    4.2452    2.3042   -0.8154 C   0  0  0  0  0  0  0  0  0  0  0  0
    4.6793    1.0036   -1.0500 C   0  0  0  0  0  0  0  0  0  0  0  0
    3.8536   -0.0774   -0.7881 C   0  0  0  0  0  0  0  0  0  0  0  0
    4.3442   -1.4785   -1.0475 C   0  0  0  0  0  0  0  0  0  0  0  0
    5.0161   -2.0129    0.1911 C   0  0  0  0  0  0  0  0  0  0  0  0
    4.5652   -3.1018    0.7629 C   0  0  0  0  0  0  0  0  0  0  0  0
    3.3508   -3.7983    0.2050 C   0  0  0  0  0  0  0  0  0  0  0  0
    5.2607   -3.6579    1.9786 C   0  0  0  0  0  0  0  0  0  0  0  0
    5.9266    0.7912   -1.5417 O   0  0  0  0  0  0  0  0  0  0  0  0
    2.5473    3.7977   -0.0865 O   0  0  0  0  0  0  0  0  0  0  0  0
   -5.6440    0.9133    1.2269 O   0  0  0  0  0  0  0  0  0  0  0  0
   -7.1795   -2.8490   -0.6711 C   0  0  0  0  0  0  0  0  0  0  0  0
   -7.3905    0.1434   -2.1497 H   0  0  0  0  0  0  0  0  0  0  0  0
   -8.5977   -0.6683   -1.1241 H   0  0  0  0  0  0  0  0  0  0  0  0
   -7.3905    0.4146   -0.3906 H   0  0  0  0  0  0  0  0  0  0  0  0
   -4.6733   -2.1630   -1.0903 H   0  0  0  0  0  0  0  0  0  0  0  0
   -4.2525    0.1201   -2.2774 H   0  0  0  0  0  0  0  0  0  0  0  0
   -5.5922    0.7976   -1.3211 H   0  0  0  0  0  0  0  0  0  0  0  0
   -3.8047    1.4134    3.0202 H   0  0  0  0  0  0  0  0  0  0  0  0
   -1.3795    1.2117    2.6661 H   0  0  0  0  0  0  0  0  0  0  0  0
   -2.0827   -0.0486   -1.3687 H   0  0  0  0  0  0  0  0  0  0  0  0
   -0.1773   -1.6291    0.1119 H   0  0  0  0  0  0  0  0  0  0  0  0
    4.9008    3.1374   -1.0214 H   0  0  0  0  0  0  0  0  0  0  0  0
    3.4997   -2.1170   -1.3069 H   0  0  0  0  0  0  0  0  0  0  0  0
    5.0575   -1.4670   -1.8715 H   0  0  0  0  0  0  0  0  0  0  0  0
    5.8694   -1.4981    0.6073 H   0  0  0  0  0  0  0  0  0  0  0  0
    3.6525   -4.4604   -0.6066 H   0  0  0  0  0  0  0  0  0  0  0  0
    2.8734   -4.3823    0.9919 H   0  0  0  0  0  0  0  0  0  0  0  0
    2.6482   -3.0561   -0.1737 H   0  0  0  0  0  0  0  0  0  0  0  0
    6.1108   -3.0246    2.2324 H   0  0  0  0  0  0  0  0  0  0  0  0
    4.5637   -3.6833    2.8162 H   0  0  0  0  0  0  0  0  0  0  0  0
    5.6108   -4.6681    1.7666 H   0  0  0  0  0  0  0  0  0  0  0  0
    6.6054    0.6871   -0.8608 H   0  0  0  0  0  0  0  0  0  0  0  0
    2.7370    4.1192    0.8056 H   0  0  0  0  0  0  0  0  0  0  0  0
   -6.0633    0.1044    1.5509 H   0  0  0  0  0  0  0  0  0  0  0  0
   -7.3831   -3.3898   -1.5953 H   0  0  0  0  0  0  0  0  0  0  0  0
   -6.4500   -3.4022   -0.0795 H   0  0  0  0  0  0  0  0  0  0  0  0
   -8.1028   -2.7419   -0.1018 H   0  0  0  0  0  0  0  0  0  0  0  0
  1  2  1  0  0  0  0
  2  3  2  0  0  0  0
  3  4  1  0  0  0  0
  4  5  1  0  0  0  0
  5  6  2  0  0  0  0
  6  7  1  0  0  0  0
  7  8  2  0  0  0  0
  8  9  1  0  0  0  0
  9 10  2  0  0  0  0
  5 10  1  0  0  0  0
  9 11  1  0  0  0  0
 11 12  2  0  0  0  0
 12 13  1  0  0  0  0
 13 14  1  0  0  0  0
 14 15  2  0  0  0  0
 15 16  1  0  0  0  0
 11 16  1  0  0  0  0
 16 17  2  0  0  0  0
 15 18  1  0  0  0  0
 18 19  2  0  0  0  0
 19 20  1  0  0  0  0
 20 21  2  0  0  0  0
 14 21  1  0  0  0  0
 21 22  1  0  0  0  0
 22 23  1  0  0  0  0
 23 24  2  0  0  0  0
 24 25  1  0  0  0  0
 24 26  1  0  0  0  0
 20 27  1  0  0  0  0
 18 28  1  0  0  0  0
  6 29  1  0  0  0  0
  2 30  1  0  0  0  0
  1 31  1  0  0  0  0
  1 32  1  0  0  0  0
  1 33  1  0  0  0  0
  3 34  1  0  0  0  0
  4 35  1  0  0  0  0
  4 36  1  0  0  0  0
  7 37  1  0  0  0  0
  8 38  1  0  0  0  0
 10 39  1  0  0  0  0
 12 40  1  0  0  0  0
 19 41  1  0  0  0  0
 22 42  1  0  0  0  0
 22 43  1  0  0  0  0
 23 44  1  0  0  0  0
 25 45  1  0  0  0  0
 25 46  1  0  0  0  0
 25 47  1  0  0  0  0
 26 48  1  0  0  0  0
 26 49  1  0  0  0  0
 26 50  1  0  0  0  0
 27 51  1  0  0  0  0
 28 52  1  0  0  0  0
 29 53  1  0  0  0  0
 30 54  1  0  0  0  0
 30 55  1  0  0  0  0
 30 56  1  0  0  0  0
M  END
$$$$
