C12H14O3
APtclcactv06211806473D 0   0.00000     0.00000
 
 29 29  0  0  0  0  0  0  0  0999 V2000
   -4.2996    1.6198    0.6985 C   0  0  0  0  0  0  0  0  0  0  0  0
   -4.5873    0.2676    0.0986 C   0  0  0  0  0  0  0  0  0  0  0  0
   -3.6303   -0.4036   -0.4928 C   0  0  0  0  0  0  0  0  0  0  0  0
   -2.2167    0.1180   -0.4666 C   0  0  0  0  0  0  0  0  0  0  0  0
   -1.3195   -0.9525   -0.1648 O   0  0  0  0  0  0  0  0  0  0  0  0
    0.0018   -0.6498   -0.1026 C   0  0  0  0  0  0  0  0  0  0  0  0
    0.9280   -1.6453    0.1866 C   0  0  0  0  0  0  0  0  0  0  0  0
    2.2696   -1.3425    0.2506 C   0  0  0  0  0  0  0  0  0  0  0  0
    2.6999   -0.0320    0.0239 C   0  0  0  0  0  0  0  0  0  0  0  0
    1.7652    0.9660   -0.2671 C   0  0  0  0  0  0  0  0  0  0  0  0
    0.4260    0.6537   -0.3340 C   0  0  0  0  0  0  0  0  0  0  0  0
    4.1358    0.2970    0.0919 C   0  0  0  0  0  0  0  0  0  0  0  0
    4.9467   -0.5716    0.3454 O   0  0  0  0  0  0  0  0  0  0  0  0
    4.5485    1.5609   -0.1269 O   0  0  0  0  0  0  0  0  0  0  0  0
   -5.9759   -0.3124    0.1789 C   0  0  0  0  0  0  0  0  0  0  0  0
   -3.8611    2.2680   -0.0601 H   0  0  0  0  0  0  0  0  0  0  0  0
   -5.2278    2.0613    1.0613 H   0  0  0  0  0  0  0  0  0  0  0  0
   -3.6018    1.5080    1.5284 H   0  0  0  0  0  0  0  0  0  0  0  0
   -3.8544   -1.3308   -0.9992 H   0  0  0  0  0  0  0  0  0  0  0  0
   -1.9664    0.5383   -1.4406 H   0  0  0  0  0  0  0  0  0  0  0  0
   -2.1290    0.8916    0.2963 H   0  0  0  0  0  0  0  0  0  0  0  0
    0.5947   -2.6576    0.3616 H   0  0  0  0  0  0  0  0  0  0  0  0
    2.9884   -2.1164    0.4761 H   0  0  0  0  0  0  0  0  0  0  0  0
    2.0935    1.9798   -0.4425 H   0  0  0  0  0  0  0  0  0  0  0  0
   -0.2968    1.4240   -0.5591 H   0  0  0  0  0  0  0  0  0  0  0  0
    5.4994    1.7281   -0.0715 H   0  0  0  0  0  0  0  0  0  0  0  0
   -6.5493   -0.0048   -0.6956 H   0  0  0  0  0  0  0  0  0  0  0  0
   -5.9142   -1.4002    0.2087 H   0  0  0  0  0  0  0  0  0  0  0  0
   -6.4687    0.0484    1.0818 H   0  0  0  0  0  0  0  0  0  0  0  0
  1  2  1  0  0  0  0
  2  3  2  0  0  0  0
  3  4  1  0  0  0  0
  4  5  1  0  0  0  0
  5  6  1  0  0  0  0
  6  7  2  0  0  0  0
  7  8  1  0  0  0  0
  8  9  2  0  0  0  0
  9 10  1  0  0  0  0
 10 11  2  0  0  0  0
  6 11  1  0  0  0  0
  9 12  1  0  0  0  0
 12 13  2  0  0  0  0
 12 14  1  0  0  0  0
  2 15  1  0  0  0  0
  1 16  1  0  0  0  0
  1 17  1  0  0  0  0
  1 18  1  0  0  0  0
  3 19  1  0  0  0  0
  4 20  1  0  0  0  0
  4 21  1  0  0  0  0
  7 22  1  0  0  0  0
  8 23  1  0  0  0  0
 10 24  1  0  0  0  0
 11 25  1  0  0  0  0
 14 26  1  0  0  0  0
 15 27  1  0  0  0  0
 15 28  1  0  0  0  0
 15 29  1  0  0  0  0
M  END
$$$$
