C11H8O3
APtclcactv06211806173D 0   0.00000     0.00000
 
 22 23  0  0  0  0  0  0  0  0999 V2000
    3.7609   -1.0106   -0.0518 C   0  0  0  0  0  0  0  0  0  0  0  0
    2.3563   -0.4648   -0.0294 C   0  0  0  0  0  0  0  0  0  0  0  0
    2.1536    0.8979   -0.0234 C   0  0  0  0  0  0  0  0  0  0  0  0
    0.8587    1.4197   -0.0029 C   0  0  0  0  0  0  0  0  0  0  0  0
   -0.2321    0.5505    0.0113 C   0  0  0  0  0  0  0  0  0  0  0  0
   -1.6165    1.0595    0.0335 C   0  0  0  0  0  0  0  0  0  0  0  0
   -1.8374    2.2290    0.2806 O   0  0  0  0  0  0  0  0  0  0  0  0
   -2.7313    0.1321   -0.2483 C   0  0  0  0  0  0  0  0  0  0  0  0
   -2.5283   -1.1942   -0.2528 C   0  0  0  0  0  0  0  0  0  0  0  0
   -1.1868   -1.7465    0.0228 C   0  0  0  0  0  0  0  0  0  0  0  0
   -1.0459   -2.9297    0.2609 O   0  0  0  0  0  0  0  0  0  0  0  0
   -0.0167   -0.8419    0.0055 C   0  0  0  0  0  0  0  0  0  0  0  0
    1.2776   -1.3405   -0.0207 C   0  0  0  0  0  0  0  0  0  0  0  0
    0.6632    2.7608    0.0036 O   0  0  0  0  0  0  0  0  0  0  0  0
    4.1150   -1.1444    0.9703 H   0  0  0  0  0  0  0  0  0  0  0  0
    3.7694   -1.9706   -0.5679 H   0  0  0  0  0  0  0  0  0  0  0  0
    4.4140   -0.3115   -0.5741 H   0  0  0  0  0  0  0  0  0  0  0  0
    3.0016    1.5667   -0.0342 H   0  0  0  0  0  0  0  0  0  0  0  0
   -3.7167    0.5244   -0.4519 H   0  0  0  0  0  0  0  0  0  0  0  0
   -3.3513   -1.8622   -0.4597 H   0  0  0  0  0  0  0  0  0  0  0  0
    1.4465   -2.4072   -0.0298 H   0  0  0  0  0  0  0  0  0  0  0  0
    0.5934    3.1523   -0.8778 H   0  0  0  0  0  0  0  0  0  0  0  0
  1  2  1  0  0  0  0
  2  3  2  0  0  0  0
  3  4  1  0  0  0  0
  4  5  2  0  0  0  0
  5  6  1  0  0  0  0
  6  7  2  0  0  0  0
  6  8  1  0  0  0  0
  8  9  2  0  0  0  0
  9 10  1  0  0  0  0
 10 11  2  0  0  0  0
 10 12  1  0  0  0  0
  5 12  1  0  0  0  0
 12 13  2  0  0  0  0
  2 13  1  0  0  0  0
  4 14  1  0  0  0  0
  1 15  1  0  0  0  0
  1 16  1  0  0  0  0
  1 17  1  0  0  0  0
  3 18  1  0  0  0  0
  8 19  1  0  0  0  0
  9 20  1  0  0  0  0
 13 21  1  0  0  0  0
 14 22  1  0  0  0  0
M  END
$$$$
