C27H44O8
APtclcactv06211806473D 0   0.00000     0.00000
 
 79 82  0  0  0  0  0  0  0  0999 V2000
   -0.6287    0.0642    1.3961 C   0  0  0  0  0  0  0  0  0  0  0  0
   -0.4723   -0.2384   -0.0925 C   0  0  0  0  0  0  0  0  0  0  0  0
    0.0556    0.9532   -0.8302 C   0  0  0  0  0  0  0  0  0  0  0  0
    1.5597    1.1625   -0.6265 C   0  0  0  0  0  0  0  0  0  0  0  0
    2.1768    0.2203    0.3914 C   0  0  0  0  0  0  0  0  0  0  0  0
    1.8041   -1.2063    0.1217 C   0  0  0  0  0  0  0  0  0  0  0  0
    2.6670   -2.2253    0.2039 C   0  0  0  0  0  0  0  0  0  0  0  0
    4.0766   -1.9214    0.5043 C   0  0  0  0  0  0  0  0  0  0  0  0
    4.8019   -2.6679    1.1142 O   0  0  0  0  0  0  0  0  0  0  0  0
    4.5329   -0.5763   -0.0378 C   0  0  0  0  0  0  0  0  0  0  0  0
    3.6512    0.4749    0.6266 C   0  0  0  0  0  0  0  0  0  0  0  0
    4.0699    1.8710    0.1856 C   0  0  0  0  0  0  0  0  0  0  0  0
    5.5436    2.1191    0.5097 C   0  0  0  0  0  0  0  0  0  0  0  0
    6.4286    1.0612   -0.1438 C   0  0  0  0  0  0  0  0  0  0  0  0
    6.0029   -0.3457    0.2731 C   0  0  0  0  0  0  0  0  0  0  0  0
    6.3679    1.1914   -1.5648 O   0  0  0  0  0  0  0  0  0  0  0  0
    5.9155    3.4090    0.0044 O   0  0  0  0  0  0  0  0  0  0  0  0
    3.8482    0.3757    2.1438 C   0  0  0  0  0  0  0  0  0  0  0  0
    4.3219   -0.5574   -1.4541 O   0  0  0  0  0  0  0  0  0  0  0  0
    0.4108   -1.4829   -0.3502 C   0  0  0  0  0  0  0  0  0  0  0  0
   -0.3776   -2.5694    0.3930 C   0  0  0  0  0  0  0  0  0  0  0  0
   -1.8527   -2.2245    0.0373 C   0  0  0  0  0  0  0  0  0  0  0  0
   -1.8388   -0.7879   -0.5499 C   0  0  0  0  0  0  0  0  0  0  0  0
   -2.9601    0.0510    0.0581 C   0  0  0  0  0  0  0  0  0  0  0  0
   -2.8063    1.5069   -0.3863 C   0  0  0  0  0  0  0  0  0  0  0  0
   -4.3126   -0.4863   -0.4143 C   0  0  0  0  0  0  0  0  0  0  0  0
   -5.4298    0.4277    0.0930 C   0  0  0  0  0  0  0  0  0  0  0  0
   -6.7876   -0.1755   -0.2723 C   0  0  0  0  0  0  0  0  0  0  0  0
   -7.9048    0.7385    0.2350 C   0  0  0  0  0  0  0  0  0  0  0  0
   -9.2604    0.0762   -0.0193 C   0  0  0  0  0  0  0  0  0  0  0  0
   -7.7270    0.9766    1.7358 C   0  0  0  0  0  0  0  0  0  0  0  0
   -7.8482    1.9883   -0.4556 O   0  0  0  0  0  0  0  0  0  0  0  0
   -4.3382   -0.5223   -1.8426 O   0  0  0  0  0  0  0  0  0  0  0  0
   -2.8902   -0.0219    1.4836 O   0  0  0  0  0  0  0  0  0  0  0  0
    0.4345   -1.7990   -1.7602 O   0  0  0  0  0  0  0  0  0  0  0  0
   -1.2137    0.9752    1.5222 H   0  0  0  0  0  0  0  0  0  0  0  0
   -1.1394   -0.7660    1.8839 H   0  0  0  0  0  0  0  0  0  0  0  0
    0.3555    0.1993    1.8447 H   0  0  0  0  0  0  0  0  0  0  0  0
   -0.1434    0.8285   -1.9044 H   0  0  0  0  0  0  0  0  0  0  0  0
   -0.4807    1.8529   -0.5030 H   0  0  0  0  0  0  0  0  0  0  0  0
    2.0676    1.0296   -1.5910 H   0  0  0  0  0  0  0  0  0  0  0  0
    1.7320    2.1987   -0.3100 H   0  0  0  0  0  0  0  0  0  0  0  0
    1.7478    0.4826    1.3616 H   0  0  0  0  0  0  0  0  0  0  0  0
    2.3343   -3.2358    0.0488 H   0  0  0  0  0  0  0  0  0  0  0  0
    3.9139    1.9809   -0.8893 H   0  0  0  0  0  0  0  0  0  0  0  0
    3.4594    2.6142    0.7058 H   0  0  0  0  0  0  0  0  0  0  0  0
    5.7037    2.1190    1.5869 H   0  0  0  0  0  0  0  0  0  0  0  0
    7.4647    1.2238    0.1761 H   0  0  0  0  0  0  0  0  0  0  0  0
    6.2080   -0.4984    1.3310 H   0  0  0  0  0  0  0  0  0  0  0  0
    6.6039   -1.0733   -0.2905 H   0  0  0  0  0  0  0  0  0  0  0  0
    6.6647    2.0508   -1.8940 H   0  0  0  0  0  0  0  0  0  0  0  0
    6.8388    3.6447    0.1691 H   0  0  0  0  0  0  0  0  0  0  0  0
    4.8952    0.5570    2.3868 H   0  0  0  0  0  0  0  0  0  0  0  0
    3.2258    1.1200    2.6404 H   0  0  0  0  0  0  0  0  0  0  0  0
    3.5638   -0.6204    2.4828 H   0  0  0  0  0  0  0  0  0  0  0  0
    4.8050   -1.2448   -1.9329 H   0  0  0  0  0  0  0  0  0  0  0  0
   -0.1195   -3.5563   -0.0011 H   0  0  0  0  0  0  0  0  0  0  0  0
   -0.2054   -2.5389    1.4624 H   0  0  0  0  0  0  0  0  0  0  0  0
   -2.2307   -2.9279   -0.7032 H   0  0  0  0  0  0  0  0  0  0  0  0
   -2.4703   -2.2546    0.9345 H   0  0  0  0  0  0  0  0  0  0  0  0
   -1.8923   -0.8031   -1.6298 H   0  0  0  0  0  0  0  0  0  0  0  0
   -2.6779    1.5449   -1.4680 H   0  0  0  0  0  0  0  0  0  0  0  0
   -3.6976    2.0684   -0.1062 H   0  0  0  0  0  0  0  0  0  0  0  0
   -1.9338    1.9446    0.0988 H   0  0  0  0  0  0  0  0  0  0  0  0
   -4.4605   -1.4927   -0.0227 H   0  0  0  0  0  0  0  0  0  0  0  0
   -5.3554    0.5258    1.1761 H   0  0  0  0  0  0  0  0  0  0  0  0
   -5.3328    1.4105   -0.3683 H   0  0  0  0  0  0  0  0  0  0  0  0
   -6.8620   -0.2736   -1.3553 H   0  0  0  0  0  0  0  0  0  0  0  0
   -6.8845   -1.1583    0.1890 H   0  0  0  0  0  0  0  0  0  0  0  0
   -9.3036   -0.8771    0.5074 H   0  0  0  0  0  0  0  0  0  0  0  0
  -10.0563    0.7274    0.3421 H   0  0  0  0  0  0  0  0  0  0  0  0
   -9.3871   -0.0934   -1.0885 H   0  0  0  0  0  0  0  0  0  0  0  0
   -6.7612    1.4483    1.9169 H   0  0  0  0  0  0  0  0  0  0  0  0
   -8.5229    1.6277    2.0972 H   0  0  0  0  0  0  0  0  0  0  0  0
   -7.7701    0.0232    2.2625 H   0  0  0  0  0  0  0  0  0  0  0  0
   -7.9539    1.9133   -1.4139 H   0  0  0  0  0  0  0  0  0  0  0  0
   -4.2125    0.3408   -2.2601 H   0  0  0  0  0  0  0  0  0  0  0  0
   -2.9804   -0.9176    1.8365 H   0  0  0  0  0  0  0  0  0  0  0  0
    0.9784   -2.5671   -1.9820 H   0  0  0  0  0  0  0  0  0  0  0  0
  1  2  1  0  0  0  0
  2  3  1  0  0  0  0
  3  4  1  0  0  0  0
  4  5  1  0  0  0  0
  5  6  1  0  0  0  0
  6  7  2  0  0  0  0
  7  8  1  0  0  0  0
  8  9  2  0  0  0  0
  8 10  1  0  0  0  0
 10 11  1  0  0  0  0
  5 11  1  0  0  0  0
 11 12  1  0  0  0  0
 12 13  1  0  0  0  0
 13 14  1  0  0  0  0
 14 15  1  0  0  0  0
 10 15  1  0  0  0  0
 14 16  1  0  0  0  0
 13 17  1  0  0  0  0
 11 18  1  0  0  0  0
 10 19  1  0  0  0  0
  6 20  1  0  0  0  0
  2 20  1  0  0  0  0
 20 21  1  0  0  0  0
 21 22  1  0  0  0  0
 22 23  1  0  0  0  0
  2 23  1  0  0  0  0
 23 24  1  0  0  0  0
 24 25  1  0  0  0  0
 24 26  1  0  0  0  0
 26 27  1  0  0  0  0
 27 28  1  0  0  0  0
 28 29  1  0  0  0  0
 29 30  1  0  0  0  0
 29 31  1  0  0  0  0
 29 32  1  0  0  0  0
 26 33  1  0  0  0  0
 24 34  1  0  0  0  0
 20 35  1  0  0  0  0
  1 36  1  0  0  0  0
  1 37  1  0  0  0  0
  1 38  1  0  0  0  0
  3 39  1  0  0  0  0
  3 40  1  0  0  0  0
  4 41  1  0  0  0  0
  4 42  1  0  0  0  0
  5 43  1  0  0  0  0
  7 44  1  0  0  0  0
 12 45  1  0  0  0  0
 12 46  1  0  0  0  0
 13 47  1  0  0  0  0
 14 48  1  0  0  0  0
 15 49  1  0  0  0  0
 15 50  1  0  0  0  0
 16 51  1  0  0  0  0
 17 52  1  0  0  0  0
 18 53  1  0  0  0  0
 18 54  1  0  0  0  0
 18 55  1  0  0  0  0
 19 56  1  0  0  0  0
 21 57  1  0  0  0  0
 21 58  1  0  0  0  0
 22 59  1  0  0  0  0
 22 60  1  0  0  0  0
 23 61  1  0  0  0  0
 25 62  1  0  0  0  0
 25 63  1  0  0  0  0
 25 64  1  0  0  0  0
 26 65  1  0  0  0  0
 27 66  1  0  0  0  0
 27 67  1  0  0  0  0
 28 68  1  0  0  0  0
 28 69  1  0  0  0  0
 30 70  1  0  0  0  0
 30 71  1  0  0  0  0
 30 72  1  0  0  0  0
 31 73  1  0  0  0  0
 31 74  1  0  0  0  0
 31 75  1  0  0  0  0
 32 76  1  0  0  0  0
 33 77  1  0  0  0  0
 34 78  1  0  0  0  0
 35 79  1  0  0  0  0
M  END
$$$$
