C24H46O4
APtclcactv06281816293D 0   0.00000     0.00000
 
 74 73  0  0  0  0  0  0  0  0999 V2000
    0.6161   -0.4534   -0.0000 C   0  0  0  0  0  0  0  0  0  0  0  0
   -0.6161    0.4534   -0.0000 C   0  0  0  0  0  0  0  0  0  0  0  0
   -1.8819   -0.4061   -0.0000 C   0  0  0  0  0  0  0  0  0  0  0  0
   -3.1142    0.5007   -0.0000 C   0  0  0  0  0  0  0  0  0  0  0  0
   -4.3799   -0.3588    0.0000 C   0  0  0  0  0  0  0  0  0  0  0  0
   -5.6122    0.5481   -0.0000 C   0  0  0  0  0  0  0  0  0  0  0  0
   -6.8780   -0.3115    0.0000 C   0  0  0  0  0  0  0  0  0  0  0  0
   -8.1102    0.5954   -0.0000 C   0  0  0  0  0  0  0  0  0  0  0  0
   -9.3760   -0.2642    0.0000 C   0  0  0  0  0  0  0  0  0  0  0  0
  -10.6083    0.6427   -0.0000 C   0  0  0  0  0  0  0  0  0  0  0  0
  -11.8740   -0.2168    0.0000 C   0  0  0  0  0  0  0  0  0  0  0  0
  -13.1063    0.6900   -0.0000 C   0  0  0  0  0  0  0  0  0  0  0  0
  -14.3530   -0.1566    0.0000 C   0  0  0  0  0  0  0  0  0  0  0  0
  -14.2650   -1.3616    0.0000 O   0  0  0  0  0  0  0  0  0  0  0  0
  -15.5613    0.4280   -0.0000 O   0  0  0  0  0  0  0  0  0  0  0  0
    1.8819    0.4061   -0.0000 C   0  0  0  0  0  0  0  0  0  0  0  0
    3.1142   -0.5007   -0.0000 C   0  0  0  0  0  0  0  0  0  0  0  0
    4.3799    0.3588    0.0000 C   0  0  0  0  0  0  0  0  0  0  0  0
    5.6122   -0.5481   -0.0000 C   0  0  0  0  0  0  0  0  0  0  0  0
    6.8780    0.3115    0.0000 C   0  0  0  0  0  0  0  0  0  0  0  0
    8.1102   -0.5954   -0.0000 C   0  0  0  0  0  0  0  0  0  0  0  0
    9.3760    0.2642    0.0000 C   0  0  0  0  0  0  0  0  0  0  0  0
   10.6083   -0.6427   -0.0000 C   0  0  0  0  0  0  0  0  0  0  0  0
   11.8740    0.2168    0.0000 C   0  0  0  0  0  0  0  0  0  0  0  0
   13.1063   -0.6900   -0.0000 C   0  0  0  0  0  0  0  0  0  0  0  0
   14.3530    0.1566    0.0000 C   0  0  0  0  0  0  0  0  0  0  0  0
   14.2650    1.3616    0.0000 O   0  0  0  0  0  0  0  0  0  0  0  0
   15.5613   -0.4280   -0.0000 O   0  0  0  0  0  0  0  0  0  0  0  0
    0.6042   -1.0826    0.8900 H   0  0  0  0  0  0  0  0  0  0  0  0
    0.6042   -1.0826   -0.8900 H   0  0  0  0  0  0  0  0  0  0  0  0
   -0.6042    1.0826    0.8900 H   0  0  0  0  0  0  0  0  0  0  0  0
   -0.6042    1.0826   -0.8900 H   0  0  0  0  0  0  0  0  0  0  0  0
   -1.8938   -1.0353   -0.8900 H   0  0  0  0  0  0  0  0  0  0  0  0
   -1.8938   -1.0353    0.8900 H   0  0  0  0  0  0  0  0  0  0  0  0
   -3.1023    1.1299    0.8900 H   0  0  0  0  0  0  0  0  0  0  0  0
   -3.1023    1.1299   -0.8900 H   0  0  0  0  0  0  0  0  0  0  0  0
   -4.3918   -0.9880   -0.8900 H   0  0  0  0  0  0  0  0  0  0  0  0
   -4.3918   -0.9880    0.8900 H   0  0  0  0  0  0  0  0  0  0  0  0
   -5.6003    1.1773    0.8900 H   0  0  0  0  0  0  0  0  0  0  0  0
   -5.6003    1.1773   -0.8900 H   0  0  0  0  0  0  0  0  0  0  0  0
   -6.8899   -0.9407   -0.8900 H   0  0  0  0  0  0  0  0  0  0  0  0
   -6.8899   -0.9407    0.8900 H   0  0  0  0  0  0  0  0  0  0  0  0
   -8.0983    1.2246    0.8900 H   0  0  0  0  0  0  0  0  0  0  0  0
   -8.0983    1.2246   -0.8900 H   0  0  0  0  0  0  0  0  0  0  0  0
   -9.3879   -0.8934   -0.8900 H   0  0  0  0  0  0  0  0  0  0  0  0
   -9.3879   -0.8934    0.8900 H   0  0  0  0  0  0  0  0  0  0  0  0
  -10.5964    1.2719    0.8900 H   0  0  0  0  0  0  0  0  0  0  0  0
  -10.5964    1.2719   -0.8900 H   0  0  0  0  0  0  0  0  0  0  0  0
  -11.8859   -0.8460   -0.8900 H   0  0  0  0  0  0  0  0  0  0  0  0
  -11.8859   -0.8460    0.8900 H   0  0  0  0  0  0  0  0  0  0  0  0
  -13.0944    1.3192    0.8900 H   0  0  0  0  0  0  0  0  0  0  0  0
  -13.0944    1.3192   -0.8900 H   0  0  0  0  0  0  0  0  0  0  0  0
  -16.3317   -0.1563    0.0000 H   0  0  0  0  0  0  0  0  0  0  0  0
    1.8938    1.0353   -0.8900 H   0  0  0  0  0  0  0  0  0  0  0  0
    1.8938    1.0353    0.8900 H   0  0  0  0  0  0  0  0  0  0  0  0
    3.1023   -1.1299    0.8900 H   0  0  0  0  0  0  0  0  0  0  0  0
    3.1023   -1.1299   -0.8900 H   0  0  0  0  0  0  0  0  0  0  0  0
    4.3918    0.9880   -0.8900 H   0  0  0  0  0  0  0  0  0  0  0  0
    4.3918    0.9880    0.8900 H   0  0  0  0  0  0  0  0  0  0  0  0
    5.6003   -1.1773    0.8900 H   0  0  0  0  0  0  0  0  0  0  0  0
    5.6003   -1.1773   -0.8900 H   0  0  0  0  0  0  0  0  0  0  0  0
    6.8899    0.9407   -0.8900 H   0  0  0  0  0  0  0  0  0  0  0  0
    6.8899    0.9407    0.8900 H   0  0  0  0  0  0  0  0  0  0  0  0
    8.0983   -1.2246    0.8900 H   0  0  0  0  0  0  0  0  0  0  0  0
    8.0983   -1.2246   -0.8900 H   0  0  0  0  0  0  0  0  0  0  0  0
    9.3879    0.8934   -0.8900 H   0  0  0  0  0  0  0  0  0  0  0  0
    9.3879    0.8934    0.8900 H   0  0  0  0  0  0  0  0  0  0  0  0
   10.5964   -1.2719    0.8900 H   0  0  0  0  0  0  0  0  0  0  0  0
   10.5964   -1.2719   -0.8900 H   0  0  0  0  0  0  0  0  0  0  0  0
   11.8859    0.8460   -0.8900 H   0  0  0  0  0  0  0  0  0  0  0  0
   11.8859    0.8460    0.8900 H   0  0  0  0  0  0  0  0  0  0  0  0
   13.0944   -1.3192    0.8900 H   0  0  0  0  0  0  0  0  0  0  0  0
   13.0944   -1.3192   -0.8900 H   0  0  0  0  0  0  0  0  0  0  0  0
   16.3317    0.1563    0.0000 H   0  0  0  0  0  0  0  0  0  0  0  0
  1  2  1  0  0  0  0
  2  3  1  0  0  0  0
  3  4  1  0  0  0  0
  4  5  1  0  0  0  0
  5  6  1  0  0  0  0
  6  7  1  0  0  0  0
  7  8  1  0  0  0  0
  8  9  1  0  0  0  0
  9 10  1  0  0  0  0
 10 11  1  0  0  0  0
 11 12  1  0  0  0  0
 12 13  1  0  0  0  0
 13 14  2  0  0  0  0
 13 15  1  0  0  0  0
  1 16  1  0  0  0  0
 16 17  1  0  0  0  0
 17 18  1  0  0  0  0
 18 19  1  0  0  0  0
 19 20  1  0  0  0  0
 20 21  1  0  0  0  0
 21 22  1  0  0  0  0
 22 23  1  0  0  0  0
 23 24  1  0  0  0  0
 24 25  1  0  0  0  0
 25 26  1  0  0  0  0
 26 27  2  0  0  0  0
 26 28  1  0  0  0  0
  1 29  1  0  0  0  0
  1 30  1  0  0  0  0
  2 31  1  0  0  0  0
  2 32  1  0  0  0  0
  3 33  1  0  0  0  0
  3 34  1  0  0  0  0
  4 35  1  0  0  0  0
  4 36  1  0  0  0  0
  5 37  1  0  0  0  0
  5 38  1  0  0  0  0
  6 39  1  0  0  0  0
  6 40  1  0  0  0  0
  7 41  1  0  0  0  0
  7 42  1  0  0  0  0
  8 43  1  0  0  0  0
  8 44  1  0  0  0  0
  9 45  1  0  0  0  0
  9 46  1  0  0  0  0
 10 47  1  0  0  0  0
 10 48  1  0  0  0  0
 11 49  1  0  0  0  0
 11 50  1  0  0  0  0
 12 51  1  0  0  0  0
 12 52  1  0  0  0  0
 15 53  1  0  0  0  0
 16 54  1  0  0  0  0
 16 55  1  0  0  0  0
 17 56  1  0  0  0  0
 17 57  1  0  0  0  0
 18 58  1  0  0  0  0
 18 59  1  0  0  0  0
 19 60  1  0  0  0  0
 19 61  1  0  0  0  0
 20 62  1  0  0  0  0
 20 63  1  0  0  0  0
 21 64  1  0  0  0  0
 21 65  1  0  0  0  0
 22 66  1  0  0  0  0
 22 67  1  0  0  0  0
 23 68  1  0  0  0  0
 23 69  1  0  0  0  0
 24 70  1  0  0  0  0
 24 71  1  0  0  0  0
 25 72  1  0  0  0  0
 25 73  1  0  0  0  0
 28 74  1  0  0  0  0
M  END
$$$$
