C8H17N2NaO4S
APtclcactv06281816293D 0   0.00000     0.00000
 
 33 32  0  0  0  0  0  0  0  0999 V2000
    0.9604   -1.5708    1.1285 C   0  0  0  0  0  0  0  0  0  0  0  0
   -0.5678   -1.5381    1.0520 C   0  0  0  0  0  0  0  0  0  0  0  0
   -0.9975   -0.2806    0.4247 N   0  0  0  0  0  0  0  0  0  0  0  0
   -0.4390   -0.1527   -0.9286 C   0  0  0  0  0  0  0  0  0  0  0  0
    1.0893   -0.1854   -0.8521 C   0  0  0  0  0  0  0  0  0  0  0  0
    1.5189   -1.4430   -0.2248 N   0  0  0  0  0  0  0  0  0  0  0  0
    2.9841   -1.5459   -0.2015 C   0  0  0  0  0  0  0  0  0  0  0  0
    3.3894   -2.9586    0.2239 C   0  0  0  0  0  0  0  0  0  0  0  0
    2.9603   -3.8957   -0.7659 O   0  0  0  0  0  0  0  0  0  0  0  0
   -2.4627   -0.1776    0.4014 C   0  0  0  0  0  0  0  0  0  0  0  0
   -2.8680    1.2351   -0.0241 C   0  0  0  0  0  0  0  0  0  0  0  0
   -4.6773    1.3622   -0.0528 S   0  0  0  0  0  0  0  0  0  0  0  0
   -5.0464    2.7095   -0.4586 O   0  0  0  0  0  0  0  0  0  0  0  0
   -5.2006    0.3924   -1.0024 O   0  0  0  0  0  0  0  0  0  0  0  0
   -5.1883    1.0834    1.2803 O   0  5  0  0  0  0  0  0  0  0  0  0
   13.4126    3.3383    0.1136 Na  0  3  0  0  0  0  0  0  0  0  0  0
    1.3114   -0.7443    1.7463 H   0  0  0  0  0  0  0  0  0  0  0  0
    1.2825   -2.5153    1.5670 H   0  0  0  0  0  0  0  0  0  0  0  0
   -0.9202   -2.3804    0.4566 H   0  0  0  0  0  0  0  0  0  0  0  0
   -0.9837   -1.6037    2.0573 H   0  0  0  0  0  0  0  0  0  0  0  0
   -0.7899   -0.9793   -1.5464 H   0  0  0  0  0  0  0  0  0  0  0  0
   -0.7610    0.7918   -1.3672 H   0  0  0  0  0  0  0  0  0  0  0  0
    1.5052   -0.1198   -1.8575 H   0  0  0  0  0  0  0  0  0  0  0  0
    1.4417    0.6569   -0.2568 H   0  0  0  0  0  0  0  0  0  0  0  0
    3.3788   -1.3388   -1.1962 H   0  0  0  0  0  0  0  0  0  0  0  0
    3.3879   -0.8231    0.5074 H   0  0  0  0  0  0  0  0  0  0  0  0
    4.4733   -3.0100    0.3272 H   0  0  0  0  0  0  0  0  0  0  0  0
    2.9216   -3.1988    1.1787 H   0  0  0  0  0  0  0  0  0  0  0  0
    3.1842   -4.8139   -0.5614 H   0  0  0  0  0  0  0  0  0  0  0  0
   -2.8665   -0.9005   -0.3075 H   0  0  0  0  0  0  0  0  0  0  0  0
   -2.8573   -0.3848    1.3961 H   0  0  0  0  0  0  0  0  0  0  0  0
   -2.4642    1.9579    0.6848 H   0  0  0  0  0  0  0  0  0  0  0  0
   -2.4733    1.4422   -1.0188 H   0  0  0  0  0  0  0  0  0  0  0  0
  1  2  1  0  0  0  0
  2  3  1  0  0  0  0
  3  4  1  0  0  0  0
  4  5  1  0  0  0  0
  5  6  1  0  0  0  0
  1  6  1  0  0  0  0
  6  7  1  0  0  0  0
  7  8  1  0  0  0  0
  8  9  1  0  0  0  0
  3 10  1  0  0  0  0
 10 11  1  0  0  0  0
 11 12  1  0  0  0  0
 12 13  2  0  0  0  0
 12 14  2  0  0  0  0
 12 15  1  0  0  0  0
  1 17  1  0  0  0  0
  1 18  1  0  0  0  0
  2 19  1  0  0  0  0
  2 20  1  0  0  0  0
  4 21  1  0  0  0  0
  4 22  1  0  0  0  0
  5 23  1  0  0  0  0
  5 24  1  0  0  0  0
  7 25  1  0  0  0  0
  7 26  1  0  0  0  0
  8 27  1  0  0  0  0
  8 28  1  0  0  0  0
  9 29  1  0  0  0  0
 10 30  1  0  0  0  0
 10 31  1  0  0  0  0
 11 32  1  0  0  0  0
 11 33  1  0  0  0  0
M  CHG  2  15  -1  16   1
M  END
$$$$
