C8H12N2
APtclcactv06211806183D 0   0.00000     0.00000
 
 22 22  0  0  0  0  0  0  0  0999 V2000
   -1.7609    2.1140   -0.7260 C   0  0  0  0  0  0  0  0  0  0  0  0
   -1.3214    1.3501    0.5247 C   0  0  0  0  0  0  0  0  0  0  0  0
   -0.0176    0.6457    0.2508 C   0  0  0  0  0  0  0  0  0  0  0  0
    1.1278    1.2586    0.4921 N   0  0  0  0  0  0  0  0  0  0  0  0
    2.2711    0.6409    0.2519 C   0  0  0  0  0  0  0  0  0  0  0  0
    2.2687   -0.6474   -0.2522 C   0  0  0  0  0  0  0  0  0  0  0  0
    1.1232   -1.2604   -0.4940 N   0  0  0  0  0  0  0  0  0  0  0  0
   -0.0200   -0.6451   -0.2480 C   0  0  0  0  0  0  0  0  0  0  0  0
   -1.3263   -1.3442   -0.5232 C   0  0  0  0  0  0  0  0  0  0  0  0
   -1.7663   -2.1127    0.7245 C   0  0  0  0  0  0  0  0  0  0  0  0
   -0.9997    2.8482   -0.9895 H   0  0  0  0  0  0  0  0  0  0  0  0
   -1.8923    1.4145   -1.5516 H   0  0  0  0  0  0  0  0  0  0  0  0
   -2.7040    2.6235   -0.5279 H   0  0  0  0  0  0  0  0  0  0  0  0
   -1.1901    2.0496    1.3503 H   0  0  0  0  0  0  0  0  0  0  0  0
   -2.0827    0.6158    0.7882 H   0  0  0  0  0  0  0  0  0  0  0  0
    3.2073    1.1420    0.4487 H   0  0  0  0  0  0  0  0  0  0  0  0
    3.2031   -1.1522   -0.4485 H   0  0  0  0  0  0  0  0  0  0  0  0
   -2.0858   -0.6064   -0.7821 H   0  0  0  0  0  0  0  0  0  0  0  0
   -1.1984   -2.0402   -1.3523 H   0  0  0  0  0  0  0  0  0  0  0  0
   -1.0068   -2.8505    0.9834 H   0  0  0  0  0  0  0  0  0  0  0  0
   -1.8942   -1.4167    1.5536 H   0  0  0  0  0  0  0  0  0  0  0  0
   -2.7112   -2.6183    0.5255 H   0  0  0  0  0  0  0  0  0  0  0  0
  1  2  1  0  0  0  0
  2  3  1  0  0  0  0
  3  4  2  0  0  0  0
  4  5  1  0  0  0  0
  5  6  2  0  0  0  0
  6  7  1  0  0  0  0
  7  8  2  0  0  0  0
  3  8  1  0  0  0  0
  8  9  1  0  0  0  0
  9 10  1  0  0  0  0
  1 11  1  0  0  0  0
  1 12  1  0  0  0  0
  1 13  1  0  0  0  0
  2 14  1  0  0  0  0
  2 15  1  0  0  0  0
  5 16  1  0  0  0  0
  6 17  1  0  0  0  0
  9 18  1  0  0  0  0
  9 19  1  0  0  0  0
 10 20  1  0  0  0  0
 10 21  1  0  0  0  0
 10 22  1  0  0  0  0
M  END
$$$$
