C20H23FN6O7S3
APtclcactv06211806473D 0   0.00000     0.00000
 
 60 61  0  0  0  0  0  0  0  0999 V2000
    2.2662   -4.3337    2.3327 C   0  0  0  0  0  0  0  0  0  0  0  0
    1.1075   -3.8055    1.8027 C   0  0  0  0  0  0  0  0  0  0  0  0
    1.1404   -3.1604    0.5651 C   0  0  0  0  0  0  0  0  0  0  0  0
    2.3473   -3.0546   -0.1279 C   0  0  0  0  0  0  0  0  0  0  0  0
    3.4991   -3.5874    0.4135 C   0  0  0  0  0  0  0  0  0  0  0  0
    3.4595   -4.2254    1.6403 C   0  0  0  0  0  0  0  0  0  0  0  0
    5.0238   -3.4549   -0.4597 S   0  0  0  0  0  0  0  0  0  0  0  0
    5.6256   -2.2400   -0.0342 O   0  0  0  0  0  0  0  0  0  0  0  0
    5.6620   -4.7195   -0.3469 O   0  0  0  0  0  0  0  0  0  0  0  0
    4.6657   -3.2637   -2.0177 F   0  0  0  0  0  0  0  0  0  0  0  0
   -0.0976   -2.5924   -0.0091 C   0  0  0  0  0  0  0  0  0  0  0  0
   -0.0659   -2.0312   -1.0871 O   0  0  0  0  0  0  0  0  0  0  0  0
   -1.2615   -2.6967    0.6624 N   0  0  0  0  0  0  0  0  0  0  0  0
   -2.4145   -2.0752    0.1661 C   0  0  0  0  0  0  0  0  0  0  0  0
   -2.6270   -1.9992   -1.2043 C   0  0  0  0  0  0  0  0  0  0  0  0
   -3.7632   -1.3869   -1.6938 C   0  0  0  0  0  0  0  0  0  0  0  0
   -4.6943   -0.8465   -0.8153 C   0  0  0  0  0  0  0  0  0  0  0  0
   -4.4813   -0.9227    0.5557 C   0  0  0  0  0  0  0  0  0  0  0  0
   -3.3477   -1.5402    1.0446 C   0  0  0  0  0  0  0  0  0  0  0  0
   -6.1444   -0.0642   -1.4397 S   0  0  0  0  0  0  0  0  0  0  0  0
   -7.0079    0.4575    0.0679 C   0  0  0  0  0  0  0  0  0  0  0  0
   -8.3106    1.1657   -0.3096 C   0  0  0  0  0  0  0  0  0  0  0  0
   -9.0388    1.6057    0.9619 C   0  0  0  0  0  0  0  0  0  0  0  0
  -10.3219    2.3032    0.5901 C   0  0  0  0  0  0  0  0  0  0  0  0
  -11.5062    1.5867    0.4455 C   0  0  0  0  0  0  0  0  0  0  0  0
  -12.6204    2.2365    0.1161 N   0  0  0  0  0  0  0  0  0  0  0  0
  -12.6103    3.5472   -0.0732 C   0  0  0  0  0  0  0  0  0  0  0  0
  -11.5021    4.2610    0.0553 N   0  0  0  0  0  0  0  0  0  0  0  0
  -10.3518    3.6800    0.3888 C   0  0  0  0  0  0  0  0  0  0  0  0
   -9.1966    4.4344    0.5216 N   0  0  0  0  0  0  0  0  0  0  0  0
  -13.7885    4.1877   -0.4147 N   0  0  0  0  0  0  0  0  0  0  0  0
  -11.5253    0.2146    0.6413 N   0  0  0  0  0  0  0  0  0  0  0  0
   17.7680    2.8116   -0.5133 O   0  0  0  0  0  0  0  0  0  0  0  0
   16.8803    3.8564    0.1475 S   0  0  0  0  0  0  0  0  0  0  0  0
   16.7217    3.4507    1.5001 O   0  0  0  0  0  0  0  0  0  0  0  0
   17.4037    5.1230   -0.2278 O   0  0  0  0  0  0  0  0  0  0  0  0
   15.5052    3.7517   -0.4966 O   0  0  0  0  0  0  0  0  0  0  0  0
    2.2430   -4.8291    3.2921 H   0  0  0  0  0  0  0  0  0  0  0  0
    0.1768   -3.8911    2.3439 H   0  0  0  0  0  0  0  0  0  0  0  0
    2.3794   -2.5571   -1.0860 H   0  0  0  0  0  0  0  0  0  0  0  0
    4.3639   -4.6410    2.0595 H   0  0  0  0  0  0  0  0  0  0  0  0
   -1.3007   -3.2021    1.4894 H   0  0  0  0  0  0  0  0  0  0  0  0
   -1.9031   -2.4189   -1.8871 H   0  0  0  0  0  0  0  0  0  0  0  0
   -3.9282   -1.3275   -2.7595 H   0  0  0  0  0  0  0  0  0  0  0  0
   -5.2047   -0.5025    1.2388 H   0  0  0  0  0  0  0  0  0  0  0  0
   -3.1821   -1.5996    2.1102 H   0  0  0  0  0  0  0  0  0  0  0  0
   -7.2334   -0.4168    0.6785 H   0  0  0  0  0  0  0  0  0  0  0  0
   -6.3732    1.1408    0.6321 H   0  0  0  0  0  0  0  0  0  0  0  0
   -8.0850    2.0400   -0.9202 H   0  0  0  0  0  0  0  0  0  0  0  0
   -8.9452    0.4823   -0.8739 H   0  0  0  0  0  0  0  0  0  0  0  0
   -9.2643    0.7314    1.5725 H   0  0  0  0  0  0  0  0  0  0  0  0
   -8.4042    2.2890    1.5261 H   0  0  0  0  0  0  0  0  0  0  0  0
   -9.2229    5.3923    0.3714 H   0  0  0  0  0  0  0  0  0  0  0  0
   -8.3618    4.0044    0.7649 H   0  0  0  0  0  0  0  0  0  0  0  0
  -14.6074    3.6771   -0.5125 H   0  0  0  0  0  0  0  0  0  0  0  0
  -13.7955    5.1473   -0.5563 H   0  0  0  0  0  0  0  0  0  0  0  0
  -10.7096   -0.2525    0.8809 H   0  0  0  0  0  0  0  0  0  0  0  0
  -12.3543   -0.2785    0.5389 H   0  0  0  0  0  0  0  0  0  0  0  0
   18.6733    2.7931   -0.1739 H   0  0  0  0  0  0  0  0  0  0  0  0
   14.8578    4.3784   -0.1456 H   0  0  0  0  0  0  0  0  0  0  0  0
  1  2  2  0  0  0  0
  2  3  1  0  0  0  0
  3  4  2  0  0  0  0
  4  5  1  0  0  0  0
  5  6  2  0  0  0  0
  1  6  1  0  0  0  0
  5  7  1  0  0  0  0
  7  8  2  0  0  0  0
  7  9  2  0  0  0  0
  7 10  1  0  0  0  0
  3 11  1  0  0  0  0
 11 12  2  0  0  0  0
 11 13  1  0  0  0  0
 13 14  1  0  0  0  0
 14 15  2  0  0  0  0
 15 16  1  0  0  0  0
 16 17  2  0  0  0  0
 17 18  1  0  0  0  0
 18 19  2  0  0  0  0
 14 19  1  0  0  0  0
 17 20  1  0  0  0  0
 20 21  1  0  0  0  0
 21 22  1  0  0  0  0
 22 23  1  0  0  0  0
 23 24  1  0  0  0  0
 24 25  2  0  0  0  0
 25 26  1  0  0  0  0
 26 27  2  0  0  0  0
 27 28  1  0  0  0  0
 28 29  2  0  0  0  0
 24 29  1  0  0  0  0
 29 30  1  0  0  0  0
 27 31  1  0  0  0  0
 25 32  1  0  0  0  0
 33 34  1  0  0  0  0
 34 35  2  0  0  0  0
 34 36  2  0  0  0  0
 34 37  1  0  0  0  0
  1 38  1  0  0  0  0
  2 39  1  0  0  0  0
  4 40  1  0  0  0  0
  6 41  1  0  0  0  0
 13 42  1  0  0  0  0
 15 43  1  0  0  0  0
 16 44  1  0  0  0  0
 18 45  1  0  0  0  0
 19 46  1  0  0  0  0
 21 47  1  0  0  0  0
 21 48  1  0  0  0  0
 22 49  1  0  0  0  0
 22 50  1  0  0  0  0
 23 51  1  0  0  0  0
 23 52  1  0  0  0  0
 30 53  1  0  0  0  0
 30 54  1  0  0  0  0
 31 55  1  0  0  0  0
 31 56  1  0  0  0  0
 32 57  1  0  0  0  0
 32 58  1  0  0  0  0
 33 59  1  0  0  0  0
 37 60  1  0  0  0  0
M  END
$$$$
