C22H23NO7
APtclcactv06211806473D 0   0.00000     0.00000
 
 53 57  0  0  0  0  0  0  0  0999 V2000
    1.1408    3.0675   -1.3224 C   0  0  0  0  0  0  0  0  0  0  0  0
    0.1101    2.0285   -1.4489 N   0  0  0  0  0  0  0  0  0  0  0  0
   -0.8239    2.3424   -2.5419 C   0  0  0  0  0  0  0  0  0  0  0  0
   -1.6298    1.0848   -2.8679 C   0  0  0  0  0  0  0  0  0  0  0  0
   -2.2120    0.5043   -1.6043 C   0  0  0  0  0  0  0  0  0  0  0  0
   -3.2477   -0.4108   -1.7152 C   0  0  0  0  0  0  0  0  0  0  0  0
   -3.8126   -0.9743   -0.5832 C   0  0  0  0  0  0  0  0  0  0  0  0
   -3.3363   -0.6187    0.6742 C   0  0  0  0  0  0  0  0  0  0  0  0
   -2.3002    0.2981    0.7819 C   0  0  0  0  0  0  0  0  0  0  0  0
   -1.7386    0.8617   -0.3594 C   0  0  0  0  0  0  0  0  0  0  0  0
   -0.6219    1.8584   -0.1898 C   0  0  0  0  0  0  0  0  0  0  0  0
    0.3406    1.3594    0.8899 C   0  0  0  0  0  0  0  0  0  0  0  0
    0.9782    0.0632    0.4561 C   0  0  0  0  0  0  0  0  0  0  0  0
    2.3562    0.3029    0.4024 C   0  0  0  0  0  0  0  0  0  0  0  0
    3.2197   -0.7327    0.0242 C   0  0  0  0  0  0  0  0  0  0  0  0
    2.6966   -1.9828   -0.2923 C   0  0  0  0  0  0  0  0  0  0  0  0
    1.3304   -2.2005   -0.2332 C   0  0  0  0  0  0  0  0  0  0  0  0
    0.4749   -1.1755    0.1408 C   0  0  0  0  0  0  0  0  0  0  0  0
    3.5292   -2.9930   -0.6608 O   0  0  0  0  0  0  0  0  0  0  0  0
    2.9256   -4.2503   -0.9721 C   0  0  0  0  0  0  0  0  0  0  0  0
    4.5587   -0.5182   -0.0338 O   0  0  0  0  0  0  0  0  0  0  0  0
    5.3081   -0.7694    1.1567 C   0  0  0  0  0  0  0  0  0  0  0  0
    2.5912    1.7028    0.7882 C   0  0  0  0  0  0  0  0  0  0  0  0
    3.6826    2.2338    0.8448 O   0  0  0  0  0  0  0  0  0  0  0  0
    1.4259    2.3102    1.0690 O   0  0  0  0  0  0  0  0  0  0  0  0
   -1.8316    0.6481    2.0097 O   0  0  0  0  0  0  0  0  0  0  0  0
   -2.5329    1.6839    2.7007 C   0  0  0  0  0  0  0  0  0  0  0  0
   -4.0462   -1.3025    1.6200 O   0  0  0  0  0  0  0  0  0  0  0  0
   -4.6840   -2.3835    0.9143 C   0  0  0  0  0  0  0  0  0  0  0  0
   -4.8219   -1.8803   -0.4277 O   0  0  0  0  0  0  0  0  0  0  0  0
    0.7518    3.8948   -0.7288 H   0  0  0  0  0  0  0  0  0  0  0  0
    2.0196    2.6496   -0.8312 H   0  0  0  0  0  0  0  0  0  0  0  0
    1.4159    3.4290   -2.3132 H   0  0  0  0  0  0  0  0  0  0  0  0
   -1.4988    3.1392   -2.2294 H   0  0  0  0  0  0  0  0  0  0  0  0
   -0.2642    2.6572   -3.4227 H   0  0  0  0  0  0  0  0  0  0  0  0
   -2.4372    1.3402   -3.5542 H   0  0  0  0  0  0  0  0  0  0  0  0
   -0.9774    0.3485   -3.3372 H   0  0  0  0  0  0  0  0  0  0  0  0
   -3.6171   -0.6861   -2.6920 H   0  0  0  0  0  0  0  0  0  0  0  0
   -1.0392    2.8176    0.1165 H   0  0  0  0  0  0  0  0  0  0  0  0
   -0.1929    1.2179    1.8298 H   0  0  0  0  0  0  0  0  0  0  0  0
    0.9295   -3.1724   -0.4801 H   0  0  0  0  0  0  0  0  0  0  0  0
   -0.5897   -1.3514    0.1849 H   0  0  0  0  0  0  0  0  0  0  0  0
    2.3850   -4.6195   -0.1006 H   0  0  0  0  0  0  0  0  0  0  0  0
    2.2319   -4.1244   -1.8034 H   0  0  0  0  0  0  0  0  0  0  0  0
    3.6994   -4.9661   -1.2498 H   0  0  0  0  0  0  0  0  0  0  0  0
    6.3619   -0.5590    0.9738 H   0  0  0  0  0  0  0  0  0  0  0  0
    4.9431   -0.1271    1.9581 H   0  0  0  0  0  0  0  0  0  0  0  0
    5.1910   -1.8137    1.4462 H   0  0  0  0  0  0  0  0  0  0  0  0
   -2.4357    2.6189    2.1491 H   0  0  0  0  0  0  0  0  0  0  0  0
   -3.5868    1.4176    2.7816 H   0  0  0  0  0  0  0  0  0  0  0  0
   -2.1111    1.8051    3.6985 H   0  0  0  0  0  0  0  0  0  0  0  0
   -4.0547   -3.2734    0.9271 H   0  0  0  0  0  0  0  0  0  0  0  0
   -5.6618   -2.5982    1.3453 H   0  0  0  0  0  0  0  0  0  0  0  0
  1  2  1  0  0  0  0
  2  3  1  0  0  0  0
  3  4  1  0  0  0  0
  4  5  1  0  0  0  0
  5  6  2  0  0  0  0
  6  7  1  0  0  0  0
  7  8  2  0  0  0  0
  8  9  1  0  0  0  0
  9 10  2  0  0  0  0
  5 10  1  0  0  0  0
 10 11  1  0  0  0  0
  2 11  1  0  0  0  0
 11 12  1  0  0  0  0
 12 13  1  0  0  0  0
 13 14  2  0  0  0  0
 14 15  1  0  0  0  0
 15 16  2  0  0  0  0
 16 17  1  0  0  0  0
 17 18  2  0  0  0  0
 13 18  1  0  0  0  0
 16 19  1  0  0  0  0
 19 20  1  0  0  0  0
 15 21  1  0  0  0  0
 21 22  1  0  0  0  0
 14 23  1  0  0  0  0
 23 24  2  0  0  0  0
 23 25  1  0  0  0  0
 12 25  1  0  0  0  0
  9 26  1  0  0  0  0
 26 27  1  0  0  0  0
  8 28  1  0  0  0  0
 28 29  1  0  0  0  0
 29 30  1  0  0  0  0
  7 30  1  0  0  0  0
  1 31  1  0  0  0  0
  1 32  1  0  0  0  0
  1 33  1  0  0  0  0
  3 34  1  0  0  0  0
  3 35  1  0  0  0  0
  4 36  1  0  0  0  0
  4 37  1  0  0  0  0
  6 38  1  0  0  0  0
 11 39  1  0  0  0  0
 12 40  1  0  0  0  0
 17 41  1  0  0  0  0
 18 42  1  0  0  0  0
 20 43  1  0  0  0  0
 20 44  1  0  0  0  0
 20 45  1  0  0  0  0
 22 46  1  0  0  0  0
 22 47  1  0  0  0  0
 22 48  1  0  0  0  0
 27 49  1  0  0  0  0
 27 50  1  0  0  0  0
 27 51  1  0  0  0  0
 29 52  1  0  0  0  0
 29 53  1  0  0  0  0
M  END
$$$$
