C12H17NO2
APtclcactv06211806183D 0   0.00000     0.00000
 
 32 33  0  0  0  0  0  0  0  0999 V2000
    4.5124   -0.7466   -0.2074 C   0  0  0  0  0  0  0  0  0  0  0  0
    3.1677   -0.1693   -0.3355 N   0  0  0  0  0  0  0  0  0  0  0  0
    3.0502    1.0722    0.4458 C   0  0  0  0  0  0  0  0  0  0  0  0
    1.7907    1.8121   -0.0056 C   0  0  0  0  0  0  0  0  0  0  0  0
    0.6111    0.8736    0.0034 C   0  0  0  0  0  0  0  0  0  0  0  0
   -0.6644    1.4172   -0.0256 C   0  0  0  0  0  0  0  0  0  0  0  0
   -1.7764    0.5938   -0.0217 C   0  0  0  0  0  0  0  0  0  0  0  0
   -1.6107   -0.7875    0.0107 C   0  0  0  0  0  0  0  0  0  0  0  0
   -0.3360   -1.3247    0.0401 C   0  0  0  0  0  0  0  0  0  0  0  0
    0.7760   -0.4951    0.0381 C   0  0  0  0  0  0  0  0  0  0  0  0
    2.1415   -1.1300    0.0813 C   0  0  0  0  0  0  0  0  0  0  0  0
   -2.6969   -1.6058    0.0137 O   0  0  0  0  0  0  0  0  0  0  0  0
   -2.4492   -3.0127    0.0477 C   0  0  0  0  0  0  0  0  0  0  0  0
   -3.0251    1.1318   -0.0488 O   0  0  0  0  0  0  0  0  0  0  0  0
   -3.1168    2.5575   -0.0807 C   0  0  0  0  0  0  0  0  0  0  0  0
    4.7125   -0.9726    0.8400 H   0  0  0  0  0  0  0  0  0  0  0  0
    4.5718   -1.6630   -0.7946 H   0  0  0  0  0  0  0  0  0  0  0  0
    5.2507   -0.0327   -0.5725 H   0  0  0  0  0  0  0  0  0  0  0  0
    2.9734    0.8317    1.5062 H   0  0  0  0  0  0  0  0  0  0  0  0
    3.9251    1.6986    0.2719 H   0  0  0  0  0  0  0  0  0  0  0  0
    1.5969    2.6434    0.6723 H   0  0  0  0  0  0  0  0  0  0  0  0
    1.9392    2.1970   -1.0145 H   0  0  0  0  0  0  0  0  0  0  0  0
   -0.7905    2.4895   -0.0511 H   0  0  0  0  0  0  0  0  0  0  0  0
   -0.2059   -2.3966    0.0649 H   0  0  0  0  0  0  0  0  0  0  0  0
    2.1598   -1.9897   -0.5886 H   0  0  0  0  0  0  0  0  0  0  0  0
    2.3518   -1.4622    1.0979 H   0  0  0  0  0  0  0  0  0  0  0  0
   -1.8922   -3.2619    0.9510 H   0  0  0  0  0  0  0  0  0  0  0  0
   -3.3982   -3.5489    0.0465 H   0  0  0  0  0  0  0  0  0  0  0  0
   -1.8681   -3.3006   -0.8284 H   0  0  0  0  0  0  0  0  0  0  0  0
   -2.6384    2.9722    0.8066 H   0  0  0  0  0  0  0  0  0  0  0  0
   -2.6163    2.9338   -0.9729 H   0  0  0  0  0  0  0  0  0  0  0  0
   -4.1655    2.8538   -0.1001 H   0  0  0  0  0  0  0  0  0  0  0  0
  1  2  1  0  0  0  0
  2  3  1  0  0  0  0
  3  4  1  0  0  0  0
  4  5  1  0  0  0  0
  5  6  2  0  0  0  0
  6  7  1  0  0  0  0
  7  8  2  0  0  0  0
  8  9  1  0  0  0  0
  9 10  2  0  0  0  0
  5 10  1  0  0  0  0
 10 11  1  0  0  0  0
  2 11  1  0  0  0  0
  8 12  1  0  0  0  0
 12 13  1  0  0  0  0
  7 14  1  0  0  0  0
 14 15  1  0  0  0  0
  1 16  1  0  0  0  0
  1 17  1  0  0  0  0
  1 18  1  0  0  0  0
  3 19  1  0  0  0  0
  3 20  1  0  0  0  0
  4 21  1  0  0  0  0
  4 22  1  0  0  0  0
  6 23  1  0  0  0  0
  9 24  1  0  0  0  0
 11 25  1  0  0  0  0
 11 26  1  0  0  0  0
 13 27  1  0  0  0  0
 13 28  1  0  0  0  0
 13 29  1  0  0  0  0
 15 30  1  0  0  0  0
 15 31  1  0  0  0  0
 15 32  1  0  0  0  0
M  END
$$$$
