C11H10O4
APtclcactv06211804343D 0   0.00000     0.00000
 
 25 26  0  0  0  0  0  0  0  0999 V2000
   -2.7529    3.0345    0.0009 C   0  0  0  0  0  0  0  0  0  0  0  0
   -2.9319    1.6167    0.0003 O   0  0  0  0  0  0  0  0  0  0  0  0
   -1.8091    0.8538    0.0007 C   0  0  0  0  0  0  0  0  0  0  0  0
   -1.9179   -0.5328    0.0001 C   0  0  0  0  0  0  0  0  0  0  0  0
   -0.7829   -1.3195    0.0000 C   0  0  0  0  0  0  0  0  0  0  0  0
    0.4845   -0.7105    0.0004 C   0  0  0  0  0  0  0  0  0  0  0  0
    1.6654   -1.4960   -0.0002 C   0  0  0  0  0  0  0  0  0  0  0  0
    2.8699   -0.8679   -0.0002 C   0  0  0  0  0  0  0  0  0  0  0  0
    2.9275    0.5400    0.0004 C   0  0  0  0  0  0  0  0  0  0  0  0
    4.0115    1.0957    0.0000 O   0  0  0  0  0  0  0  0  0  0  0  0
    1.8051    1.2795    0.0010 O   0  0  0  0  0  0  0  0  0  0  0  0
    0.5874    0.6931    0.0010 C   0  0  0  0  0  0  0  0  0  0  0  0
   -0.5638    1.4639   -0.0042 C   0  0  0  0  0  0  0  0  0  0  0  0
   -0.8901   -2.6723   -0.0001 O   0  0  0  0  0  0  0  0  0  0  0  0
   -2.2107   -3.2184    0.0000 C   0  0  0  0  0  0  0  0  0  0  0  0
   -2.1971    3.3309   -0.8887 H   0  0  0  0  0  0  0  0  0  0  0  0
   -3.7270    3.5236    0.0005 H   0  0  0  0  0  0  0  0  0  0  0  0
   -2.1981    3.3303    0.8913 H   0  0  0  0  0  0  0  0  0  0  0  0
   -2.8936   -0.9959    0.0002 H   0  0  0  0  0  0  0  0  0  0  0  0
    1.6080   -2.5745   -0.0004 H   0  0  0  0  0  0  0  0  0  0  0  0
    3.7818   -1.4466   -0.0004 H   0  0  0  0  0  0  0  0  0  0  0  0
   -0.4912    2.5414   -0.0080 H   0  0  0  0  0  0  0  0  0  0  0  0
   -2.1537   -4.3069   -0.0001 H   0  0  0  0  0  0  0  0  0  0  0  0
   -2.7427   -2.8825    0.8901 H   0  0  0  0  0  0  0  0  0  0  0  0
   -2.7429   -2.8824   -0.8899 H   0  0  0  0  0  0  0  0  0  0  0  0
  1  2  1  0  0  0  0
  2  3  1  0  0  0  0
  3  4  2  0  0  0  0
  4  5  1  0  0  0  0
  5  6  2  0  0  0  0
  6  7  1  0  0  0  0
  7  8  2  0  0  0  0
  8  9  1  0  0  0  0
  9 10  2  0  0  0  0
  9 11  1  0  0  0  0
 11 12  1  0  0  0  0
  6 12  1  0  0  0  0
 12 13  2  0  0  0  0
  3 13  1  0  0  0  0
  5 14  1  0  0  0  0
 14 15  1  0  0  0  0
  1 16  1  0  0  0  0
  1 17  1  0  0  0  0
  1 18  1  0  0  0  0
  4 19  1  0  0  0  0
  7 20  1  0  0  0  0
  8 21  1  0  0  0  0
 13 22  1  0  0  0  0
 15 23  1  0  0  0  0
 15 24  1  0  0  0  0
 15 25  1  0  0  0  0
M  END
$$$$
