C17H19NO3
APtclcactv06211806473D 0   0.00000     0.00000
 
 40 42  0  0  0  0  0  0  0  0999 V2000
    6.0540   -0.4959    0.2276 C   0  0  0  0  0  0  0  0  0  0  0  0
    5.1936    0.6434    0.1656 O   0  0  0  0  0  0  0  0  0  0  0  0
    3.8601    0.4042    0.0471 C   0  0  0  0  0  0  0  0  0  0  0  0
    2.9625    1.4656   -0.0190 C   0  0  0  0  0  0  0  0  0  0  0  0
    1.6081    1.2115   -0.1415 C   0  0  0  0  0  0  0  0  0  0  0  0
    1.1405   -0.0935   -0.1975 C   0  0  0  0  0  0  0  0  0  0  0  0
   -0.3431   -0.3158   -0.3356 C   0  0  0  0  0  0  0  0  0  0  0  0
   -0.6923   -1.6921    0.0300 N   0  0  0  0  0  0  0  0  0  0  0  0
    0.1380   -2.6452   -0.7236 C   0  0  0  0  0  0  0  0  0  0  0  0
    1.5661   -2.5782   -0.1819 C   0  0  0  0  0  0  0  0  0  0  0  0
    2.0302   -1.1449   -0.1298 C   0  0  0  0  0  0  0  0  0  0  0  0
    3.3896   -0.8956   -0.0142 C   0  0  0  0  0  0  0  0  0  0  0  0
   -1.0869    0.6550    0.5838 C   0  0  0  0  0  0  0  0  0  0  0  0
   -2.5712    0.5220    0.3594 C   0  0  0  0  0  0  0  0  0  0  0  0
   -3.3035   -0.3829    1.1054 C   0  0  0  0  0  0  0  0  0  0  0  0
   -4.6642   -0.5068    0.9017 C   0  0  0  0  0  0  0  0  0  0  0  0
   -5.2958    0.2777   -0.0523 C   0  0  0  0  0  0  0  0  0  0  0  0
   -4.5588    1.1849   -0.7996 C   0  0  0  0  0  0  0  0  0  0  0  0
   -3.1992    1.3090   -0.5881 C   0  0  0  0  0  0  0  0  0  0  0  0
   -6.6343    0.1574   -0.2549 O   0  0  0  0  0  0  0  0  0  0  0  0
    3.4147    2.7469    0.0371 O   0  0  0  0  0  0  0  0  0  0  0  0
    5.7879   -1.1056    1.0910 H   0  0  0  0  0  0  0  0  0  0  0  0
    5.9420   -1.0857   -0.6822 H   0  0  0  0  0  0  0  0  0  0  0  0
    7.0884   -0.1652    0.3212 H   0  0  0  0  0  0  0  0  0  0  0  0
    0.9103    2.0342   -0.1936 H   0  0  0  0  0  0  0  0  0  0  0  0
   -0.6399   -0.1315   -1.3681 H   0  0  0  0  0  0  0  0  0  0  0  0
   -0.5977   -1.8373    1.0241 H   0  0  0  0  0  0  0  0  0  0  0  0
   -0.2551   -3.6539   -0.5961 H   0  0  0  0  0  0  0  0  0  0  0  0
    0.1342   -2.3784   -1.7804 H   0  0  0  0  0  0  0  0  0  0  0  0
    1.5931   -3.0040    0.8211 H   0  0  0  0  0  0  0  0  0  0  0  0
    2.2275   -3.1491   -0.8336 H   0  0  0  0  0  0  0  0  0  0  0  0
    4.0846   -1.7209    0.0329 H   0  0  0  0  0  0  0  0  0  0  0  0
   -0.8541    0.4221    1.6228 H   0  0  0  0  0  0  0  0  0  0  0  0
   -0.7760    1.6759    0.3619 H   0  0  0  0  0  0  0  0  0  0  0  0
   -2.8113   -0.9937    1.8478 H   0  0  0  0  0  0  0  0  0  0  0  0
   -5.2358   -1.2140    1.4844 H   0  0  0  0  0  0  0  0  0  0  0  0
   -5.0482    1.7968   -1.5429 H   0  0  0  0  0  0  0  0  0  0  0  0
   -2.6250    2.0151   -1.1695 H   0  0  0  0  0  0  0  0  0  0  0  0
   -7.1698    0.7446    0.2960 H   0  0  0  0  0  0  0  0  0  0  0  0
    3.6233    3.1286   -0.8265 H   0  0  0  0  0  0  0  0  0  0  0  0
  1  2  1  0  0  0  0
  2  3  1  0  0  0  0
  3  4  2  0  0  0  0
  4  5  1  0  0  0  0
  5  6  2  0  0  0  0
  6  7  1  0  0  0  0
  7  8  1  0  0  0  0
  8  9  1  0  0  0  0
  9 10  1  0  0  0  0
 10 11  1  0  0  0  0
  6 11  1  0  0  0  0
 11 12  2  0  0  0  0
  3 12  1  0  0  0  0
  7 13  1  0  0  0  0
 13 14  1  0  0  0  0
 14 15  2  0  0  0  0
 15 16  1  0  0  0  0
 16 17  2  0  0  0  0
 17 18  1  0  0  0  0
 18 19  2  0  0  0  0
 14 19  1  0  0  0  0
 17 20  1  0  0  0  0
  4 21  1  0  0  0  0
  1 22  1  0  0  0  0
  1 23  1  0  0  0  0
  1 24  1  0  0  0  0
  5 25  1  0  0  0  0
  7 26  1  0  0  0  0
  8 27  1  0  0  0  0
  9 28  1  0  0  0  0
  9 29  1  0  0  0  0
 10 30  1  0  0  0  0
 10 31  1  0  0  0  0
 12 32  1  0  0  0  0
 13 33  1  0  0  0  0
 13 34  1  0  0  0  0
 15 35  1  0  0  0  0
 16 36  1  0  0  0  0
 18 37  1  0  0  0  0
 19 38  1  0  0  0  0
 20 39  1  0  0  0  0
 21 40  1  0  0  0  0
M  END
$$$$
