C15H14O5
APtclcactv06211806473D 0   0.00000     0.00000
 
 34 36  0  0  0  0  0  0  0  0999 V2000
    1.2345   -1.9681    0.1651 C   0  0  0  0  0  0  0  0  0  0  0  0
   -0.2147   -1.6257   -0.1891 C   0  0  0  0  0  0  0  0  0  0  0  0
   -0.6334   -0.3981    0.6301 C   0  0  0  0  0  0  0  0  0  0  0  0
    0.1620    0.7130    0.2146 O   0  0  0  0  0  0  0  0  0  0  0  0
    1.5075    0.5394    0.1430 C   0  0  0  0  0  0  0  0  0  0  0  0
    2.3193    1.6677    0.1009 C   0  0  0  0  0  0  0  0  0  0  0  0
    3.6962    1.5354    0.0242 C   0  0  0  0  0  0  0  0  0  0  0  0
    4.2684    0.2729   -0.0117 C   0  0  0  0  0  0  0  0  0  0  0  0
    3.4607   -0.8520    0.0310 C   0  0  0  0  0  0  0  0  0  0  0  0
    2.0792   -0.7203    0.1105 C   0  0  0  0  0  0  0  0  0  0  0  0
    4.0214   -2.0893   -0.0049 O   0  0  0  0  0  0  0  0  0  0  0  0
    4.4849    2.6414   -0.0163 O   0  0  0  0  0  0  0  0  0  0  0  0
   -2.0903   -0.0986    0.3872 C   0  0  0  0  0  0  0  0  0  0  0  0
   -3.0404   -0.5014    1.3073 C   0  0  0  0  0  0  0  0  0  0  0  0
   -4.3765   -0.2280    1.0869 C   0  0  0  0  0  0  0  0  0  0  0  0
   -4.7646    0.4513   -0.0588 C   0  0  0  0  0  0  0  0  0  0  0  0
   -3.8092    0.8544   -0.9805 C   0  0  0  0  0  0  0  0  0  0  0  0
   -2.4739    0.5836   -0.7527 C   0  0  0  0  0  0  0  0  0  0  0  0
   -6.0783    0.7211   -0.2781 O   0  0  0  0  0  0  0  0  0  0  0  0
   -0.3128   -1.3304   -1.5838 O   0  0  0  0  0  0  0  0  0  0  0  0
    1.2727   -2.3882    1.1701 H   0  0  0  0  0  0  0  0  0  0  0  0
    1.6192   -2.6979   -0.5472 H   0  0  0  0  0  0  0  0  0  0  0  0
   -0.8615   -2.4684    0.0550 H   0  0  0  0  0  0  0  0  0  0  0  0
   -0.4696   -0.5909    1.6903 H   0  0  0  0  0  0  0  0  0  0  0  0
    1.8744    2.6514    0.1285 H   0  0  0  0  0  0  0  0  0  0  0  0
    5.3414    0.1667   -0.0725 H   0  0  0  0  0  0  0  0  0  0  0  0
    4.2342   -2.4502    0.8666 H   0  0  0  0  0  0  0  0  0  0  0  0
    4.7620    2.9589    0.8541 H   0  0  0  0  0  0  0  0  0  0  0  0
   -2.7379   -1.0305    2.1989 H   0  0  0  0  0  0  0  0  0  0  0  0
   -5.1184   -0.5432    1.8057 H   0  0  0  0  0  0  0  0  0  0  0  0
   -4.1088    1.3834   -1.8731 H   0  0  0  0  0  0  0  0  0  0  0  0
   -1.7298    0.8972   -1.4699 H   0  0  0  0  0  0  0  0  0  0  0  0
   -6.3719    1.5679    0.0850 H   0  0  0  0  0  0  0  0  0  0  0  0
   -0.0451   -2.0594   -2.1600 H   0  0  0  0  0  0  0  0  0  0  0  0
  1  2  1  0  0  0  0
  2  3  1  0  0  0  0
  3  4  1  0  0  0  0
  4  5  1  0  0  0  0
  5  6  2  0  0  0  0
  6  7  1  0  0  0  0
  7  8  2  0  0  0  0
  8  9  1  0  0  0  0
  9 10  2  0  0  0  0
  5 10  1  0  0  0  0
  1 10  1  0  0  0  0
  9 11  1  0  0  0  0
  7 12  1  0  0  0  0
  3 13  1  0  0  0  0
 13 14  2  0  0  0  0
 14 15  1  0  0  0  0
 15 16  2  0  0  0  0
 16 17  1  0  0  0  0
 17 18  2  0  0  0  0
 13 18  1  0  0  0  0
 16 19  1  0  0  0  0
  2 20  1  0  0  0  0
  1 21  1  0  0  0  0
  1 22  1  0  0  0  0
  2 23  1  0  0  0  0
  3 24  1  0  0  0  0
  6 25  1  0  0  0  0
  8 26  1  0  0  0  0
 11 27  1  0  0  0  0
 12 28  1  0  0  0  0
 14 29  1  0  0  0  0
 15 30  1  0  0  0  0
 17 31  1  0  0  0  0
 18 32  1  0  0  0  0
 19 33  1  0  0  0  0
 20 34  1  0  0  0  0
M  END
$$$$
