C8H8O4
APtclcactv06211806473D 0   0.00000     0.00000
 
 20 20  0  0  0  0  0  0  0  0999 V2000
    4.2387    0.3438    0.0161 C   0  0  0  0  0  0  0  0  0  0  0  0
    2.8356    0.7173    0.0092 O   0  0  0  0  0  0  0  0  0  0  0  0
    1.9356   -0.2854   -0.0004 C   0  0  0  0  0  0  0  0  0  0  0  0
    2.3129   -1.4404   -0.0029 O   0  0  0  0  0  0  0  0  0  0  0  0
    0.4926    0.0189   -0.0079 C   0  0  0  0  0  0  0  0  0  0  0  0
   -0.4424   -1.0202   -0.0178 C   0  0  0  0  0  0  0  0  0  0  0  0
   -1.7927   -0.7297   -0.0248 C   0  0  0  0  0  0  0  0  0  0  0  0
   -2.2203    0.5973   -0.0219 C   0  0  0  0  0  0  0  0  0  0  0  0
   -1.2915    1.6293   -0.0120 C   0  0  0  0  0  0  0  0  0  0  0  0
    0.0568    1.3468    0.0008 C   0  0  0  0  0  0  0  0  0  0  0  0
   -3.5482    0.8811   -0.0293 O   0  0  0  0  0  0  0  0  0  0  0  0
   -2.7052   -1.7382   -0.0350 O   0  0  0  0  0  0  0  0  0  0  0  0
    4.8542    1.2433    0.0236 H   0  0  0  0  0  0  0  0  0  0  0  0
    4.4523   -0.2500    0.9049 H   0  0  0  0  0  0  0  0  0  0  0  0
    4.4630   -0.2425   -0.8750 H   0  0  0  0  0  0  0  0  0  0  0  0
   -0.1098   -2.0477   -0.0204 H   0  0  0  0  0  0  0  0  0  0  0  0
   -1.6269    2.6559   -0.0098 H   0  0  0  0  0  0  0  0  0  0  0  0
    0.7771    2.1515    0.0089 H   0  0  0  0  0  0  0  0  0  0  0  0
   -3.9385    0.9595    0.8520 H   0  0  0  0  0  0  0  0  0  0  0  0
   -2.9745   -2.0338    0.8454 H   0  0  0  0  0  0  0  0  0  0  0  0
  1  2  1  0  0  0  0
  2  3  1  0  0  0  0
  3  4  2  0  0  0  0
  3  5  1  0  0  0  0
  5  6  2  0  0  0  0
  6  7  1  0  0  0  0
  7  8  2  0  0  0  0
  8  9  1  0  0  0  0
  9 10  2  0  0  0  0
  5 10  1  0  0  0  0
  8 11  1  0  0  0  0
  7 12  1  0  0  0  0
  1 13  1  0  0  0  0
  1 14  1  0  0  0  0
  1 15  1  0  0  0  0
  6 16  1  0  0  0  0
  9 17  1  0  0  0  0
 10 18  1  0  0  0  0
 11 19  1  0  0  0  0
 12 20  1  0  0  0  0
M  END
$$$$
