C22H27NO5
APtclcactv06211806473D 0   0.00000     0.00000
 
 55 57  0  0  0  0  0  0  0  0999 V2000
    0.9104    1.8504   -1.2819 C   0  0  0  0  0  0  0  0  0  0  0  0
   -0.0908    1.1815   -0.4404 N   0  0  0  0  0  0  0  0  0  0  0  0
   -0.0947    1.7370    0.9102 C   0  0  0  0  0  0  0  0  0  0  0  0
    1.3050    1.8021    1.4984 C   0  0  0  0  0  0  0  0  0  0  0  0
    2.2436    0.8090    0.8796 C   0  0  0  0  0  0  0  0  0  0  0  0
    3.5722    1.1497    0.7165 C   0  0  0  0  0  0  0  0  0  0  0  0
    4.4642    0.2597    0.1341 C   0  0  0  0  0  0  0  0  0  0  0  0
    4.0270   -0.9940   -0.2941 C   0  0  0  0  0  0  0  0  0  0  0  0
    2.7036   -1.3464   -0.1217 C   0  0  0  0  0  0  0  0  0  0  0  0
    1.8024   -0.4603    0.4759 C   0  0  0  0  0  0  0  0  0  0  0  0
    0.3987   -0.8122    0.6621 C   0  0  0  0  0  0  0  0  0  0  0  0
   -0.1324   -0.5533    1.7214 O   0  0  0  0  0  0  0  0  0  0  0  0
   -0.4115   -1.4806   -0.4061 C   0  0  0  0  0  0  0  0  0  0  0  0
   -1.8610   -1.1070   -0.2112 C   0  0  0  0  0  0  0  0  0  0  0  0
   -2.3201    0.1627   -0.5085 C   0  0  0  0  0  0  0  0  0  0  0  0
   -1.4120    1.2233   -1.0646 C   0  0  0  0  0  0  0  0  0  0  0  0
   -3.6612    0.4709   -0.2954 C   0  0  0  0  0  0  0  0  0  0  0  0
   -4.5347   -0.4903    0.1973 C   0  0  0  0  0  0  0  0  0  0  0  0
   -4.0675   -1.7670    0.4698 C   0  0  0  0  0  0  0  0  0  0  0  0
   -2.7336   -2.0636    0.2749 C   0  0  0  0  0  0  0  0  0  0  0  0
   -5.8414   -0.1805    0.4117 O   0  0  0  0  0  0  0  0  0  0  0  0
   -6.6797   -1.2203    0.9196 C   0  0  0  0  0  0  0  0  0  0  0  0
   -4.1188    1.7216   -0.5710 O   0  0  0  0  0  0  0  0  0  0  0  0
   -4.6094    1.9563   -1.8925 C   0  0  0  0  0  0  0  0  0  0  0  0
    4.8972   -1.8616   -0.8768 O   0  0  0  0  0  0  0  0  0  0  0  0
    4.3746   -3.1262   -1.2887 C   0  0  0  0  0  0  0  0  0  0  0  0
    5.7665    0.6108   -0.0198 O   0  0  0  0  0  0  0  0  0  0  0  0
    6.1471    1.9092    0.4399 C   0  0  0  0  0  0  0  0  0  0  0  0
    1.9098    1.5995   -0.9265 H   0  0  0  0  0  0  0  0  0  0  0  0
    0.7978    1.5184   -2.3140 H   0  0  0  0  0  0  0  0  0  0  0  0
    0.7664    2.9295   -1.2296 H   0  0  0  0  0  0  0  0  0  0  0  0
   -0.5139    2.7427    0.8792 H   0  0  0  0  0  0  0  0  0  0  0  0
   -0.7196    1.1129    1.5490 H   0  0  0  0  0  0  0  0  0  0  0  0
    1.7040    2.8050    1.3459 H   0  0  0  0  0  0  0  0  0  0  0  0
    1.2454    1.6091    2.5695 H   0  0  0  0  0  0  0  0  0  0  0  0
    3.9203    2.1178    1.0449 H   0  0  0  0  0  0  0  0  0  0  0  0
    2.3609   -2.3159   -0.4520 H   0  0  0  0  0  0  0  0  0  0  0  0
   -0.0749   -1.1431   -1.3863 H   0  0  0  0  0  0  0  0  0  0  0  0
   -0.2984   -2.5619   -0.3289 H   0  0  0  0  0  0  0  0  0  0  0  0
   -1.8580    2.2020   -0.8877 H   0  0  0  0  0  0  0  0  0  0  0  0
   -1.3040    1.0718   -2.1386 H   0  0  0  0  0  0  0  0  0  0  0  0
   -4.7444   -2.5263    0.8326 H   0  0  0  0  0  0  0  0  0  0  0  0
   -2.3673   -3.0533    0.5048 H   0  0  0  0  0  0  0  0  0  0  0  0
   -7.6939   -0.8410    1.0444 H   0  0  0  0  0  0  0  0  0  0  0  0
   -6.6878   -2.0553    0.2190 H   0  0  0  0  0  0  0  0  0  0  0  0
   -6.2969   -1.5579    1.8827 H   0  0  0  0  0  0  0  0  0  0  0  0
   -4.9425    2.9906   -1.9780 H   0  0  0  0  0  0  0  0  0  0  0  0
   -3.8137    1.7699   -2.6138 H   0  0  0  0  0  0  0  0  0  0  0  0
   -5.4461    1.2873   -2.0936 H   0  0  0  0  0  0  0  0  0  0  0  0
    5.1713   -3.7201   -1.7367 H   0  0  0  0  0  0  0  0  0  0  0  0
    3.9720   -3.6523   -0.4231 H   0  0  0  0  0  0  0  0  0  0  0  0
    3.5818   -2.9707   -2.0205 H   0  0  0  0  0  0  0  0  0  0  0  0
    5.5744    2.6665   -0.0956 H   0  0  0  0  0  0  0  0  0  0  0  0
    5.9463    1.9897    1.5082 H   0  0  0  0  0  0  0  0  0  0  0  0
    7.2108    2.0618    0.2576 H   0  0  0  0  0  0  0  0  0  0  0  0
  1  2  1  0  0  0  0
  2  3  1  0  0  0  0
  3  4  1  0  0  0  0
  4  5  1  0  0  0  0
  5  6  2  0  0  0  0
  6  7  1  0  0  0  0
  7  8  2  0  0  0  0
  8  9  1  0  0  0  0
  9 10  2  0  0  0  0
  5 10  1  0  0  0  0
 10 11  1  0  0  0  0
 11 12  2  0  0  0  0
 11 13  1  0  0  0  0
 13 14  1  0  0  0  0
 14 15  2  0  0  0  0
 15 16  1  0  0  0  0
  2 16  1  0  0  0  0
 15 17  1  0  0  0  0
 17 18  2  0  0  0  0
 18 19  1  0  0  0  0
 19 20  2  0  0  0  0
 14 20  1  0  0  0  0
 18 21  1  0  0  0  0
 21 22  1  0  0  0  0
 17 23  1  0  0  0  0
 23 24  1  0  0  0  0
  8 25  1  0  0  0  0
 25 26  1  0  0  0  0
  7 27  1  0  0  0  0
 27 28  1  0  0  0  0
  1 29  1  0  0  0  0
  1 30  1  0  0  0  0
  1 31  1  0  0  0  0
  3 32  1  0  0  0  0
  3 33  1  0  0  0  0
  4 34  1  0  0  0  0
  4 35  1  0  0  0  0
  6 36  1  0  0  0  0
  9 37  1  0  0  0  0
 13 38  1  0  0  0  0
 13 39  1  0  0  0  0
 16 40  1  0  0  0  0
 16 41  1  0  0  0  0
 19 42  1  0  0  0  0
 20 43  1  0  0  0  0
 22 44  1  0  0  0  0
 22 45  1  0  0  0  0
 22 46  1  0  0  0  0
 24 47  1  0  0  0  0
 24 48  1  0  0  0  0
 24 49  1  0  0  0  0
 26 50  1  0  0  0  0
 26 51  1  0  0  0  0
 26 52  1  0  0  0  0
 28 53  1  0  0  0  0
 28 54  1  0  0  0  0
 28 55  1  0  0  0  0
M  END
$$$$
