C15H24
APtclcactv06211806473D 0   0.00000     0.00000
 
 39 41  0  0  0  0  0  0  0  0999 V2000
    3.0017   -1.1015   -0.5591 C   0  0  0  0  0  0  0  0  0  0  0  0
    1.7831   -0.2730   -0.0483 C   0  0  0  0  0  0  0  0  0  0  0  0
    1.8894    1.0410   -0.7223 C   0  0  0  0  0  0  0  0  0  0  0  0
    0.9026    2.0652   -0.2512 C   0  0  0  0  0  0  0  0  0  0  0  0
   -0.4657    2.0043   -0.7979 C   0  0  0  0  0  0  0  0  0  0  0  0
   -1.1448    0.6966   -0.3203 C   0  0  0  0  0  0  0  0  0  0  0  0
   -0.5920   -0.4277   -1.2236 C   0  0  0  0  0  0  0  0  0  0  0  0
    0.5442   -1.1002   -0.3867 C   0  0  0  0  0  0  0  0  0  0  0  0
   -0.3264   -1.2012    0.9241 C   0  0  0  0  0  0  0  0  0  0  0  0
   -0.8965    0.2236    1.0718 C   0  0  0  0  0  0  0  0  0  0  0  0
   -1.1410    0.8731    2.1867 C   0  0  0  0  0  0  0  0  0  0  0  0
   -1.5300   -2.0330    0.3562 C   0  0  0  0  0  0  0  0  0  0  0  0
   -1.6297   -1.5967   -1.1253 C   0  0  0  0  0  0  0  0  0  0  0  0
   -2.6505    0.8870   -0.5159 C   0  0  0  0  0  0  0  0  0  0  0  0
    2.0145   -0.1197    1.4554 C   0  0  0  0  0  0  0  0  0  0  0  0
    3.9264   -0.5901   -0.2918 H   0  0  0  0  0  0  0  0  0  0  0  0
    2.9872   -2.0899   -0.0998 H   0  0  0  0  0  0  0  0  0  0  0  0
    2.9431   -1.2035   -1.6427 H   0  0  0  0  0  0  0  0  0  0  0  0
    2.9147    1.4305   -0.5856 H   0  0  0  0  0  0  0  0  0  0  0  0
    1.7718    0.8936   -1.8119 H   0  0  0  0  0  0  0  0  0  0  0  0
    0.8501    2.0853    0.8392 H   0  0  0  0  0  0  0  0  0  0  0  0
    1.3081    3.0627   -0.5223 H   0  0  0  0  0  0  0  0  0  0  0  0
   -1.0531    2.8549   -0.4474 H   0  0  0  0  0  0  0  0  0  0  0  0
   -0.4409    2.0112   -1.8887 H   0  0  0  0  0  0  0  0  0  0  0  0
   -0.3108   -0.1318   -2.2380 H   0  0  0  0  0  0  0  0  0  0  0  0
    0.8168   -2.0976   -0.8183 H   0  0  0  0  0  0  0  0  0  0  0  0
    0.1073   -1.6523    1.8141 H   0  0  0  0  0  0  0  0  0  0  0  0
   -0.9397    0.4057    3.1393 H   0  0  0  0  0  0  0  0  0  0  0  0
   -1.5433    1.8748    2.1510 H   0  0  0  0  0  0  0  0  0  0  0  0
   -1.3048   -3.0940    0.4287 H   0  0  0  0  0  0  0  0  0  0  0  0
   -2.4374   -1.7846    0.8968 H   0  0  0  0  0  0  0  0  0  0  0  0
   -2.6285   -1.3488   -1.4293 H   0  0  0  0  0  0  0  0  0  0  0  0
   -1.2801   -2.4324   -1.7620 H   0  0  0  0  0  0  0  0  0  0  0  0
   -2.8610    1.0579   -1.5717 H   0  0  0  0  0  0  0  0  0  0  0  0
   -3.1764   -0.0070   -0.1807 H   0  0  0  0  0  0  0  0  0  0  0  0
   -2.9867    1.7457    0.0652 H   0  0  0  0  0  0  0  0  0  0  0  0
    2.9565    0.4013    1.6267 H   0  0  0  0  0  0  0  0  0  0  0  0
    1.1972    0.4542    1.8921 H   0  0  0  0  0  0  0  0  0  0  0  0
    2.0548   -1.1053    1.9191 H   0  0  0  0  0  0  0  0  0  0  0  0
  1  2  1  0  0  0  0
  2  3  1  0  0  0  0
  3  4  1  0  0  0  0
  4  5  1  0  0  0  0
  5  6  1  0  0  0  0
  6  7  1  0  0  0  0
  7  8  1  0  0  0  0
  2  8  1  0  0  0  0
  8  9  1  0  0  0  0
  9 10  1  0  0  0  0
  6 10  1  0  0  0  0
 10 11  2  0  0  0  0
  9 12  1  0  0  0  0
 12 13  1  0  0  0  0
  7 13  1  0  0  0  0
  6 14  1  0  0  0  0
  2 15  1  0  0  0  0
  1 16  1  0  0  0  0
  1 17  1  0  0  0  0
  1 18  1  0  0  0  0
  3 19  1  0  0  0  0
  3 20  1  0  0  0  0
  4 21  1  0  0  0  0
  4 22  1  0  0  0  0
  5 23  1  0  0  0  0
  5 24  1  0  0  0  0
  7 25  1  0  0  0  0
  8 26  1  0  0  0  0
  9 27  1  0  0  0  0
 11 28  1  0  0  0  0
 11 29  1  0  0  0  0
 12 30  1  0  0  0  0
 12 31  1  0  0  0  0
 13 32  1  0  0  0  0
 13 33  1  0  0  0  0
 14 34  1  0  0  0  0
 14 35  1  0  0  0  0
 14 36  1  0  0  0  0
 15 37  1  0  0  0  0
 15 38  1  0  0  0  0
 15 39  1  0  0  0  0
M  END
$$$$
