C8H16O
APtclcactv06211806183D 0   0.00000     0.00000
 
 25 24  0  0  0  0  0  0  0  0999 V2000
   -4.5425    1.1140   -0.1063 C   0  0  0  0  0  0  0  0  0  0  0  0
   -3.6278   -0.0321    0.3305 C   0  0  0  0  0  0  0  0  0  0  0  0
   -2.2377    0.1647   -0.2776 C   0  0  0  0  0  0  0  0  0  0  0  0
   -1.3231   -0.9813    0.1592 C   0  0  0  0  0  0  0  0  0  0  0  0
    0.0461   -0.7875   -0.4397 C   0  0  0  0  0  0  0  0  0  0  0  0
    1.1021   -0.7599    0.3351 C   0  0  0  0  0  0  0  0  0  0  0  0
    2.4713   -0.5660   -0.2639 C   0  0  0  0  0  0  0  0  0  0  0  0
    3.1555    0.6285    0.4038 C   0  0  0  0  0  0  0  0  0  0  0  0
    4.4539    0.8124   -0.1642 O   0  0  0  0  0  0  0  0  0  0  0  0
   -4.6195    1.1232   -1.1935 H   0  0  0  0  0  0  0  0  0  0  0  0
   -5.5328    0.9738    0.3269 H   0  0  0  0  0  0  0  0  0  0  0  0
   -4.1268    2.0615    0.2366 H   0  0  0  0  0  0  0  0  0  0  0  0
   -3.5508   -0.0413    1.4177 H   0  0  0  0  0  0  0  0  0  0  0  0
   -4.0435   -0.9796   -0.0123 H   0  0  0  0  0  0  0  0  0  0  0  0
   -2.3147    0.1740   -1.3648 H   0  0  0  0  0  0  0  0  0  0  0  0
   -1.8220    1.1122    0.0653 H   0  0  0  0  0  0  0  0  0  0  0  0
   -1.2460   -0.9905    1.2464 H   0  0  0  0  0  0  0  0  0  0  0  0
   -1.7388   -1.9288   -0.1836 H   0  0  0  0  0  0  0  0  0  0  0  0
    0.1568   -0.6712   -1.5077 H   0  0  0  0  0  0  0  0  0  0  0  0
    0.9914   -0.8761    1.4031 H   0  0  0  0  0  0  0  0  0  0  0  0
    3.0687   -1.4635   -0.1030 H   0  0  0  0  0  0  0  0  0  0  0  0
    2.3768   -0.3794   -1.3336 H   0  0  0  0  0  0  0  0  0  0  0  0
    2.5582    1.5260    0.2429 H   0  0  0  0  0  0  0  0  0  0  0  0
    3.2500    0.4419    1.4735 H   0  0  0  0  0  0  0  0  0  0  0  0
    4.9465    1.5543    0.2125 H   0  0  0  0  0  0  0  0  0  0  0  0
  1  2  1  0  0  0  0
  2  3  1  0  0  0  0
  3  4  1  0  0  0  0
  4  5  1  0  0  0  0
  5  6  2  0  0  0  0
  6  7  1  0  0  0  0
  7  8  1  0  0  0  0
  8  9  1  0  0  0  0
  1 10  1  0  0  0  0
  1 11  1  0  0  0  0
  1 12  1  0  0  0  0
  2 13  1  0  0  0  0
  2 14  1  0  0  0  0
  3 15  1  0  0  0  0
  3 16  1  0  0  0  0
  4 17  1  0  0  0  0
  4 18  1  0  0  0  0
  5 19  1  0  0  0  0
  6 20  1  0  0  0  0
  7 21  1  0  0  0  0
  7 22  1  0  0  0  0
  8 23  1  0  0  0  0
  8 24  1  0  0  0  0
  9 25  1  0  0  0  0
M  END
$$$$
