C17H34O
APtclcactv06211806473D 0   0.00000     0.00000
 
 52 51  0  0  0  0  0  0  0  0999 V2000
   10.0870    0.7000    0.0000 C   0  0  0  0  0  0  0  0  0  0  0  0
    8.8973   -0.2620   -0.0000 C   0  0  0  0  0  0  0  0  0  0  0  0
    7.5937    0.5391    0.0000 C   0  0  0  0  0  0  0  0  0  0  0  0
    6.4040   -0.4229   -0.0000 C   0  0  0  0  0  0  0  0  0  0  0  0
    5.1004    0.3781    0.0000 C   0  0  0  0  0  0  0  0  0  0  0  0
    3.9107   -0.5839   -0.0000 C   0  0  0  0  0  0  0  0  0  0  0  0
    2.6071    0.2172    0.0000 C   0  0  0  0  0  0  0  0  0  0  0  0
    1.4174   -0.7448   -0.0000 C   0  0  0  0  0  0  0  0  0  0  0  0
    0.1139    0.0562    0.0000 C   0  0  0  0  0  0  0  0  0  0  0  0
   -1.0759   -0.9057    0.0000 C   0  0  0  0  0  0  0  0  0  0  0  0
   -2.3598   -0.1168    0.0000 C   0  0  0  0  0  0  0  0  0  0  0  0
   -2.3267    1.0904    0.0000 O   0  0  0  0  0  0  0  0  0  0  0  0
   -3.6851   -0.8342    0.0000 C   0  0  0  0  0  0  0  0  0  0  0  0
   -4.8203    0.1916   -0.0000 C   0  0  0  0  0  0  0  0  0  0  0  0
   -6.1658   -0.5368    0.0000 C   0  0  0  0  0  0  0  0  0  0  0  0
   -7.3011    0.4889   -0.0000 C   0  0  0  0  0  0  0  0  0  0  0  0
   -8.6465   -0.2395    0.0000 C   0  0  0  0  0  0  0  0  0  0  0  0
   -9.7818    0.7863   -0.0000 C   0  0  0  0  0  0  0  0  0  0  0  0
   10.0465    1.3280    0.8900 H   0  0  0  0  0  0  0  0  0  0  0  0
   11.0157    0.1293   -0.0000 H   0  0  0  0  0  0  0  0  0  0  0  0
   10.0465    1.3280   -0.8900 H   0  0  0  0  0  0  0  0  0  0  0  0
    8.9378   -0.8900   -0.8900 H   0  0  0  0  0  0  0  0  0  0  0  0
    8.9378   -0.8900    0.8900 H   0  0  0  0  0  0  0  0  0  0  0  0
    7.5532    1.1671    0.8900 H   0  0  0  0  0  0  0  0  0  0  0  0
    7.5532    1.1671   -0.8900 H   0  0  0  0  0  0  0  0  0  0  0  0
    6.4445   -1.0509   -0.8900 H   0  0  0  0  0  0  0  0  0  0  0  0
    6.4445   -1.0509    0.8900 H   0  0  0  0  0  0  0  0  0  0  0  0
    5.0599    1.0061    0.8900 H   0  0  0  0  0  0  0  0  0  0  0  0
    5.0599    1.0061   -0.8900 H   0  0  0  0  0  0  0  0  0  0  0  0
    3.9512   -1.2119   -0.8900 H   0  0  0  0  0  0  0  0  0  0  0  0
    3.9512   -1.2119    0.8900 H   0  0  0  0  0  0  0  0  0  0  0  0
    2.5666    0.8452    0.8900 H   0  0  0  0  0  0  0  0  0  0  0  0
    2.5666    0.8452   -0.8900 H   0  0  0  0  0  0  0  0  0  0  0  0
    1.4579   -1.3728   -0.8900 H   0  0  0  0  0  0  0  0  0  0  0  0
    1.4579   -1.3728    0.8900 H   0  0  0  0  0  0  0  0  0  0  0  0
    0.0733    0.6842    0.8900 H   0  0  0  0  0  0  0  0  0  0  0  0
    0.0733    0.6842   -0.8900 H   0  0  0  0  0  0  0  0  0  0  0  0
   -1.0353   -1.5338   -0.8900 H   0  0  0  0  0  0  0  0  0  0  0  0
   -1.0353   -1.5338    0.8900 H   0  0  0  0  0  0  0  0  0  0  0  0
   -3.7600   -1.4590   -0.8900 H   0  0  0  0  0  0  0  0  0  0  0  0
   -3.7600   -1.4590    0.8900 H   0  0  0  0  0  0  0  0  0  0  0  0
   -4.7454    0.8164    0.8900 H   0  0  0  0  0  0  0  0  0  0  0  0
   -4.7454    0.8164   -0.8900 H   0  0  0  0  0  0  0  0  0  0  0  0
   -6.2407   -1.1617   -0.8900 H   0  0  0  0  0  0  0  0  0  0  0  0
   -6.2407   -1.1617    0.8900 H   0  0  0  0  0  0  0  0  0  0  0  0
   -7.2262    1.1138    0.8900 H   0  0  0  0  0  0  0  0  0  0  0  0
   -7.2262    1.1138   -0.8900 H   0  0  0  0  0  0  0  0  0  0  0  0
   -8.7214   -0.8643   -0.8900 H   0  0  0  0  0  0  0  0  0  0  0  0
   -8.7214   -0.8643    0.8900 H   0  0  0  0  0  0  0  0  0  0  0  0
  -10.7403    0.2674   -0.0000 H   0  0  0  0  0  0  0  0  0  0  0  0
   -9.7069    1.4111    0.8900 H   0  0  0  0  0  0  0  0  0  0  0  0
   -9.7069    1.4111   -0.8900 H   0  0  0  0  0  0  0  0  0  0  0  0
  1  2  1  0  0  0  0
  2  3  1  0  0  0  0
  3  4  1  0  0  0  0
  4  5  1  0  0  0  0
  5  6  1  0  0  0  0
  6  7  1  0  0  0  0
  7  8  1  0  0  0  0
  8  9  1  0  0  0  0
  9 10  1  0  0  0  0
 10 11  1  0  0  0  0
 11 12  2  0  0  0  0
 11 13  1  0  0  0  0
 13 14  1  0  0  0  0
 14 15  1  0  0  0  0
 15 16  1  0  0  0  0
 16 17  1  0  0  0  0
 17 18  1  0  0  0  0
  1 19  1  0  0  0  0
  1 20  1  0  0  0  0
  1 21  1  0  0  0  0
  2 22  1  0  0  0  0
  2 23  1  0  0  0  0
  3 24  1  0  0  0  0
  3 25  1  0  0  0  0
  4 26  1  0  0  0  0
  4 27  1  0  0  0  0
  5 28  1  0  0  0  0
  5 29  1  0  0  0  0
  6 30  1  0  0  0  0
  6 31  1  0  0  0  0
  7 32  1  0  0  0  0
  7 33  1  0  0  0  0
  8 34  1  0  0  0  0
  8 35  1  0  0  0  0
  9 36  1  0  0  0  0
  9 37  1  0  0  0  0
 10 38  1  0  0  0  0
 10 39  1  0  0  0  0
 13 40  1  0  0  0  0
 13 41  1  0  0  0  0
 14 42  1  0  0  0  0
 14 43  1  0  0  0  0
 15 44  1  0  0  0  0
 15 45  1  0  0  0  0
 16 46  1  0  0  0  0
 16 47  1  0  0  0  0
 17 48  1  0  0  0  0
 17 49  1  0  0  0  0
 18 50  1  0  0  0  0
 18 51  1  0  0  0  0
 18 52  1  0  0  0  0
M  END
$$$$
