C15H30O
APtclcactv06211806473D 0   0.00000     0.00000
 
 46 45  0  0  0  0  0  0  0  0999 V2000
    8.7733   -0.6756   -0.0000 C   0  0  0  0  0  0  0  0  0  0  0  0
    7.5956    0.3010    0.0000 C   0  0  0  0  0  0  0  0  0  0  0  0
    6.2822   -0.4838   -0.0000 C   0  0  0  0  0  0  0  0  0  0  0  0
    5.1045    0.4928    0.0000 C   0  0  0  0  0  0  0  0  0  0  0  0
    3.7911   -0.2920   -0.0000 C   0  0  0  0  0  0  0  0  0  0  0  0
    2.6134    0.6846    0.0000 C   0  0  0  0  0  0  0  0  0  0  0  0
    1.3000   -0.1002   -0.0000 C   0  0  0  0  0  0  0  0  0  0  0  0
    0.1223    0.8764   -0.0000 C   0  0  0  0  0  0  0  0  0  0  0  0
   -1.1714    0.1034   -0.0000 C   0  0  0  0  0  0  0  0  0  0  0  0
   -1.1532   -1.1041   -0.0000 O   0  0  0  0  0  0  0  0  0  0  0  0
   -2.4877    0.8372   -0.0000 C   0  0  0  0  0  0  0  0  0  0  0  0
   -3.6355   -0.1744    0.0000 C   0  0  0  0  0  0  0  0  0  0  0  0
   -4.9719    0.5706   -0.0000 C   0  0  0  0  0  0  0  0  0  0  0  0
   -6.1197   -0.4410    0.0000 C   0  0  0  0  0  0  0  0  0  0  0  0
   -7.4561    0.3040   -0.0000 C   0  0  0  0  0  0  0  0  0  0  0  0
   -8.6039   -0.7076    0.0000 C   0  0  0  0  0  0  0  0  0  0  0  0
    9.7090   -0.1165    0.0000 H   0  0  0  0  0  0  0  0  0  0  0  0
    8.7250   -1.3031    0.8900 H   0  0  0  0  0  0  0  0  0  0  0  0
    8.7250   -1.3031   -0.8900 H   0  0  0  0  0  0  0  0  0  0  0  0
    7.6439    0.9285    0.8900 H   0  0  0  0  0  0  0  0  0  0  0  0
    7.6439    0.9285   -0.8900 H   0  0  0  0  0  0  0  0  0  0  0  0
    6.2339   -1.1113   -0.8900 H   0  0  0  0  0  0  0  0  0  0  0  0
    6.2339   -1.1113    0.8900 H   0  0  0  0  0  0  0  0  0  0  0  0
    5.1528    1.1203    0.8900 H   0  0  0  0  0  0  0  0  0  0  0  0
    5.1528    1.1203   -0.8900 H   0  0  0  0  0  0  0  0  0  0  0  0
    3.7428   -0.9195   -0.8900 H   0  0  0  0  0  0  0  0  0  0  0  0
    3.7428   -0.9195    0.8900 H   0  0  0  0  0  0  0  0  0  0  0  0
    2.6617    1.3121    0.8900 H   0  0  0  0  0  0  0  0  0  0  0  0
    2.6617    1.3121   -0.8900 H   0  0  0  0  0  0  0  0  0  0  0  0
    1.2517   -0.7277   -0.8900 H   0  0  0  0  0  0  0  0  0  0  0  0
    1.2517   -0.7277    0.8900 H   0  0  0  0  0  0  0  0  0  0  0  0
    0.1706    1.5039    0.8900 H   0  0  0  0  0  0  0  0  0  0  0  0
    0.1706    1.5039   -0.8900 H   0  0  0  0  0  0  0  0  0  0  0  0
   -2.5548    1.4629    0.8900 H   0  0  0  0  0  0  0  0  0  0  0  0
   -2.5548    1.4629   -0.8900 H   0  0  0  0  0  0  0  0  0  0  0  0
   -3.5683   -0.8001   -0.8900 H   0  0  0  0  0  0  0  0  0  0  0  0
   -3.5683   -0.8001    0.8900 H   0  0  0  0  0  0  0  0  0  0  0  0
   -5.0390    1.1963    0.8900 H   0  0  0  0  0  0  0  0  0  0  0  0
   -5.0390    1.1963   -0.8900 H   0  0  0  0  0  0  0  0  0  0  0  0
   -6.0526   -1.0667   -0.8900 H   0  0  0  0  0  0  0  0  0  0  0  0
   -6.0526   -1.0667    0.8900 H   0  0  0  0  0  0  0  0  0  0  0  0
   -7.5232    0.9297    0.8900 H   0  0  0  0  0  0  0  0  0  0  0  0
   -7.5232    0.9297   -0.8900 H   0  0  0  0  0  0  0  0  0  0  0  0
   -8.5368   -1.3334   -0.8900 H   0  0  0  0  0  0  0  0  0  0  0  0
   -8.5368   -1.3334    0.8900 H   0  0  0  0  0  0  0  0  0  0  0  0
   -9.5560   -0.1769    0.0000 H   0  0  0  0  0  0  0  0  0  0  0  0
  1  2  1  0  0  0  0
  2  3  1  0  0  0  0
  3  4  1  0  0  0  0
  4  5  1  0  0  0  0
  5  6  1  0  0  0  0
  6  7  1  0  0  0  0
  7  8  1  0  0  0  0
  8  9  1  0  0  0  0
  9 10  2  0  0  0  0
  9 11  1  0  0  0  0
 11 12  1  0  0  0  0
 12 13  1  0  0  0  0
 13 14  1  0  0  0  0
 14 15  1  0  0  0  0
 15 16  1  0  0  0  0
  1 17  1  0  0  0  0
  1 18  1  0  0  0  0
  1 19  1  0  0  0  0
  2 20  1  0  0  0  0
  2 21  1  0  0  0  0
  3 22  1  0  0  0  0
  3 23  1  0  0  0  0
  4 24  1  0  0  0  0
  4 25  1  0  0  0  0
  5 26  1  0  0  0  0
  5 27  1  0  0  0  0
  6 28  1  0  0  0  0
  6 29  1  0  0  0  0
  7 30  1  0  0  0  0
  7 31  1  0  0  0  0
  8 32  1  0  0  0  0
  8 33  1  0  0  0  0
 11 34  1  0  0  0  0
 11 35  1  0  0  0  0
 12 36  1  0  0  0  0
 12 37  1  0  0  0  0
 13 38  1  0  0  0  0
 13 39  1  0  0  0  0
 14 40  1  0  0  0  0
 14 41  1  0  0  0  0
 15 42  1  0  0  0  0
 15 43  1  0  0  0  0
 16 44  1  0  0  0  0
 16 45  1  0  0  0  0
 16 46  1  0  0  0  0
M  END
$$$$
