C32H52O2
APtclcactv06211806473D 0   0.00000     0.00000
 
 86 90  0  0  0  0  0  0  0  0999 V2000
    6.5673   -2.5638    1.0299 C   0  0  0  0  0  0  0  0  0  0  0  0
    5.8039   -1.2350    1.0637 C   0  0  0  0  0  0  0  0  0  0  0  0
    6.5640   -0.1921    0.2511 C   0  0  0  0  0  0  0  0  0  0  0  0
    5.7945    1.1236    0.2045 C   0  0  0  0  0  0  0  0  0  0  0  0
    4.4168    0.9052   -0.4526 C   0  0  0  0  0  0  0  0  0  0  0  0
    3.6862    2.2436   -0.4626 C   0  0  0  0  0  0  0  0  0  0  0  0
    2.2092    2.1772   -0.1440 C   0  0  0  0  0  0  0  0  0  0  0  0
    1.5267    0.9125   -0.6334 C   0  0  0  0  0  0  0  0  0  0  0  0
    2.2213   -0.2874   -0.0654 C   0  0  0  0  0  0  0  0  0  0  0  0
    1.6115   -1.4197    0.2023 C   0  0  0  0  0  0  0  0  0  0  0  0
    0.1019   -1.4973    0.0092 C   0  0  0  0  0  0  0  0  0  0  0  0
   -0.3826   -0.1606    0.5659 C   0  0  0  0  0  0  0  0  0  0  0  0
    0.0204    0.9567   -0.3624 C   0  0  0  0  0  0  0  0  0  0  0  0
   -0.4451    2.3048    0.1440 C   0  0  0  0  0  0  0  0  0  0  0  0
   -1.9211    2.3197    0.5471 C   0  0  0  0  0  0  0  0  0  0  0  0
   -2.6083    0.9760    0.3755 C   0  0  0  0  0  0  0  0  0  0  0  0
   -1.8229   -0.1384    1.0404 C   0  0  0  0  0  0  0  0  0  0  0  0
   -2.5069   -1.4818    0.7737 C   0  0  0  0  0  0  0  0  0  0  0  0
   -3.9415   -1.4434    1.3007 C   0  0  0  0  0  0  0  0  0  0  0  0
   -4.7378   -0.3493    0.6043 C   0  0  0  0  0  0  0  0  0  0  0  0
   -4.0870    1.0273    0.7376 C   0  0  0  0  0  0  0  0  0  0  0  0
   -4.3597    1.6133    2.1183 C   0  0  0  0  0  0  0  0  0  0  0  0
   -4.7884    1.9456   -0.2942 C   0  0  0  0  0  0  0  0  0  0  0  0
   -4.8787   -0.6785   -0.8062 O   0  0  0  0  0  0  0  0  0  0  0  0
   -5.9522   -1.4031   -1.1586 C   0  0  0  0  0  0  0  0  0  0  0  0
   -6.7482   -1.7513   -0.3189 O   0  0  0  0  0  0  0  0  0  0  0  0
   -6.1649   -1.7823   -2.6015 C   0  0  0  0  0  0  0  0  0  0  0  0
   -1.7509    0.0618    2.5683 C   0  0  0  0  0  0  0  0  0  0  0  0
   -0.5585    0.7417   -1.7643 C   0  0  0  0  0  0  0  0  0  0  0  0
    3.6683   -0.1360    0.3444 C   0  0  0  0  0  0  0  0  0  0  0  0
    4.3922   -1.4538    0.5175 C   0  0  0  0  0  0  0  0  0  0  0  0
    4.4427   -2.3185   -0.7354 C   0  0  0  0  0  0  0  0  0  0  0  0
    1.6187    0.8634   -2.1630 C   0  0  0  0  0  0  0  0  0  0  0  0
    4.6804    0.5032   -1.9033 C   0  0  0  0  0  0  0  0  0  0  0  0
    7.5603   -2.4233    1.4568 H   0  0  0  0  0  0  0  0  0  0  0  0
    6.0244   -3.3096    1.6106 H   0  0  0  0  0  0  0  0  0  0  0  0
    6.6600   -2.9035   -0.0017 H   0  0  0  0  0  0  0  0  0  0  0  0
    5.7311   -0.8980    2.1028 H   0  0  0  0  0  0  0  0  0  0  0  0
    7.5349   -0.0109    0.7358 H   0  0  0  0  0  0  0  0  0  0  0  0
    6.7661   -0.5612   -0.7501 H   0  0  0  0  0  0  0  0  0  0  0  0
    5.6473    1.4995    1.2158 H   0  0  0  0  0  0  0  0  0  0  0  0
    6.3502    1.8557   -0.3815 H   0  0  0  0  0  0  0  0  0  0  0  0
    4.1744    2.8950    0.2696 H   0  0  0  0  0  0  0  0  0  0  0  0
    3.8203    2.6973   -1.4475 H   0  0  0  0  0  0  0  0  0  0  0  0
    2.0778    2.2573    0.9406 H   0  0  0  0  0  0  0  0  0  0  0  0
    1.7204    3.0464   -0.6007 H   0  0  0  0  0  0  0  0  0  0  0  0
    2.1407   -2.2784    0.5731 H   0  0  0  0  0  0  0  0  0  0  0  0
   -0.1429   -1.6425   -1.0295 H   0  0  0  0  0  0  0  0  0  0  0  0
   -0.2867   -2.3227    0.6096 H   0  0  0  0  0  0  0  0  0  0  0  0
    0.2250    0.0009    1.4977 H   0  0  0  0  0  0  0  0  0  0  0  0
    0.1584    2.6009    1.0106 H   0  0  0  0  0  0  0  0  0  0  0  0
   -0.2930    3.0604   -0.6382 H   0  0  0  0  0  0  0  0  0  0  0  0
   -1.9905    2.6570    1.5868 H   0  0  0  0  0  0  0  0  0  0  0  0
   -2.4255    3.0754   -0.0697 H   0  0  0  0  0  0  0  0  0  0  0  0
   -2.6473    0.7551   -0.7143 H   0  0  0  0  0  0  0  0  0  0  0  0
   -2.5168   -1.6825   -0.2960 H   0  0  0  0  0  0  0  0  0  0  0  0
   -1.9628   -2.2760    1.2869 H   0  0  0  0  0  0  0  0  0  0  0  0
   -4.4151   -2.4125    1.0833 H   0  0  0  0  0  0  0  0  0  0  0  0
   -3.9599   -1.3063    2.3762 H   0  0  0  0  0  0  0  0  0  0  0  0
   -5.7418   -0.3031    1.0435 H   0  0  0  0  0  0  0  0  0  0  0  0
   -4.0159    0.9168    2.8830 H   0  0  0  0  0  0  0  0  0  0  0  0
   -3.8282    2.5592    2.2230 H   0  0  0  0  0  0  0  0  0  0  0  0
   -5.4299    1.7829    2.2361 H   0  0  0  0  0  0  0  0  0  0  0  0
   -5.8542    1.9948   -0.0714 H   0  0  0  0  0  0  0  0  0  0  0  0
   -4.3594    2.9462   -0.2408 H   0  0  0  0  0  0  0  0  0  0  0  0
   -4.6450    1.5418   -1.2965 H   0  0  0  0  0  0  0  0  0  0  0  0
   -5.3201   -2.3770   -2.9492 H   0  0  0  0  0  0  0  0  0  0  0  0
   -7.0815   -2.3650   -2.6928 H   0  0  0  0  0  0  0  0  0  0  0  0
   -6.2467   -0.8791   -3.2063 H   0  0  0  0  0  0  0  0  0  0  0  0
   -2.7391   -0.0922    3.0018 H   0  0  0  0  0  0  0  0  0  0  0  0
   -1.0507   -0.6557    2.9962 H   0  0  0  0  0  0  0  0  0  0  0  0
   -1.4122    1.0745    2.7865 H   0  0  0  0  0  0  0  0  0  0  0  0
   -1.6470    0.7250   -1.7092 H   0  0  0  0  0  0  0  0  0  0  0  0
   -0.2401    1.5542   -2.4174 H   0  0  0  0  0  0  0  0  0  0  0  0
   -0.2003   -0.2072   -2.1636 H   0  0  0  0  0  0  0  0  0  0  0  0
    3.6071    0.2963    1.3919 H   0  0  0  0  0  0  0  0  0  0  0  0
    3.8459   -2.0375    1.2891 H   0  0  0  0  0  0  0  0  0  0  0  0
    5.0697   -1.8358   -1.4850 H   0  0  0  0  0  0  0  0  0  0  0  0
    4.8597   -3.2944   -0.4867 H   0  0  0  0  0  0  0  0  0  0  0  0
    3.4348   -2.4442   -1.1310 H   0  0  0  0  0  0  0  0  0  0  0  0
    2.6663    0.8498   -2.4637 H   0  0  0  0  0  0  0  0  0  0  0  0
    1.1242   -0.0368   -2.5280 H   0  0  0  0  0  0  0  0  0  0  0  0
    1.1309    1.7422   -2.5847 H   0  0  0  0  0  0  0  0  0  0  0  0
    5.6120   -0.0597   -1.9608 H   0  0  0  0  0  0  0  0  0  0  0  0
    3.8589   -0.1159   -2.2638 H   0  0  0  0  0  0  0  0  0  0  0  0
    4.7583    1.3986   -2.5200 H   0  0  0  0  0  0  0  0  0  0  0  0
  1  2  1  0  0  0  0
  2  3  1  0  0  0  0
  3  4  1  0  0  0  0
  4  5  1  0  0  0  0
  5  6  1  0  0  0  0
  6  7  1  0  0  0  0
  7  8  1  0  0  0  0
  8  9  1  0  0  0  0
  9 10  2  0  0  0  0
 10 11  1  0  0  0  0
 11 12  1  0  0  0  0
 12 13  1  0  0  0  0
  8 13  1  0  0  0  0
 13 14  1  0  0  0  0
 14 15  1  0  0  0  0
 15 16  1  0  0  0  0
 16 17  1  0  0  0  0
 12 17  1  0  0  0  0
 17 18  1  0  0  0  0
 18 19  1  0  0  0  0
 19 20  1  0  0  0  0
 20 21  1  0  0  0  0
 16 21  1  0  0  0  0
 21 22  1  0  0  0  0
 21 23  1  0  0  0  0
 20 24  1  0  0  0  0
 24 25  1  0  0  0  0
 25 26  2  0  0  0  0
 25 27  1  0  0  0  0
 17 28  1  0  0  0  0
 13 29  1  0  0  0  0
  9 30  1  0  0  0  0
  5 30  1  0  0  0  0
 30 31  1  0  0  0  0
  2 31  1  0  0  0  0
 31 32  1  0  0  0  0
  8 33  1  0  0  0  0
  5 34  1  0  0  0  0
  1 35  1  0  0  0  0
  1 36  1  0  0  0  0
  1 37  1  0  0  0  0
  2 38  1  0  0  0  0
  3 39  1  0  0  0  0
  3 40  1  0  0  0  0
  4 41  1  0  0  0  0
  4 42  1  0  0  0  0
  6 43  1  0  0  0  0
  6 44  1  0  0  0  0
  7 45  1  0  0  0  0
  7 46  1  0  0  0  0
 10 47  1  0  0  0  0
 11 48  1  0  0  0  0
 11 49  1  0  0  0  0
 12 50  1  0  0  0  0
 14 51  1  0  0  0  0
 14 52  1  0  0  0  0
 15 53  1  0  0  0  0
 15 54  1  0  0  0  0
 16 55  1  0  0  0  0
 18 56  1  0  0  0  0
 18 57  1  0  0  0  0
 19 58  1  0  0  0  0
 19 59  1  0  0  0  0
 20 60  1  0  0  0  0
 22 61  1  0  0  0  0
 22 62  1  0  0  0  0
 22 63  1  0  0  0  0
 23 64  1  0  0  0  0
 23 65  1  0  0  0  0
 23 66  1  0  0  0  0
 27 67  1  0  0  0  0
 27 68  1  0  0  0  0
 27 69  1  0  0  0  0
 28 70  1  0  0  0  0
 28 71  1  0  0  0  0
 28 72  1  0  0  0  0
 29 73  1  0  0  0  0
 29 74  1  0  0  0  0
 29 75  1  0  0  0  0
 30 76  1  0  0  0  0
 31 77  1  0  0  0  0
 32 78  1  0  0  0  0
 32 79  1  0  0  0  0
 32 80  1  0  0  0  0
 33 81  1  0  0  0  0
 33 82  1  0  0  0  0
 33 83  1  0  0  0  0
 34 84  1  0  0  0  0
 34 85  1  0  0  0  0
 34 86  1  0  0  0  0
M  END
$$$$
