C17H15ClN2O2S
APtclcactv06281816293D 0   0.00000     0.00000
 
 38 40  0  0  0  0  0  0  0  0999 V2000
    7.4125    0.1444   -1.5602 C   0  0  0  0  0  0  0  0  0  0  0  0
    6.3918   -0.5473   -0.6545 C   0  0  0  0  0  0  0  0  0  0  0  0
    5.2114    0.2536   -0.5684 O   0  0  0  0  0  0  0  0  0  0  0  0
    4.2055   -0.2180    0.1981 C   0  0  0  0  0  0  0  0  0  0  0  0
    4.3288   -1.2812    0.7773 O   0  0  0  0  0  0  0  0  0  0  0  0
    3.0087    0.5231    0.3280 C   0  0  0  0  0  0  0  0  0  0  0  0
    1.9642    0.0044    1.0074 C   0  0  0  0  0  0  0  0  0  0  0  0
    2.0980   -1.3330    1.6891 C   0  0  0  0  0  0  0  0  0  0  0  0
    0.7822    0.6936    1.0772 N   0  0  0  0  0  0  0  0  0  0  0  0
   -0.3893    0.1047    0.6351 C   0  0  0  0  0  0  0  0  0  0  0  0
   -1.5392    0.6882    0.5905 N   0  0  0  0  0  0  0  0  0  0  0  0
   -2.5827   -0.0131    0.1374 C   0  0  0  0  0  0  0  0  0  0  0  0
   -2.2532   -1.3146   -0.2301 C   0  0  0  0  0  0  0  0  0  0  0  0
   -0.5270   -1.5460    0.0447 S   0  0  0  0  0  0  0  0  0  0  0  0
   -3.2302   -2.1899   -0.7276 C   0  0  0  0  0  0  0  0  0  0  0  0
   -4.5233   -1.8151   -0.8720 C   0  0  0  0  0  0  0  0  0  0  0  0
   -4.9334   -0.5138   -0.5219 C   0  0  0  0  0  0  0  0  0  0  0  0
   -6.2711   -0.1104   -0.6673 C   0  0  0  0  0  0  0  0  0  0  0  0
   -6.6334    1.1564   -0.3193 C   0  0  0  0  0  0  0  0  0  0  0  0
   -5.6981    2.0587    0.1781 C   0  0  0  0  0  0  0  0  0  0  0  0
   -4.3910    1.6983    0.3309 C   0  0  0  0  0  0  0  0  0  0  0  0
   -3.9876    0.4047   -0.0168 C   0  0  0  0  0  0  0  0  0  0  0  0
    2.8826    2.1003   -0.3862 Cl  0  0  0  0  0  0  0  0  0  0  0  0
    7.6649    1.1199   -1.1446 H   0  0  0  0  0  0  0  0  0  0  0  0
    8.3128   -0.4665   -1.6259 H   0  0  0  0  0  0  0  0  0  0  0  0
    6.9870    0.2726   -2.5555 H   0  0  0  0  0  0  0  0  0  0  0  0
    6.1394   -1.5228   -1.0701 H   0  0  0  0  0  0  0  0  0  0  0  0
    6.8172   -0.6755    0.3408 H   0  0  0  0  0  0  0  0  0  0  0  0
    2.8823   -1.2790    2.4441 H   0  0  0  0  0  0  0  0  0  0  0  0
    1.1529   -1.5944    2.1650 H   0  0  0  0  0  0  0  0  0  0  0  0
    2.3556   -2.0928    0.9512 H   0  0  0  0  0  0  0  0  0  0  0  0
    0.7666    1.5944    1.4366 H   0  0  0  0  0  0  0  0  0  0  0  0
   -2.9420   -3.1934   -1.0042 H   0  0  0  0  0  0  0  0  0  0  0  0
   -5.2454   -2.5189   -1.2588 H   0  0  0  0  0  0  0  0  0  0  0  0
   -7.0078   -0.7998   -1.0527 H   0  0  0  0  0  0  0  0  0  0  0  0
   -7.6623    1.4650   -0.4317 H   0  0  0  0  0  0  0  0  0  0  0  0
   -6.0107    3.0571    0.4462 H   0  0  0  0  0  0  0  0  0  0  0  0
   -3.6731    2.4064    0.7177 H   0  0  0  0  0  0  0  0  0  0  0  0
  1  2  1  0  0  0  0
  2  3  1  0  0  0  0
  3  4  1  0  0  0  0
  4  5  2  0  0  0  0
  4  6  1  0  0  0  0
  6  7  2  0  0  0  0
  7  8  1  0  0  0  0
  7  9  1  0  0  0  0
  9 10  1  0  0  0  0
 10 11  2  0  0  0  0
 11 12  1  0  0  0  0
 12 13  2  0  0  0  0
 13 14  1  0  0  0  0
 10 14  1  0  0  0  0
 13 15  1  0  0  0  0
 15 16  2  0  0  0  0
 16 17  1  0  0  0  0
 17 18  2  0  0  0  0
 18 19  1  0  0  0  0
 19 20  2  0  0  0  0
 20 21  1  0  0  0  0
 21 22  2  0  0  0  0
 17 22  1  0  0  0  0
 12 22  1  0  0  0  0
  6 23  1  0  0  0  0
  1 24  1  0  0  0  0
  1 25  1  0  0  0  0
  1 26  1  0  0  0  0
  2 27  1  0  0  0  0
  2 28  1  0  0  0  0
  8 29  1  0  0  0  0
  8 30  1  0  0  0  0
  8 31  1  0  0  0  0
  9 32  1  0  0  0  0
 15 33  1  0  0  0  0
 16 34  1  0  0  0  0
 18 35  1  0  0  0  0
 19 36  1  0  0  0  0
 20 37  1  0  0  0  0
 21 38  1  0  0  0  0
M  END
$$$$
