C16H13ClN2O
APtclcactv06211804343D 0   0.00000     0.00000
 
 33 35  0  0  0  0  0  0  0  0999 V2000
   -3.2848    0.9603    1.6701 C   0  0  0  0  0  0  0  0  0  0  0  0
   -2.4208    0.9435    0.4871 N   0  0  0  0  0  0  0  0  0  0  0  0
   -2.3913    2.0404   -0.2665 C   0  0  0  0  0  0  0  0  0  0  0  0
   -3.1080    2.9751    0.0226 O   0  0  0  0  0  0  0  0  0  0  0  0
   -1.4917    2.1508   -1.4671 C   0  0  0  0  0  0  0  0  0  0  0  0
   -0.0999    2.0771   -1.0243 N   0  0  0  0  0  0  0  0  0  0  0  0
    0.3792    1.0239   -0.4635 C   0  0  0  0  0  0  0  0  0  0  0  0
   -0.3780   -0.2110   -0.2058 C   0  0  0  0  0  0  0  0  0  0  0  0
   -1.6937   -0.2118    0.2433 C   0  0  0  0  0  0  0  0  0  0  0  0
   -2.3425   -1.4292    0.4604 C   0  0  0  0  0  0  0  0  0  0  0  0
   -1.6915   -2.6221    0.2363 C   0  0  0  0  0  0  0  0  0  0  0  0
   -0.3790   -2.6248   -0.2096 C   0  0  0  0  0  0  0  0  0  0  0  0
    0.2767   -1.4329   -0.4247 C   0  0  0  0  0  0  0  0  0  0  0  0
    0.4394   -4.1300   -0.4895 Cl  0  0  0  0  0  0  0  0  0  0  0  0
    1.8002    1.0561   -0.0458 C   0  0  0  0  0  0  0  0  0  0  0  0
    2.6910    1.9353   -0.6611 C   0  0  0  0  0  0  0  0  0  0  0  0
    4.0133    1.9610   -0.2675 C   0  0  0  0  0  0  0  0  0  0  0  0
    4.4559    1.1170    0.7354 C   0  0  0  0  0  0  0  0  0  0  0  0
    3.5770    0.2427    1.3495 C   0  0  0  0  0  0  0  0  0  0  0  0
    2.2513    0.2114    0.9682 C   0  0  0  0  0  0  0  0  0  0  0  0
   -3.7881    1.9247    1.7388 H   0  0  0  0  0  0  0  0  0  0  0  0
   -4.0283    0.1675    1.5883 H   0  0  0  0  0  0  0  0  0  0  0  0
   -2.6808    0.8012    2.5634 H   0  0  0  0  0  0  0  0  0  0  0  0
   -1.6996    1.3318   -2.1557 H   0  0  0  0  0  0  0  0  0  0  0  0
   -1.6657    3.1036   -1.9673 H   0  0  0  0  0  0  0  0  0  0  0  0
   -3.3650   -1.4354    0.8078 H   0  0  0  0  0  0  0  0  0  0  0  0
   -2.2044   -3.5568    0.4086 H   0  0  0  0  0  0  0  0  0  0  0  0
    1.2991   -1.4391   -0.7727 H   0  0  0  0  0  0  0  0  0  0  0  0
    2.3467    2.5944   -1.4444 H   0  0  0  0  0  0  0  0  0  0  0  0
    4.7041    2.6412   -0.7434 H   0  0  0  0  0  0  0  0  0  0  0  0
    5.4918    1.1405    1.0399 H   0  0  0  0  0  0  0  0  0  0  0  0
    3.9285   -0.4140    2.1315 H   0  0  0  0  0  0  0  0  0  0  0  0
    1.5661   -0.4715    1.4483 H   0  0  0  0  0  0  0  0  0  0  0  0
  1  2  1  0  0  0  0
  2  3  1  0  0  0  0
  3  4  2  0  0  0  0
  3  5  1  0  0  0  0
  5  6  1  0  0  0  0
  6  7  2  0  0  0  0
  7  8  1  0  0  0  0
  8  9  2  0  0  0  0
  2  9  1  0  0  0  0
  9 10  1  0  0  0  0
 10 11  2  0  0  0  0
 11 12  1  0  0  0  0
 12 13  2  0  0  0  0
  8 13  1  0  0  0  0
 12 14  1  0  0  0  0
  7 15  1  0  0  0  0
 15 16  2  0  0  0  0
 16 17  1  0  0  0  0
 17 18  2  0  0  0  0
 18 19  1  0  0  0  0
 19 20  2  0  0  0  0
 15 20  1  0  0  0  0
  1 21  1  0  0  0  0
  1 22  1  0  0  0  0
  1 23  1  0  0  0  0
  5 24  1  0  0  0  0
  5 25  1  0  0  0  0
 10 26  1  0  0  0  0
 11 27  1  0  0  0  0
 13 28  1  0  0  0  0
 16 29  1  0  0  0  0
 17 30  1  0  0  0  0
 18 31  1  0  0  0  0
 19 32  1  0  0  0  0
 20 33  1  0  0  0  0
M  END
$$$$
