C16H22O4
APtclcactv06211804343D 0   0.00000     0.00000
 
 42 42  0  0  0  0  0  0  0  0999 V2000
    6.5694    2.6758    0.8972 C   0  0  0  0  0  0  0  0  0  0  0  0
    5.3380    2.4678    0.0133 C   0  0  0  0  0  0  0  0  0  0  0  0
    4.5741    1.2294    0.4862 C   0  0  0  0  0  0  0  0  0  0  0  0
    3.3427    1.0214   -0.3977 C   0  0  0  0  0  0  0  0  0  0  0  0
    2.6177   -0.1539    0.0511 O   0  0  0  0  0  0  0  0  0  0  0  0
    1.4997   -0.4785   -0.6265 C   0  0  0  0  0  0  0  0  0  0  0  0
    1.1402    0.2015   -1.5664 O   0  0  0  0  0  0  0  0  0  0  0  0
    0.7101   -1.6626   -0.2260 C   0  0  0  0  0  0  0  0  0  0  0  0
    1.3197   -2.9102   -0.1275 C   0  0  0  0  0  0  0  0  0  0  0  0
    0.5772   -4.0147    0.2474 C   0  0  0  0  0  0  0  0  0  0  0  0
   -0.7719   -3.8897    0.5260 C   0  0  0  0  0  0  0  0  0  0  0  0
   -1.3946   -2.6586    0.4335 C   0  0  0  0  0  0  0  0  0  0  0  0
   -0.6619   -1.5342    0.0637 C   0  0  0  0  0  0  0  0  0  0  0  0
   -1.3228   -0.2155   -0.0362 C   0  0  0  0  0  0  0  0  0  0  0  0
   -0.6614    0.7808   -0.2477 O   0  0  0  0  0  0  0  0  0  0  0  0
   -2.6587   -0.1191    0.1074 O   0  0  0  0  0  0  0  0  0  0  0  0
   -3.2396    1.2070   -0.0029 C   0  0  0  0  0  0  0  0  0  0  0  0
   -4.7551    1.1174    0.1868 C   0  0  0  0  0  0  0  0  0  0  0  0
   -5.3672    2.5148    0.0706 C   0  0  0  0  0  0  0  0  0  0  0  0
   -6.8828    2.4252    0.2603 C   0  0  0  0  0  0  0  0  0  0  0  0
    6.2549    2.8159    1.9313 H   0  0  0  0  0  0  0  0  0  0  0  0
    7.2170    1.8017    0.8296 H   0  0  0  0  0  0  0  0  0  0  0  0
    7.1136    3.5581    0.5603 H   0  0  0  0  0  0  0  0  0  0  0  0
    4.6904    3.3420    0.0808 H   0  0  0  0  0  0  0  0  0  0  0  0
    5.6526    2.3277   -1.0209 H   0  0  0  0  0  0  0  0  0  0  0  0
    5.2217    0.3552    0.4186 H   0  0  0  0  0  0  0  0  0  0  0  0
    4.2595    1.3695    1.5204 H   0  0  0  0  0  0  0  0  0  0  0  0
    2.6951    1.8955   -0.3301 H   0  0  0  0  0  0  0  0  0  0  0  0
    3.6572    0.8813   -1.4319 H   0  0  0  0  0  0  0  0  0  0  0  0
    2.3725   -3.0154   -0.3442 H   0  0  0  0  0  0  0  0  0  0  0  0
    1.0535   -4.9811    0.3228 H   0  0  0  0  0  0  0  0  0  0  0  0
   -1.3425   -4.7591    0.8172 H   0  0  0  0  0  0  0  0  0  0  0  0
   -2.4483   -2.5686    0.6522 H   0  0  0  0  0  0  0  0  0  0  0  0
   -2.8151    1.8546    0.7643 H   0  0  0  0  0  0  0  0  0  0  0  0
   -3.0205    1.6189   -0.9880 H   0  0  0  0  0  0  0  0  0  0  0  0
   -5.1797    0.4699   -0.5803 H   0  0  0  0  0  0  0  0  0  0  0  0
   -4.9743    0.7055    1.1720 H   0  0  0  0  0  0  0  0  0  0  0  0
   -4.9427    3.1624    0.8378 H   0  0  0  0  0  0  0  0  0  0  0  0
   -5.1481    2.9267   -0.9145 H   0  0  0  0  0  0  0  0  0  0  0  0
   -7.3188    3.4207    0.1776 H   0  0  0  0  0  0  0  0  0  0  0  0
   -7.3073    1.7776   -0.5068 H   0  0  0  0  0  0  0  0  0  0  0  0
   -7.1019    2.0133    1.2455 H   0  0  0  0  0  0  0  0  0  0  0  0
  1  2  1  0  0  0  0
  2  3  1  0  0  0  0
  3  4  1  0  0  0  0
  4  5  1  0  0  0  0
  5  6  1  0  0  0  0
  6  7  2  0  0  0  0
  6  8  1  0  0  0  0
  8  9  2  0  0  0  0
  9 10  1  0  0  0  0
 10 11  2  0  0  0  0
 11 12  1  0  0  0  0
 12 13  2  0  0  0  0
  8 13  1  0  0  0  0
 13 14  1  0  0  0  0
 14 15  2  0  0  0  0
 14 16  1  0  0  0  0
 16 17  1  0  0  0  0
 17 18  1  0  0  0  0
 18 19  1  0  0  0  0
 19 20  1  0  0  0  0
  1 21  1  0  0  0  0
  1 22  1  0  0  0  0
  1 23  1  0  0  0  0
  2 24  1  0  0  0  0
  2 25  1  0  0  0  0
  3 26  1  0  0  0  0
  3 27  1  0  0  0  0
  4 28  1  0  0  0  0
  4 29  1  0  0  0  0
  9 30  1  0  0  0  0
 10 31  1  0  0  0  0
 11 32  1  0  0  0  0
 12 33  1  0  0  0  0
 17 34  1  0  0  0  0
 17 35  1  0  0  0  0
 18 36  1  0  0  0  0
 18 37  1  0  0  0  0
 19 38  1  0  0  0  0
 19 39  1  0  0  0  0
 20 40  1  0  0  0  0
 20 41  1  0  0  0  0
 20 42  1  0  0  0  0
M  END
$$$$
