C6H14N2O3
APtclcactv06281816293D 0   0.00000     0.00000
 
 25 24  0  0  0  0  0  0  0  0999 V2000
    0.8870    0.2302   -0.6111 C   0  0  0  0  0  0  0  0  0  0  0  0
   -0.3685   -0.2653    0.1094 C   0  0  0  0  0  0  0  0  0  0  0  0
   -1.6110    0.2773   -0.5995 C   0  0  0  0  0  0  0  0  0  0  0  0
   -2.8467   -0.3084    0.0339 C   0  0  0  0  0  0  0  0  0  0  0  0
   -3.4798    0.3384    0.8343 O   0  0  0  0  0  0  0  0  0  0  0  0
   -3.2439   -1.5487   -0.2913 O   0  0  0  0  0  0  0  0  0  0  0  0
   -1.6447    1.7408   -0.4769 N   0  0  0  0  0  0  0  0  0  0  0  0
    2.1296   -0.3124    0.0978 C   0  0  0  0  0  0  0  0  0  0  0  0
    3.3795    0.0789   -0.6930 C   0  0  0  0  0  0  0  0  0  0  0  0
    4.5612   -0.5419   -0.0796 N   0  0  0  0  0  0  0  0  0  0  0  0
    2.2063    0.2394    1.4137 O   0  0  0  0  0  0  0  0  0  0  0  0
    0.8756   -0.1199   -1.6433 H   0  0  0  0  0  0  0  0  0  0  0  0
    0.9076    1.3200   -0.5973 H   0  0  0  0  0  0  0  0  0  0  0  0
   -0.3891   -1.3550    0.0956 H   0  0  0  0  0  0  0  0  0  0  0  0
   -0.3570    0.0848    1.1416 H   0  0  0  0  0  0  0  0  0  0  0  0
   -1.5775    0.0016   -1.6535 H   0  0  0  0  0  0  0  0  0  0  0  0
   -4.0424   -1.8813    0.1410 H   0  0  0  0  0  0  0  0  0  0  0  0
   -2.4211    2.1290   -0.9915 H   0  0  0  0  0  0  0  0  0  0  0  0
   -1.6761    2.0220    0.4916 H   0  0  0  0  0  0  0  0  0  0  0  0
    2.0657   -1.3986    0.1624 H   0  0  0  0  0  0  0  0  0  0  0  0
    3.2810   -0.2659   -1.7223 H   0  0  0  0  0  0  0  0  0  0  0  0
    3.4918    1.1630   -0.6822 H   0  0  0  0  0  0  0  0  0  0  0  0
    5.4005   -0.2984   -0.5841 H   0  0  0  0  0  0  0  0  0  0  0  0
    4.6383   -0.2887    0.8940 H   0  0  0  0  0  0  0  0  0  0  0  0
    2.2655    1.2044    1.4327 H   0  0  0  0  0  0  0  0  0  0  0  0
  1  2  1  0  0  0  0
  2  3  1  0  0  0  0
  3  4  1  0  0  0  0
  4  5  2  0  0  0  0
  4  6  1  0  0  0  0
  3  7  1  0  0  0  0
  1  8  1  0  0  0  0
  8  9  1  0  0  0  0
  9 10  1  0  0  0  0
  8 11  1  0  0  0  0
  1 12  1  0  0  0  0
  1 13  1  0  0  0  0
  2 14  1  0  0  0  0
  2 15  1  0  0  0  0
  3 16  1  0  0  0  0
  6 17  1  0  0  0  0
  7 18  1  0  0  0  0
  7 19  1  0  0  0  0
  8 20  1  0  0  0  0
  9 21  1  0  0  0  0
  9 22  1  0  0  0  0
 10 23  1  0  0  0  0
 10 24  1  0  0  0  0
 11 25  1  0  0  0  0
M  END
$$$$
