C15H22N4O2S2
APtclcactv06281816293D 0   0.00000     0.00000
 
 45 45  0  0  0  0  0  0  0  0999 V2000
   -6.5908   -0.7006   -1.3791 C   0  0  0  0  0  0  0  0  0  0  0  0
   -5.2692   -0.5571   -0.6693 C   0  0  0  0  0  0  0  0  0  0  0  0
   -5.2410   -0.0047    0.5265 N   0  0  0  0  0  0  0  0  0  0  0  0
   -4.0997    0.1401    1.1854 C   0  0  0  0  0  0  0  0  0  0  0  0
   -2.9261   -0.2969    0.6039 C   0  0  0  0  0  0  0  0  0  0  0  0
   -2.9911   -0.8780   -0.6645 C   0  0  0  0  0  0  0  0  0  0  0  0
   -4.1745   -0.9927   -1.2597 N   0  0  0  0  0  0  0  0  0  0  0  0
   -1.8416   -1.3322   -1.2903 N   0  0  0  0  0  0  0  0  0  0  0  0
   -1.6081   -0.1502    1.3197 C   0  0  0  0  0  0  0  0  0  0  0  0
   -0.9186    1.0472    0.8328 N   0  0  0  0  0  0  0  0  0  0  0  0
   -1.1708    2.2457    1.3953 C   0  0  0  0  0  0  0  0  0  0  0  0
   -0.5283    3.2194    1.0621 O   0  0  0  0  0  0  0  0  0  0  0  0
    0.0026    0.9464   -0.2172 C   0  0  0  0  0  0  0  0  0  0  0  0
    1.1557    0.3186   -0.0297 C   0  0  0  0  0  0  0  0  0  0  0  0
    1.4218   -0.3963    1.2699 C   0  0  0  0  0  0  0  0  0  0  0  0
    1.3712   -1.9081    1.0400 C   0  0  0  0  0  0  0  0  0  0  0  0
    1.4981   -2.5849    2.2921 O   0  0  0  0  0  0  0  0  0  0  0  0
    2.3766    0.3206   -1.3002 S   0  0  0  0  0  0  0  0  0  0  0  0
    3.9918    1.1916   -0.3863 S   0  0  0  0  0  0  0  0  0  0  0  0
    4.8042   -0.2103    0.4294 C   0  0  0  0  0  0  0  0  0  0  0  0
    5.3262   -1.1646   -0.6136 C   0  0  0  0  0  0  0  0  0  0  0  0
    6.6160   -1.3572   -0.7382 C   0  0  0  0  0  0  0  0  0  0  0  0
   -0.3164    1.5514   -1.5600 C   0  0  0  0  0  0  0  0  0  0  0  0
   -6.7788    0.1890   -1.9802 H   0  0  0  0  0  0  0  0  0  0  0  0
   -6.5624   -1.5771   -2.0263 H   0  0  0  0  0  0  0  0  0  0  0  0
   -7.3872   -0.8173   -0.6440 H   0  0  0  0  0  0  0  0  0  0  0  0
   -4.0880    0.5947    2.1650 H   0  0  0  0  0  0  0  0  0  0  0  0
   -0.9977   -1.3347   -0.8120 H   0  0  0  0  0  0  0  0  0  0  0  0
   -1.8806   -1.6478   -2.2067 H   0  0  0  0  0  0  0  0  0  0  0  0
   -1.7849   -0.0572    2.3912 H   0  0  0  0  0  0  0  0  0  0  0  0
   -0.9909   -1.0280    1.1281 H   0  0  0  0  0  0  0  0  0  0  0  0
   -1.9449    2.3392    2.1426 H   0  0  0  0  0  0  0  0  0  0  0  0
    2.4078   -0.1183    1.6424 H   0  0  0  0  0  0  0  0  0  0  0  0
    0.6644   -0.1146    2.0014 H   0  0  0  0  0  0  0  0  0  0  0  0
    0.4204   -2.1738    0.5781 H   0  0  0  0  0  0  0  0  0  0  0  0
    2.1893   -2.2033    0.3829 H   0  0  0  0  0  0  0  0  0  0  0  0
    1.4743   -3.5491    2.2223 H   0  0  0  0  0  0  0  0  0  0  0  0
    5.6331    0.1533    1.0366 H   0  0  0  0  0  0  0  0  0  0  0  0
    4.0857   -0.7260    1.0666 H   0  0  0  0  0  0  0  0  0  0  0  0
    4.6371   -1.6898   -1.2583 H   0  0  0  0  0  0  0  0  0  0  0  0
    6.9901   -2.0411   -1.4856 H   0  0  0  0  0  0  0  0  0  0  0  0
    7.3052   -0.8320   -0.0935 H   0  0  0  0  0  0  0  0  0  0  0  0
    0.1172    2.5496   -1.6211 H   0  0  0  0  0  0  0  0  0  0  0  0
    0.1006    0.9253   -2.3489 H   0  0  0  0  0  0  0  0  0  0  0  0
   -1.3976    1.6169   -1.6815 H   0  0  0  0  0  0  0  0  0  0  0  0
  1  2  1  0  0  0  0
  2  3  2  0  0  0  0
  3  4  1  0  0  0  0
  4  5  2  0  0  0  0
  5  6  1  0  0  0  0
  6  7  2  0  0  0  0
  2  7  1  0  0  0  0
  6  8  1  0  0  0  0
  5  9  1  0  0  0  0
  9 10  1  0  0  0  0
 10 11  1  0  0  0  0
 11 12  2  0  0  0  0
 10 13  1  0  0  0  0
 13 14  2  0  0  0  0
 14 15  1  0  0  0  0
 15 16  1  0  0  0  0
 16 17  1  0  0  0  0
 14 18  1  0  0  0  0
 18 19  1  0  0  0  0
 19 20  1  0  0  0  0
 20 21  1  0  0  0  0
 21 22  2  0  0  0  0
 13 23  1  0  0  0  0
  1 24  1  0  0  0  0
  1 25  1  0  0  0  0
  1 26  1  0  0  0  0
  4 27  1  0  0  0  0
  8 28  1  0  0  0  0
  8 29  1  0  0  0  0
  9 30  1  0  0  0  0
  9 31  1  0  0  0  0
 11 32  1  0  0  0  0
 15 33  1  0  0  0  0
 15 34  1  0  0  0  0
 16 35  1  0  0  0  0
 16 36  1  0  0  0  0
 17 37  1  0  0  0  0
 20 38  1  0  0  0  0
 20 39  1  0  0  0  0
 21 40  1  0  0  0  0
 22 41  1  0  0  0  0
 22 42  1  0  0  0  0
 23 43  1  0  0  0  0
 23 44  1  0  0  0  0
 23 45  1  0  0  0  0
M  END
$$$$
