C11H10O5
APtclcactv06281816293D 0   0.00000     0.00000
 
 26 27  0  0  0  0  0  0  0  0999 V2000
    2.6617    3.0819    0.1785 C   0  0  0  0  0  0  0  0  0  0  0  0
    2.8189    1.6693    0.0301 O   0  0  0  0  0  0  0  0  0  0  0  0
    1.6840    0.9253   -0.0279 C   0  0  0  0  0  0  0  0  0  0  0  0
    1.7713   -0.4585   -0.1722 C   0  0  0  0  0  0  0  0  0  0  0  0
    0.6209   -1.2254   -0.2324 C   0  0  0  0  0  0  0  0  0  0  0  0
   -0.6351   -0.6003   -0.1470 C   0  0  0  0  0  0  0  0  0  0  0  0
   -1.8291   -1.3637   -0.2056 C   0  0  0  0  0  0  0  0  0  0  0  0
   -3.0227   -0.7210   -0.1190 C   0  0  0  0  0  0  0  0  0  0  0  0
   -3.0568    0.6802    0.0260 C   0  0  0  0  0  0  0  0  0  0  0  0
   -4.1314    1.2489    0.1033 O   0  0  0  0  0  0  0  0  0  0  0  0
   -1.9226    1.3990    0.0810 O   0  0  0  0  0  0  0  0  0  0  0  0
   -0.7145    0.7976   -0.0015 C   0  0  0  0  0  0  0  0  0  0  0  0
    0.4487    1.5476    0.0625 C   0  0  0  0  0  0  0  0  0  0  0  0
    0.7050   -2.5737   -0.3734 O   0  0  0  0  0  0  0  0  0  0  0  0
    0.7664   -3.3488    0.8255 C   0  0  0  0  0  0  0  0  0  0  0  0
    2.9914   -1.0570   -0.2547 O   0  0  0  0  0  0  0  0  0  0  0  0
    3.6430    3.5552    0.2112 H   0  0  0  0  0  0  0  0  0  0  0  0
    2.0964    3.4753   -0.6663 H   0  0  0  0  0  0  0  0  0  0  0  0
    2.1257    3.2925    1.1040 H   0  0  0  0  0  0  0  0  0  0  0  0
   -1.7899   -2.4372   -0.3173 H   0  0  0  0  0  0  0  0  0  0  0  0
   -3.9440   -1.2829   -0.1618 H   0  0  0  0  0  0  0  0  0  0  0  0
    0.3928    2.6198    0.1793 H   0  0  0  0  0  0  0  0  0  0  0  0
   -0.1306   -3.1718    1.4190 H   0  0  0  0  0  0  0  0  0  0  0  0
    0.8309   -4.4068    0.5713 H   0  0  0  0  0  0  0  0  0  0  0  0
    1.6457   -3.0591    1.4009 H   0  0  0  0  0  0  0  0  0  0  0  0
    3.3588   -1.3206    0.6001 H   0  0  0  0  0  0  0  0  0  0  0  0
  1  2  1  0  0  0  0
  2  3  1  0  0  0  0
  3  4  2  0  0  0  0
  4  5  1  0  0  0  0
  5  6  2  0  0  0  0
  6  7  1  0  0  0  0
  7  8  2  0  0  0  0
  8  9  1  0  0  0  0
  9 10  2  0  0  0  0
  9 11  1  0  0  0  0
 11 12  1  0  0  0  0
  6 12  1  0  0  0  0
 12 13  2  0  0  0  0
  3 13  1  0  0  0  0
  5 14  1  0  0  0  0
 14 15  1  0  0  0  0
  4 16  1  0  0  0  0
  1 17  1  0  0  0  0
  1 18  1  0  0  0  0
  1 19  1  0  0  0  0
  7 20  1  0  0  0  0
  8 21  1  0  0  0  0
 13 22  1  0  0  0  0
 15 23  1  0  0  0  0
 15 24  1  0  0  0  0
 15 25  1  0  0  0  0
 16 26  1  0  0  0  0
M  END
$$$$
