C9H10O
APtclcactv06211802143D 0   0.00000     0.00000
 
 20 20  0  0  0  0  0  0  0  0999 V2000
   -3.2238    0.4769   -0.0898 C   0  0  0  0  0  0  0  0  0  0  0  0
   -2.9162   -0.8697   -0.1665 C   0  0  0  0  0  0  0  0  0  0  0  0
   -1.6022   -1.2852   -0.0987 C   0  0  0  0  0  0  0  0  0  0  0  0
   -0.5826   -0.3437    0.0470 C   0  0  0  0  0  0  0  0  0  0  0  0
   -0.8996    1.0130    0.1232 C   0  0  0  0  0  0  0  0  0  0  0  0
   -2.2176    1.4153    0.0547 C   0  0  0  0  0  0  0  0  0  0  0  0
    0.8271   -0.7819    0.1208 C   0  0  0  0  0  0  0  0  0  0  0  0
    1.7936    0.1149    0.2592 C   0  0  0  0  0  0  0  0  0  0  0  0
    3.2309   -0.3318    0.3344 C   0  0  0  0  0  0  0  0  0  0  0  0
    4.0337    0.5038   -0.5019 O   0  0  0  0  0  0  0  0  0  0  0  0
   -4.2535    0.7973   -0.1475 H   0  0  0  0  0  0  0  0  0  0  0  0
   -3.7062   -1.5973   -0.2792 H   0  0  0  0  0  0  0  0  0  0  0  0
   -1.3634   -2.3367   -0.1580 H   0  0  0  0  0  0  0  0  0  0  0  0
   -0.1150    1.7465    0.2364 H   0  0  0  0  0  0  0  0  0  0  0  0
   -2.4642    2.4652    0.1133 H   0  0  0  0  0  0  0  0  0  0  0  0
    1.0699   -1.8326    0.0619 H   0  0  0  0  0  0  0  0  0  0  0  0
    1.5508    1.1656    0.3181 H   0  0  0  0  0  0  0  0  0  0  0  0
    3.5807   -0.2587    1.3642 H   0  0  0  0  0  0  0  0  0  0  0  0
    3.3083   -1.3653   -0.0031 H   0  0  0  0  0  0  0  0  0  0  0  0
    4.9729    0.2734   -0.5025 H   0  0  0  0  0  0  0  0  0  0  0  0
  1  2  2  0  0  0  0
  2  3  1  0  0  0  0
  3  4  2  0  0  0  0
  4  5  1  0  0  0  0
  5  6  2  0  0  0  0
  1  6  1  0  0  0  0
  4  7  1  0  0  0  0
  7  8  2  0  0  0  0
  8  9  1  0  0  0  0
  9 10  1  0  0  0  0
  1 11  1  0  0  0  0
  2 12  1  0  0  0  0
  3 13  1  0  0  0  0
  5 14  1  0  0  0  0
  6 15  1  0  0  0  0
  7 16  1  0  0  0  0
  8 17  1  0  0  0  0
  9 18  1  0  0  0  0
  9 19  1  0  0  0  0
 10 20  1  0  0  0  0
M  END
$$$$
