C22H14O6
APtclcactv06211806473D 0   0.00000     0.00000
 
 42 45  0  0  0  0  0  0  0  0999 V2000
    5.7354    2.3794    1.7862 C   0  0  0  0  0  0  0  0  0  0  0  0
    4.8942    1.3992    1.0098 C   0  0  0  0  0  0  0  0  0  0  0  0
    5.4618    0.6746   -0.0159 C   0  0  0  0  0  0  0  0  0  0  0  0
    4.6967   -0.2372   -0.7444 C   0  0  0  0  0  0  0  0  0  0  0  0
    3.3494   -0.4123   -0.4284 C   0  0  0  0  0  0  0  0  0  0  0  0
    2.7763    0.3323    0.6213 C   0  0  0  0  0  0  0  0  0  0  0  0
    3.5555    1.2299    1.3380 C   0  0  0  0  0  0  0  0  0  0  0  0
    1.3464    0.1359    0.9421 C   0  0  0  0  0  0  0  0  0  0  0  0
    0.8826    0.5685    1.9779 O   0  0  0  0  0  0  0  0  0  0  0  0
    0.4855   -0.5972   -0.0198 C   0  0  0  0  0  0  0  0  0  0  0  0
    1.0472   -1.3130   -1.0290 C   0  0  0  0  0  0  0  0  0  0  0  0
    2.5085   -1.3671   -1.1766 C   0  0  0  0  0  0  0  0  0  0  0  0
    3.0208   -2.1925   -1.9089 O   0  0  0  0  0  0  0  0  0  0  0  0
   -0.9822   -0.5489    0.1205 C   0  0  0  0  0  0  0  0  0  0  0  0
   -1.6393   -1.5011    0.8978 C   0  0  0  0  0  0  0  0  0  0  0  0
   -3.0158   -1.4644    1.0369 C   0  0  0  0  0  0  0  0  0  0  0  0
   -3.7555   -0.4746    0.3996 C   0  0  0  0  0  0  0  0  0  0  0  0
   -5.2272   -0.4166    0.5340 C   0  0  0  0  0  0  0  0  0  0  0  0
   -5.8398   -1.3588    0.9966 O   0  0  0  0  0  0  0  0  0  0  0  0
   -5.9433    0.7989    0.1001 C   0  0  0  0  0  0  0  0  0  0  0  0
   -5.3232    1.7215   -0.6521 C   0  0  0  0  0  0  0  0  0  0  0  0
   -3.9153    1.5339   -1.0565 C   0  0  0  0  0  0  0  0  0  0  0  0
   -3.4288    2.2271   -1.9286 O   0  0  0  0  0  0  0  0  0  0  0  0
   -3.1060    0.4956   -0.3906 C   0  0  0  0  0  0  0  0  0  0  0  0
   -1.7196    0.4650   -0.5276 C   0  0  0  0  0  0  0  0  0  0  0  0
   -1.0867    1.3955   -1.2793 O   0  0  0  0  0  0  0  0  0  0  0  0
   -0.8456   -2.5783    1.5911 C   0  0  0  0  0  0  0  0  0  0  0  0
    5.2590   -0.9477   -1.7527 O   0  0  0  0  0  0  0  0  0  0  0  0
    5.6858    3.3583    1.3093 H   0  0  0  0  0  0  0  0  0  0  0  0
    5.3589    2.4529    2.8065 H   0  0  0  0  0  0  0  0  0  0  0  0
    6.7697    2.0360    1.8044 H   0  0  0  0  0  0  0  0  0  0  0  0
    6.5051    0.8136   -0.2578 H   0  0  0  0  0  0  0  0  0  0  0  0
    3.1195    1.8017    2.1438 H   0  0  0  0  0  0  0  0  0  0  0  0
    0.4167   -1.8449   -1.7261 H   0  0  0  0  0  0  0  0  0  0  0  0
   -3.5164   -2.2064    1.6413 H   0  0  0  0  0  0  0  0  0  0  0  0
   -6.9732    0.9468    0.3896 H   0  0  0  0  0  0  0  0  0  0  0  0
   -5.8576    2.6068   -0.9639 H   0  0  0  0  0  0  0  0  0  0  0  0
   -0.8212    2.1845   -0.7873 H   0  0  0  0  0  0  0  0  0  0  0  0
   -0.5544   -2.2335    2.5832 H   0  0  0  0  0  0  0  0  0  0  0  0
   -1.4557   -3.4769    1.6833 H   0  0  0  0  0  0  0  0  0  0  0  0
    0.0474   -2.8038    1.0082 H   0  0  0  0  0  0  0  0  0  0  0  0
    5.6393   -1.7921   -1.4745 H   0  0  0  0  0  0  0  0  0  0  0  0
  1  2  1  0  0  0  0
  2  3  2  0  0  0  0
  3  4  1  0  0  0  0
  4  5  2  0  0  0  0
  5  6  1  0  0  0  0
  6  7  2  0  0  0  0
  2  7  1  0  0  0  0
  6  8  1  0  0  0  0
  8  9  2  0  0  0  0
  8 10  1  0  0  0  0
 10 11  2  0  0  0  0
 11 12  1  0  0  0  0
  5 12  1  0  0  0  0
 12 13  2  0  0  0  0
 10 14  1  0  0  0  0
 14 15  2  0  0  0  0
 15 16  1  0  0  0  0
 16 17  2  0  0  0  0
 17 18  1  0  0  0  0
 18 19  2  0  0  0  0
 18 20  1  0  0  0  0
 20 21  2  0  0  0  0
 21 22  1  0  0  0  0
 22 23  2  0  0  0  0
 22 24  1  0  0  0  0
 17 24  1  0  0  0  0
 24 25  2  0  0  0  0
 14 25  1  0  0  0  0
 25 26  1  0  0  0  0
 15 27  1  0  0  0  0
  4 28  1  0  0  0  0
  1 29  1  0  0  0  0
  1 30  1  0  0  0  0
  1 31  1  0  0  0  0
  3 32  1  0  0  0  0
  7 33  1  0  0  0  0
 11 34  1  0  0  0  0
 16 35  1  0  0  0  0
 20 36  1  0  0  0  0
 21 37  1  0  0  0  0
 26 38  1  0  0  0  0
 27 39  1  0  0  0  0
 27 40  1  0  0  0  0
 27 41  1  0  0  0  0
 28 42  1  0  0  0  0
M  END
$$$$
