C23H20O6
APtclcactv06281816303D 0   0.00000     0.00000
 
 49 53  0  0  0  0  0  0  0  0999 V2000
   -5.7999    0.5667    1.9193 C   0  0  0  0  0  0  0  0  0  0  0  0
   -5.9864    0.4010    0.4098 C   0  0  0  0  0  0  0  0  0  0  0  0
   -5.2995    1.5366   -0.3021 C   0  0  0  0  0  0  0  0  0  0  0  0
   -4.0235    1.4231   -0.6615 C   0  0  0  0  0  0  0  0  0  0  0  0
   -3.3272    0.1519   -0.3772 C   0  0  0  0  0  0  0  0  0  0  0  0
   -4.0896   -0.9687   -0.0308 C   0  0  0  0  0  0  0  0  0  0  0  0
   -5.4421   -0.8541    0.0044 O   0  0  0  0  0  0  0  0  0  0  0  0
   -3.4688   -2.1772    0.2607 C   0  0  0  0  0  0  0  0  0  0  0  0
   -2.1065   -2.2834    0.2004 C   0  0  0  0  0  0  0  0  0  0  0  0
   -1.3316   -1.1783   -0.1521 C   0  0  0  0  0  0  0  0  0  0  0  0
   -1.9332    0.0569   -0.4487 C   0  0  0  0  0  0  0  0  0  0  0  0
   -1.1915    1.1197   -0.8033 O   0  0  0  0  0  0  0  0  0  0  0  0
    0.1305    1.1531   -0.6093 C   0  0  0  0  0  0  0  0  0  0  0  0
    0.8421    0.0264   -0.3232 C   0  0  0  0  0  0  0  0  0  0  0  0
    0.1417   -1.2589   -0.2199 C   0  0  0  0  0  0  0  0  0  0  0  0
    0.7363   -2.3227   -0.1923 O   0  0  0  0  0  0  0  0  0  0  0  0
    2.3023    0.1346   -0.1153 C   0  0  0  0  0  0  0  0  0  0  0  0
    3.1333   -0.9771   -0.1495 C   0  0  0  0  0  0  0  0  0  0  0  0
    4.4953   -0.8210    0.0480 C   0  0  0  0  0  0  0  0  0  0  0  0
    5.0272    0.4444    0.2795 C   0  0  0  0  0  0  0  0  0  0  0  0
    4.1986    1.5566    0.3146 C   0  0  0  0  0  0  0  0  0  0  0  0
    2.8390    1.4089    0.1198 C   0  0  0  0  0  0  0  0  0  0  0  0
    2.0002    2.4768    0.1527 O   0  0  0  0  0  0  0  0  0  0  0  0
    0.8710    2.4656   -0.7192 C   0  0  0  0  0  0  0  0  0  0  0  0
    6.3654    0.5912    0.4717 O   0  0  0  0  0  0  0  0  0  0  0  0
    6.8458    1.9168    0.7042 C   0  0  0  0  0  0  0  0  0  0  0  0
    5.3149   -1.9068    0.0162 O   0  0  0  0  0  0  0  0  0  0  0  0
    4.7025   -3.1750   -0.2257 C   0  0  0  0  0  0  0  0  0  0  0  0
   -7.4803    0.4307    0.0808 C   0  0  0  0  0  0  0  0  0  0  0  0
   -6.2351    1.5141    2.2373 H   0  0  0  0  0  0  0  0  0  0  0  0
   -6.2956   -0.2533    2.4388 H   0  0  0  0  0  0  0  0  0  0  0  0
   -4.7362    0.5574    2.1572 H   0  0  0  0  0  0  0  0  0  0  0  0
   -5.8430    2.4439   -0.5207 H   0  0  0  0  0  0  0  0  0  0  0  0
   -3.5104    2.2390   -1.1487 H   0  0  0  0  0  0  0  0  0  0  0  0
   -4.0640   -3.0355    0.5353 H   0  0  0  0  0  0  0  0  0  0  0  0
   -1.6294   -3.2255    0.4268 H   0  0  0  0  0  0  0  0  0  0  0  0
    2.7197   -1.9585   -0.3289 H   0  0  0  0  0  0  0  0  0  0  0  0
    4.6159    2.5364    0.4940 H   0  0  0  0  0  0  0  0  0  0  0  0
    1.2078    2.6038   -1.7466 H   0  0  0  0  0  0  0  0  0  0  0  0
    0.2003    3.2817   -0.4504 H   0  0  0  0  0  0  0  0  0  0  0  0
    6.6019    2.5470   -0.1511 H   0  0  0  0  0  0  0  0  0  0  0  0
    6.3751    2.3220    1.6000 H   0  0  0  0  0  0  0  0  0  0  0  0
    7.9269    1.8927    0.8411 H   0  0  0  0  0  0  0  0  0  0  0  0
    5.4659   -3.9531   -0.2255 H   0  0  0  0  0  0  0  0  0  0  0  0
    3.9731   -3.3816    0.5575 H   0  0  0  0  0  0  0  0  0  0  0  0
    4.2014   -3.1579   -1.1935 H   0  0  0  0  0  0  0  0  0  0  0  0
   -7.9035    1.3833    0.3991 H   0  0  0  0  0  0  0  0  0  0  0  0
   -7.6181    0.3129   -0.9940 H   0  0  0  0  0  0  0  0  0  0  0  0
   -7.9835   -0.3831    0.6030 H   0  0  0  0  0  0  0  0  0  0  0  0
  1  2  1  0  0  0  0
  2  3  1  0  0  0  0
  3  4  2  0  0  0  0
  4  5  1  0  0  0  0
  5  6  2  0  0  0  0
  6  7  1  0  0  0  0
  2  7  1  0  0  0  0
  6  8  1  0  0  0  0
  8  9  2  0  0  0  0
  9 10  1  0  0  0  0
 10 11  2  0  0  0  0
  5 11  1  0  0  0  0
 11 12  1  0  0  0  0
 12 13  1  0  0  0  0
 13 14  2  0  0  0  0
 14 15  1  0  0  0  0
 10 15  1  0  0  0  0
 15 16  2  0  0  0  0
 14 17  1  0  0  0  0
 17 18  2  0  0  0  0
 18 19  1  0  0  0  0
 19 20  2  0  0  0  0
 20 21  1  0  0  0  0
 21 22  2  0  0  0  0
 17 22  1  0  0  0  0
 22 23  1  0  0  0  0
 23 24  1  0  0  0  0
 13 24  1  0  0  0  0
 20 25  1  0  0  0  0
 25 26  1  0  0  0  0
 19 27  1  0  0  0  0
 27 28  1  0  0  0  0
  2 29  1  0  0  0  0
  1 30  1  0  0  0  0
  1 31  1  0  0  0  0
  1 32  1  0  0  0  0
  3 33  1  0  0  0  0
  4 34  1  0  0  0  0
  8 35  1  0  0  0  0
  9 36  1  0  0  0  0
 18 37  1  0  0  0  0
 21 38  1  0  0  0  0
 24 39  1  0  0  0  0
 24 40  1  0  0  0  0
 26 41  1  0  0  0  0
 26 42  1  0  0  0  0
 26 43  1  0  0  0  0
 28 44  1  0  0  0  0
 28 45  1  0  0  0  0
 28 46  1  0  0  0  0
 29 47  1  0  0  0  0
 29 48  1  0  0  0  0
 29 49  1  0  0  0  0
M  END
$$$$
