C11H10O5
APtclcactv06281816303D 0   0.00000     0.00000
 
 26 27  0  0  0  0  0  0  0  0999 V2000
    3.0487    2.6530   -0.0259 C   0  0  0  0  0  0  0  0  0  0  0  0
    2.9227    1.2339   -0.1367 O   0  0  0  0  0  0  0  0  0  0  0  0
    1.6625    0.7224   -0.1170 C   0  0  0  0  0  0  0  0  0  0  0  0
    1.4698   -0.6567   -0.2212 C   0  0  0  0  0  0  0  0  0  0  0  0
    0.1901   -1.1915   -0.2029 C   0  0  0  0  0  0  0  0  0  0  0  0
   -0.9113   -0.3512   -0.0796 C   0  0  0  0  0  0  0  0  0  0  0  0
   -0.7159    1.0377    0.0258 C   0  0  0  0  0  0  0  0  0  0  0  0
    0.5801    1.5673    0.0115 C   0  0  0  0  0  0  0  0  0  0  0  0
   -1.8844    1.9109    0.1551 C   0  0  0  0  0  0  0  0  0  0  0  0
   -3.1161    1.3379    0.1678 C   0  0  0  0  0  0  0  0  0  0  0  0
   -3.2392   -0.0624    0.0580 C   0  0  0  0  0  0  0  0  0  0  0  0
   -4.3494   -0.5633    0.0708 O   0  0  0  0  0  0  0  0  0  0  0  0
   -2.1647   -0.8571   -0.0606 O   0  0  0  0  0  0  0  0  0  0  0  0
    0.0125   -2.5367   -0.3060 O   0  0  0  0  0  0  0  0  0  0  0  0
    2.5440   -1.4809   -0.3419 O   0  0  0  0  0  0  0  0  0  0  0  0
    3.1189   -1.9787    0.8679 C   0  0  0  0  0  0  0  0  0  0  0  0
    4.1032    2.9275   -0.0551 H   0  0  0  0  0  0  0  0  0  0  0  0
    2.5261    3.1300   -0.8550 H   0  0  0  0  0  0  0  0  0  0  0  0
    2.6131    2.9839    0.9168 H   0  0  0  0  0  0  0  0  0  0  0  0
    0.7311    2.6336    0.0928 H   0  0  0  0  0  0  0  0  0  0  0  0
   -1.7700    2.9816    0.2384 H   0  0  0  0  0  0  0  0  0  0  0  0
   -3.9985    1.9533    0.2622 H   0  0  0  0  0  0  0  0  0  0  0  0
    0.0043   -2.9986    0.5436 H   0  0  0  0  0  0  0  0  0  0  0  0
    3.4583   -1.1429    1.4797 H   0  0  0  0  0  0  0  0  0  0  0  0
    2.3710   -2.5508    1.4171 H   0  0  0  0  0  0  0  0  0  0  0  0
    3.9658   -2.6222    0.6298 H   0  0  0  0  0  0  0  0  0  0  0  0
  1  2  1  0  0  0  0
  2  3  1  0  0  0  0
  3  4  2  0  0  0  0
  4  5  1  0  0  0  0
  5  6  2  0  0  0  0
  6  7  1  0  0  0  0
  7  8  2  0  0  0  0
  3  8  1  0  0  0  0
  7  9  1  0  0  0  0
  9 10  2  0  0  0  0
 10 11  1  0  0  0  0
 11 12  2  0  0  0  0
 11 13  1  0  0  0  0
  6 13  1  0  0  0  0
  5 14  1  0  0  0  0
  4 15  1  0  0  0  0
 15 16  1  0  0  0  0
  1 17  1  0  0  0  0
  1 18  1  0  0  0  0
  1 19  1  0  0  0  0
  8 20  1  0  0  0  0
  9 21  1  0  0  0  0
 10 22  1  0  0  0  0
 14 23  1  0  0  0  0
 16 24  1  0  0  0  0
 16 25  1  0  0  0  0
 16 26  1  0  0  0  0
M  END
$$$$
