C12H12O4
APtclcactv06281816303D 0   0.00000     0.00000
 
 28 29  0  0  0  0  0  0  0  0999 V2000
    3.8872   -2.0534   -0.0058 C   0  0  0  0  0  0  0  0  0  0  0  0
    2.7215   -1.0983   -0.0011 C   0  0  0  0  0  0  0  0  0  0  0  0
    2.9720    0.2221    0.0047 C   0  0  0  0  0  0  0  0  0  0  0  0
    1.8888    1.1429    0.0092 C   0  0  0  0  0  0  0  0  0  0  0  0
    2.0792    2.3476    0.0141 O   0  0  0  0  0  0  0  0  0  0  0  0
    0.5284    0.5820    0.0072 C   0  0  0  0  0  0  0  0  0  0  0  0
   -0.6025    1.4080    0.0108 C   0  0  0  0  0  0  0  0  0  0  0  0
   -1.8618    0.8370    0.0083 C   0  0  0  0  0  0  0  0  0  0  0  0
   -2.0019   -0.5465    0.0023 C   0  0  0  0  0  0  0  0  0  0  0  0
   -0.8867   -1.3703   -0.0008 C   0  0  0  0  0  0  0  0  0  0  0  0
    0.3839   -0.8171    0.0011 C   0  0  0  0  0  0  0  0  0  0  0  0
    1.4818   -1.6014   -0.0083 O   0  0  0  0  0  0  0  0  0  0  0  0
   -3.2431   -1.0961   -0.0001 O   0  0  0  0  0  0  0  0  0  0  0  0
   -3.3208   -2.5229   -0.0063 C   0  0  0  0  0  0  0  0  0  0  0  0
   -3.0857    1.7163    0.0126 C   0  0  0  0  0  0  0  0  0  0  0  0
   -0.4636    2.7579    0.0171 O   0  0  0  0  0  0  0  0  0  0  0  0
    4.1686   -2.2882    1.0207 H   0  0  0  0  0  0  0  0  0  0  0  0
    3.6040   -2.9698   -0.5236 H   0  0  0  0  0  0  0  0  0  0  0  0
    4.7320   -1.5929   -0.5179 H   0  0  0  0  0  0  0  0  0  0  0  0
    3.9904    0.5816    0.0063 H   0  0  0  0  0  0  0  0  0  0  0  0
   -1.0083   -2.4434   -0.0048 H   0  0  0  0  0  0  0  0  0  0  0  0
   -2.8275   -2.9176    0.8820 H   0  0  0  0  0  0  0  0  0  0  0  0
   -4.3667   -2.8298   -0.0076 H   0  0  0  0  0  0  0  0  0  0  0  0
   -2.8275   -2.9098   -0.8979 H   0  0  0  0  0  0  0  0  0  0  0  0
   -3.3809    1.9331   -1.0140 H   0  0  0  0  0  0  0  0  0  0  0  0
   -3.9000    1.2031    0.5242 H   0  0  0  0  0  0  0  0  0  0  0  0
   -2.8614    2.6486    0.5308 H   0  0  0  0  0  0  0  0  0  0  0  0
   -0.4231    3.1532   -0.8644 H   0  0  0  0  0  0  0  0  0  0  0  0
  1  2  1  0  0  0  0
  2  3  2  0  0  0  0
  3  4  1  0  0  0  0
  4  5  2  0  0  0  0
  4  6  1  0  0  0  0
  6  7  2  0  0  0  0
  7  8  1  0  0  0  0
  8  9  2  0  0  0  0
  9 10  1  0  0  0  0
 10 11  2  0  0  0  0
  6 11  1  0  0  0  0
 11 12  1  0  0  0  0
  2 12  1  0  0  0  0
  9 13  1  0  0  0  0
 13 14  1  0  0  0  0
  8 15  1  0  0  0  0
  7 16  1  0  0  0  0
  1 17  1  0  0  0  0
  1 18  1  0  0  0  0
  1 19  1  0  0  0  0
  3 20  1  0  0  0  0
 10 21  1  0  0  0  0
 14 22  1  0  0  0  0
 14 23  1  0  0  0  0
 14 24  1  0  0  0  0
 15 25  1  0  0  0  0
 15 26  1  0  0  0  0
 15 27  1  0  0  0  0
 16 28  1  0  0  0  0
M  END
$$$$
