C42H46O12
APtclcactv06281816303D 0   0.00000     0.00000
 
100105  0  0  0  0  0  0  0  0999 V2000
   11.8026   -1.6928    2.7370 C   0  0  0  0  0  0  0  0  0  0  0  0
   12.3354   -1.3900    1.4461 O   0  0  0  0  0  0  0  0  0  0  0  0
   11.4417   -1.1896    0.4408 C   0  0  0  0  0  0  0  0  0  0  0  0
   10.0812   -1.2824    0.6925 C   0  0  0  0  0  0  0  0  0  0  0  0
    9.1721   -1.0788   -0.3286 C   0  0  0  0  0  0  0  0  0  0  0  0
    9.6145   -0.7820   -1.6041 C   0  0  0  0  0  0  0  0  0  0  0  0
   10.9733   -0.6868   -1.8640 C   0  0  0  0  0  0  0  0  0  0  0  0
   11.8905   -0.8856   -0.8389 C   0  0  0  0  0  0  0  0  0  0  0  0
   13.2249   -0.7931   -1.0899 O   0  0  0  0  0  0  0  0  0  0  0  0
   11.4076   -0.3951   -3.1193 O   0  0  0  0  0  0  0  0  0  0  0  0
   10.4087   -0.1989   -4.1221 C   0  0  0  0  0  0  0  0  0  0  0  0
    7.6945   -1.1812   -0.0506 C   0  0  0  0  0  0  0  0  0  0  0  0
    7.1561    0.1913    0.3582 C   0  0  0  0  0  0  0  0  0  0  0  0
    5.6215    0.1394    0.5271 C   0  0  0  0  0  0  0  0  0  0  0  0
    5.4222    0.5013    2.0145 C   0  0  0  0  0  0  0  0  0  0  0  0
    6.7270    0.2919    2.6340 O   0  0  0  0  0  0  0  0  0  0  0  0
    7.6788    0.5776    1.7268 C   0  0  0  0  0  0  0  0  0  0  0  0
    8.7620    1.0581    1.9626 O   0  0  0  0  0  0  0  0  0  0  0  0
    4.9428    1.1711   -0.3762 C   0  0  0  0  0  0  0  0  0  0  0  0
    3.4469    1.0143   -0.2822 C   0  0  0  0  0  0  0  0  0  0  0  0
    2.7396    1.7229    0.6704 C   0  0  0  0  0  0  0  0  0  0  0  0
    1.3641    1.5822    0.7608 C   0  0  0  0  0  0  0  0  0  0  0  0
    0.6954    0.7216   -0.1149 C   0  0  0  0  0  0  0  0  0  0  0  0
    1.4182    0.0123   -1.0717 C   0  0  0  0  0  0  0  0  0  0  0  0
    2.7873    0.1657   -1.1538 C   0  0  0  0  0  0  0  0  0  0  0  0
   -0.7763    0.5640   -0.0254 C   0  0  0  0  0  0  0  0  0  0  0  0
   -1.6167    1.6460   -0.3048 C   0  0  0  0  0  0  0  0  0  0  0  0
   -2.9907    1.4899   -0.2186 C   0  0  0  0  0  0  0  0  0  0  0  0
   -3.5275    0.2687    0.1427 C   0  0  0  0  0  0  0  0  0  0  0  0
   -2.6984   -0.8040    0.4198 C   0  0  0  0  0  0  0  0  0  0  0  0
   -1.3282   -0.6642    0.3318 C   0  0  0  0  0  0  0  0  0  0  0  0
   -5.0227    0.1046    0.2358 C   0  0  0  0  0  0  0  0  0  0  0  0
   -5.5722   -0.3424   -1.1204 C   0  0  0  0  0  0  0  0  0  0  0  0
   -5.0751   -1.7624   -1.4749 C   0  0  0  0  0  0  0  0  0  0  0  0
   -6.1037   -2.6505   -0.9457 O   0  0  0  0  0  0  0  0  0  0  0  0
   -7.2965   -2.0395   -0.9809 C   0  0  0  0  0  0  0  0  0  0  0  0
   -8.3659   -2.6014   -0.9560 O   0  0  0  0  0  0  0  0  0  0  0  0
   -7.1030   -0.5405   -1.0557 C   0  0  0  0  0  0  0  0  0  0  0  0
   -7.6748    0.1332    0.1933 C   0  0  0  0  0  0  0  0  0  0  0  0
   -9.1725   -0.0331    0.2127 C   0  0  0  0  0  0  0  0  0  0  0  0
   -9.7358   -1.1340    0.8301 C   0  0  0  0  0  0  0  0  0  0  0  0
  -11.1134   -1.2910    0.8497 C   0  0  0  0  0  0  0  0  0  0  0  0
  -11.9280   -0.3392    0.2478 C   0  0  0  0  0  0  0  0  0  0  0  0
  -11.3577    0.7665   -0.3715 C   0  0  0  0  0  0  0  0  0  0  0  0
   -9.9794    0.9187   -0.3822 C   0  0  0  0  0  0  0  0  0  0  0  0
  -12.1504    1.7004   -0.9622 O   0  0  0  0  0  0  0  0  0  0  0  0
  -11.4957    2.8104   -1.5795 C   0  0  0  0  0  0  0  0  0  0  0  0
  -13.2805   -0.4899    0.2645 O   0  0  0  0  0  0  0  0  0  0  0  0
  -11.6667   -2.3750    1.4566 O   0  0  0  0  0  0  0  0  0  0  0  0
  -10.7689   -3.3126    2.0540 C   0  0  0  0  0  0  0  0  0  0  0  0
   -1.0878    2.8463   -0.6590 O   0  0  0  0  0  0  0  0  0  0  0  0
   -2.0075    3.9059   -0.9297 C   0  0  0  0  0  0  0  0  0  0  0  0
    0.6678    2.2776    1.6975 O   0  0  0  0  0  0  0  0  0  0  0  0
    1.4179    3.1373    2.5579 C   0  0  0  0  0  0  0  0  0  0  0  0
   11.1672   -0.8719    3.0694 H   0  0  0  0  0  0  0  0  0  0  0  0
   11.2140   -2.6085    2.6815 H   0  0  0  0  0  0  0  0  0  0  0  0
   12.6203   -1.8288    3.4448 H   0  0  0  0  0  0  0  0  0  0  0  0
    9.7316   -1.5145    1.6876 H   0  0  0  0  0  0  0  0  0  0  0  0
    8.9010   -0.6243   -2.3993 H   0  0  0  0  0  0  0  0  0  0  0  0
   13.5863    0.0962   -0.9735 H   0  0  0  0  0  0  0  0  0  0  0  0
    9.8114   -1.1051   -4.2221 H   0  0  0  0  0  0  0  0  0  0  0  0
    9.7638    0.6316   -3.8350 H   0  0  0  0  0  0  0  0  0  0  0  0
   10.8891    0.0265   -5.0742 H   0  0  0  0  0  0  0  0  0  0  0  0
    7.1785   -1.5212   -0.9486 H   0  0  0  0  0  0  0  0  0  0  0  0
    7.5252   -1.8932    0.7572 H   0  0  0  0  0  0  0  0  0  0  0  0
    7.4318    0.9426   -0.3818 H   0  0  0  0  0  0  0  0  0  0  0  0
    5.2448   -0.8623    0.3204 H   0  0  0  0  0  0  0  0  0  0  0  0
    5.1192    1.5436    2.1131 H   0  0  0  0  0  0  0  0  0  0  0  0
    4.6785   -0.1545    2.4672 H   0  0  0  0  0  0  0  0  0  0  0  0
    5.2237    2.1746   -0.0565 H   0  0  0  0  0  0  0  0  0  0  0  0
    5.2603    1.0160   -1.4073 H   0  0  0  0  0  0  0  0  0  0  0  0
    3.2594    2.3868    1.3452 H   0  0  0  0  0  0  0  0  0  0  0  0
    0.9072   -0.6542   -1.7507 H   0  0  0  0  0  0  0  0  0  0  0  0
    3.3468   -0.3842   -1.8961 H   0  0  0  0  0  0  0  0  0  0  0  0
   -3.6429    2.3234   -0.4337 H   0  0  0  0  0  0  0  0  0  0  0  0
   -3.1252   -1.7552    0.7018 H   0  0  0  0  0  0  0  0  0  0  0  0
   -0.6841   -1.5037    0.5485 H   0  0  0  0  0  0  0  0  0  0  0  0
   -5.2595   -0.6466    0.9893 H   0  0  0  0  0  0  0  0  0  0  0  0
   -5.4758    1.0556    0.5159 H   0  0  0  0  0  0  0  0  0  0  0  0
   -5.3022    0.3695   -1.9004 H   0  0  0  0  0  0  0  0  0  0  0  0
   -4.9918   -1.8778   -2.5556 H   0  0  0  0  0  0  0  0  0  0  0  0
   -4.1169   -1.9612   -0.9949 H   0  0  0  0  0  0  0  0  0  0  0  0
   -7.5754   -0.1412   -1.9531 H   0  0  0  0  0  0  0  0  0  0  0  0
   -7.2465   -0.3279    1.0833 H   0  0  0  0  0  0  0  0  0  0  0  0
   -7.4273    1.1947    0.1792 H   0  0  0  0  0  0  0  0  0  0  0  0
   -9.1021   -1.8732    1.2975 H   0  0  0  0  0  0  0  0  0  0  0  0
   -9.5354    1.7779   -0.8629 H   0  0  0  0  0  0  0  0  0  0  0  0
  -10.8324    2.4497   -2.3657 H   0  0  0  0  0  0  0  0  0  0  0  0
  -12.2415    3.4779   -2.0112 H   0  0  0  0  0  0  0  0  0  0  0  0
  -10.9138    3.3504   -0.8326 H   0  0  0  0  0  0  0  0  0  0  0  0
  -13.7117   -0.0867    1.0304 H   0  0  0  0  0  0  0  0  0  0  0  0
  -11.3388   -4.1268    2.5017 H   0  0  0  0  0  0  0  0  0  0  0  0
  -10.1012   -3.7131    1.2911 H   0  0  0  0  0  0  0  0  0  0  0  0
  -10.1819   -2.8132    2.8248 H   0  0  0  0  0  0  0  0  0  0  0  0
   -2.6603    3.6188   -1.7540 H   0  0  0  0  0  0  0  0  0  0  0  0
   -2.6084    4.1013   -0.0415 H   0  0  0  0  0  0  0  0  0  0  0  0
   -1.4554    4.8060   -1.2001 H   0  0  0  0  0  0  0  0  0  0  0  0
    0.7426    3.6313    3.2565 H   0  0  0  0  0  0  0  0  0  0  0  0
    2.1481    2.5485    3.1131 H   0  0  0  0  0  0  0  0  0  0  0  0
    1.9352    3.8879    1.9603 H   0  0  0  0  0  0  0  0  0  0  0  0
  1  2  1  0  0  0  0
  2  3  1  0  0  0  0
  3  4  2  0  0  0  0
  4  5  1  0  0  0  0
  5  6  2  0  0  0  0
  6  7  1  0  0  0  0
  7  8  2  0  0  0  0
  3  8  1  0  0  0  0
  8  9  1  0  0  0  0
  7 10  1  0  0  0  0
 10 11  1  0  0  0  0
  5 12  1  0  0  0  0
 12 13  1  0  0  0  0
 13 14  1  0  0  0  0
 14 15  1  0  0  0  0
 15 16  1  0  0  0  0
 16 17  1  0  0  0  0
 13 17  1  0  0  0  0
 17 18  2  0  0  0  0
 14 19  1  0  0  0  0
 19 20  1  0  0  0  0
 20 21  2  0  0  0  0
 21 22  1  0  0  0  0
 22 23  2  0  0  0  0
 23 24  1  0  0  0  0
 24 25  2  0  0  0  0
 20 25  1  0  0  0  0
 23 26  1  0  0  0  0
 26 27  2  0  0  0  0
 27 28  1  0  0  0  0
 28 29  2  0  0  0  0
 29 30  1  0  0  0  0
 30 31  2  0  0  0  0
 26 31  1  0  0  0  0
 29 32  1  0  0  0  0
 32 33  1  0  0  0  0
 33 34  1  0  0  0  0
 34 35  1  0  0  0  0
 35 36  1  0  0  0  0
 36 37  2  0  0  0  0
 36 38  1  0  0  0  0
 33 38  1  0  0  0  0
 38 39  1  0  0  0  0
 39 40  1  0  0  0  0
 40 41  2  0  0  0  0
 41 42  1  0  0  0  0
 42 43  2  0  0  0  0
 43 44  1  0  0  0  0
 44 45  2  0  0  0  0
 40 45  1  0  0  0  0
 44 46  1  0  0  0  0
 46 47  1  0  0  0  0
 43 48  1  0  0  0  0
 42 49  1  0  0  0  0
 49 50  1  0  0  0  0
 27 51  1  0  0  0  0
 51 52  1  0  0  0  0
 22 53  1  0  0  0  0
 53 54  1  0  0  0  0
  1 55  1  0  0  0  0
  1 56  1  0  0  0  0
  1 57  1  0  0  0  0
  4 58  1  0  0  0  0
  6 59  1  0  0  0  0
  9 60  1  0  0  0  0
 11 61  1  0  0  0  0
 11 62  1  0  0  0  0
 11 63  1  0  0  0  0
 12 64  1  0  0  0  0
 12 65  1  0  0  0  0
 13 66  1  0  0  0  0
 14 67  1  0  0  0  0
 15 68  1  0  0  0  0
 15 69  1  0  0  0  0
 19 70  1  0  0  0  0
 19 71  1  0  0  0  0
 21 72  1  0  0  0  0
 24 73  1  0  0  0  0
 25 74  1  0  0  0  0
 28 75  1  0  0  0  0
 30 76  1  0  0  0  0
 31 77  1  0  0  0  0
 32 78  1  0  0  0  0
 32 79  1  0  0  0  0
 33 80  1  0  0  0  0
 34 81  1  0  0  0  0
 34 82  1  0  0  0  0
 38 83  1  0  0  0  0
 39 84  1  0  0  0  0
 39 85  1  0  0  0  0
 41 86  1  0  0  0  0
 45 87  1  0  0  0  0
 47 88  1  0  0  0  0
 47 89  1  0  0  0  0
 47 90  1  0  0  0  0
 48 91  1  0  0  0  0
 50 92  1  0  0  0  0
 50 93  1  0  0  0  0
 50 94  1  0  0  0  0
 52 95  1  0  0  0  0
 52 96  1  0  0  0  0
 52 97  1  0  0  0  0
 54 98  1  0  0  0  0
 54 99  1  0  0  0  0
 54100  1  0  0  0  0
M  END
$$$$
