C12H8O5
APtclcactv06281816303D 0   0.00000     0.00000
 
 25 27  0  0  0  0  0  0  0  0999 V2000
    1.1460    3.2765   -0.8165 C   0  0  0  0  0  0  0  0  0  0  0  0
    0.9976    2.5045    0.3768 O   0  0  0  0  0  0  0  0  0  0  0  0
    0.7395    1.1805    0.2261 C   0  0  0  0  0  0  0  0  0  0  0  0
    1.7859    0.2631    0.1460 C   0  0  0  0  0  0  0  0  0  0  0  0
    3.2502    0.3782    0.1868 C   0  0  0  0  0  0  0  0  0  0  0  0
    3.7260   -0.8666    0.0593 C   0  0  0  0  0  0  0  0  0  0  0  0
    2.7116   -1.7426   -0.0563 O   0  0  0  0  0  0  0  0  0  0  0  0
    1.5205   -1.1098   -0.0097 C   0  0  0  0  0  0  0  0  0  0  0  0
    0.2050   -1.5586   -0.0838 C   0  0  0  0  0  0  0  0  0  0  0  0
   -0.8445   -0.6569   -0.0047 C   0  0  0  0  0  0  0  0  0  0  0  0
   -0.5813    0.7201    0.1553 C   0  0  0  0  0  0  0  0  0  0  0  0
   -1.7054    1.6533    0.2368 C   0  0  0  0  0  0  0  0  0  0  0  0
   -2.9653    1.1506    0.1545 C   0  0  0  0  0  0  0  0  0  0  0  0
   -3.1581   -0.2362   -0.0051 C   0  0  0  0  0  0  0  0  0  0  0  0
   -4.2930   -0.6723   -0.0775 O   0  0  0  0  0  0  0  0  0  0  0  0
   -2.1249   -1.0896   -0.0760 O   0  0  0  0  0  0  0  0  0  0  0  0
   -0.0514   -2.8872   -0.2350 O   0  0  0  0  0  0  0  0  0  0  0  0
    1.9749    2.8815   -1.4040 H   0  0  0  0  0  0  0  0  0  0  0  0
    0.2277    3.2218   -1.4012 H   0  0  0  0  0  0  0  0  0  0  0  0
    1.3487    4.3149   -0.5546 H   0  0  0  0  0  0  0  0  0  0  0  0
    3.8267    1.2848    0.2968 H   0  0  0  0  0  0  0  0  0  0  0  0
    4.7734   -1.1297    0.0503 H   0  0  0  0  0  0  0  0  0  0  0  0
   -1.5382    2.7132    0.3596 H   0  0  0  0  0  0  0  0  0  0  0  0
   -3.8169    1.8124    0.2115 H   0  0  0  0  0  0  0  0  0  0  0  0
   -0.1420   -3.3677    0.5993 H   0  0  0  0  0  0  0  0  0  0  0  0
  1  2  1  0  0  0  0
  2  3  1  0  0  0  0
  3  4  2  0  0  0  0
  4  5  1  0  0  0  0
  5  6  2  0  0  0  0
  6  7  1  0  0  0  0
  7  8  1  0  0  0  0
  4  8  1  0  0  0  0
  8  9  2  0  0  0  0
  9 10  1  0  0  0  0
 10 11  2  0  0  0  0
  3 11  1  0  0  0  0
 11 12  1  0  0  0  0
 12 13  2  0  0  0  0
 13 14  1  0  0  0  0
 14 15  2  0  0  0  0
 14 16  1  0  0  0  0
 10 16  1  0  0  0  0
  9 17  1  0  0  0  0
  1 18  1  0  0  0  0
  1 19  1  0  0  0  0
  1 20  1  0  0  0  0
  5 21  1  0  0  0  0
  6 22  1  0  0  0  0
 12 23  1  0  0  0  0
 13 24  1  0  0  0  0
 17 25  1  0  0  0  0
M  END
$$$$
