C16H12O6
APtclcactv06281816303D 0   0.00000     0.00000
 
 34 36  0  0  0  0  0  0  0  0999 V2000
   -3.5365    3.5850   -0.2080 C   0  0  0  0  0  0  0  0  0  0  0  0
   -4.1045    2.2762   -0.1288 O   0  0  0  0  0  0  0  0  0  0  0  0
   -3.2391    1.2310   -0.0669 C   0  0  0  0  0  0  0  0  0  0  0  0
   -3.7322   -0.0699    0.0118 C   0  0  0  0  0  0  0  0  0  0  0  0
   -2.8564   -1.1421    0.0749 C   0  0  0  0  0  0  0  0  0  0  0  0
   -1.4768   -0.9065    0.0589 C   0  0  0  0  0  0  0  0  0  0  0  0
   -0.9835    0.4077   -0.0206 C   0  0  0  0  0  0  0  0  0  0  0  0
   -1.8737    1.4679   -0.0882 C   0  0  0  0  0  0  0  0  0  0  0  0
    0.3496    0.6236   -0.0345 O   0  0  0  0  0  0  0  0  0  0  0  0
    1.2390   -0.3800    0.0254 C   0  0  0  0  0  0  0  0  0  0  0  0
    0.8643   -1.6854    0.1043 C   0  0  0  0  0  0  0  0  0  0  0  0
   -0.5110   -2.0166    0.1246 C   0  0  0  0  0  0  0  0  0  0  0  0
   -0.8827   -3.1770    0.1943 O   0  0  0  0  0  0  0  0  0  0  0  0
    2.6777   -0.0551    0.0045 C   0  0  0  0  0  0  0  0  0  0  0  0
    3.1574    1.0481    0.7161 C   0  0  0  0  0  0  0  0  0  0  0  0
    4.5016    1.3476    0.6941 C   0  0  0  0  0  0  0  0  0  0  0  0
    5.3803    0.5551   -0.0345 C   0  0  0  0  0  0  0  0  0  0  0  0
    4.9076   -0.5428   -0.7435 C   0  0  0  0  0  0  0  0  0  0  0  0
    3.5659   -0.8529   -0.7224 C   0  0  0  0  0  0  0  0  0  0  0  0
    6.7044    0.8544   -0.0542 O   0  0  0  0  0  0  0  0  0  0  0  0
   -3.3332   -2.4117    0.1520 O   0  0  0  0  0  0  0  0  0  0  0  0
   -5.0760   -0.2879    0.0272 O   0  0  0  0  0  0  0  0  0  0  0  0
   -2.9215    3.6605   -1.1047 H   0  0  0  0  0  0  0  0  0  0  0  0
   -4.3350    4.3257   -0.2516 H   0  0  0  0  0  0  0  0  0  0  0  0
   -2.9197    3.7673    0.6721 H   0  0  0  0  0  0  0  0  0  0  0  0
   -1.5028    2.4803   -0.1498 H   0  0  0  0  0  0  0  0  0  0  0  0
    1.6116   -2.4637    0.1506 H   0  0  0  0  0  0  0  0  0  0  0  0
    2.4751    1.6650    1.2820 H   0  0  0  0  0  0  0  0  0  0  0  0
    4.8731    2.1999    1.2437 H   0  0  0  0  0  0  0  0  0  0  0  0
    5.5940   -1.1561   -1.3084 H   0  0  0  0  0  0  0  0  0  0  0  0
    3.1993   -1.7062   -1.2736 H   0  0  0  0  0  0  0  0  0  0  0  0
    7.2142    0.4293    0.6491 H   0  0  0  0  0  0  0  0  0  0  0  0
   -3.4727   -2.8324   -0.7074 H   0  0  0  0  0  0  0  0  0  0  0  0
   -5.4658   -0.4036   -0.8502 H   0  0  0  0  0  0  0  0  0  0  0  0
  1  2  1  0  0  0  0
  2  3  1  0  0  0  0
  3  4  2  0  0  0  0
  4  5  1  0  0  0  0
  5  6  2  0  0  0  0
  6  7  1  0  0  0  0
  7  8  2  0  0  0  0
  3  8  1  0  0  0  0
  7  9  1  0  0  0  0
  9 10  1  0  0  0  0
 10 11  2  0  0  0  0
 11 12  1  0  0  0  0
  6 12  1  0  0  0  0
 12 13  2  0  0  0  0
 10 14  1  0  0  0  0
 14 15  2  0  0  0  0
 15 16  1  0  0  0  0
 16 17  2  0  0  0  0
 17 18  1  0  0  0  0
 18 19  2  0  0  0  0
 14 19  1  0  0  0  0
 17 20  1  0  0  0  0
  5 21  1  0  0  0  0
  4 22  1  0  0  0  0
  1 23  1  0  0  0  0
  1 24  1  0  0  0  0
  1 25  1  0  0  0  0
  8 26  1  0  0  0  0
 11 27  1  0  0  0  0
 15 28  1  0  0  0  0
 16 29  1  0  0  0  0
 18 30  1  0  0  0  0
 19 31  1  0  0  0  0
 20 32  1  0  0  0  0
 21 33  1  0  0  0  0
 22 34  1  0  0  0  0
M  END
$$$$
