C30H60O
APtclcactv06281816303D 0   0.00000     0.00000
 
 91 90  0  0  0  0  0  0  0  0999 V2000
   18.7231   -0.3799   -0.0611 C   0  0  0  0  0  0  0  0  0  0  0  0
   17.4707    0.4984   -0.0338 C   0  0  0  0  0  0  0  0  0  0  0  0
   16.2247   -0.3894   -0.0505 C   0  0  0  0  0  0  0  0  0  0  0  0
   14.9722    0.4890   -0.0232 C   0  0  0  0  0  0  0  0  0  0  0  0
   13.7263   -0.3988   -0.0399 C   0  0  0  0  0  0  0  0  0  0  0  0
   12.4738    0.4796   -0.0126 C   0  0  0  0  0  0  0  0  0  0  0  0
   11.2278   -0.4082   -0.0293 C   0  0  0  0  0  0  0  0  0  0  0  0
    9.9754    0.4701   -0.0020 C   0  0  0  0  0  0  0  0  0  0  0  0
    8.7294   -0.4177   -0.0187 C   0  0  0  0  0  0  0  0  0  0  0  0
    7.4769    0.4607    0.0087 C   0  0  0  0  0  0  0  0  0  0  0  0
    6.2309   -0.4271   -0.0081 C   0  0  0  0  0  0  0  0  0  0  0  0
    4.9785    0.4512    0.0193 C   0  0  0  0  0  0  0  0  0  0  0  0
    3.7325   -0.4365    0.0025 C   0  0  0  0  0  0  0  0  0  0  0  0
    2.4800    0.4418    0.0299 C   0  0  0  0  0  0  0  0  0  0  0  0
    1.2341   -0.4460    0.0131 C   0  0  0  0  0  0  0  0  0  0  0  0
   -0.0184    0.4324    0.0405 C   0  0  0  0  0  0  0  0  0  0  0  0
   -1.2644   -0.4554    0.0237 C   0  0  0  0  0  0  0  0  0  0  0  0
   -2.5168    0.4229    0.0511 C   0  0  0  0  0  0  0  0  0  0  0  0
   -3.7628   -0.4649    0.0344 C   0  0  0  0  0  0  0  0  0  0  0  0
   -5.0153    0.4135    0.0617 C   0  0  0  0  0  0  0  0  0  0  0  0
   -6.2613   -0.4743    0.0450 C   0  0  0  0  0  0  0  0  0  0  0  0
   -7.5137    0.4041    0.0723 C   0  0  0  0  0  0  0  0  0  0  0  0
   -8.7597   -0.4837    0.0556 C   0  0  0  0  0  0  0  0  0  0  0  0
  -10.0122    0.3946    0.0829 C   0  0  0  0  0  0  0  0  0  0  0  0
  -11.2581   -0.4932    0.0662 C   0  0  0  0  0  0  0  0  0  0  0  0
  -12.5106    0.3852    0.0936 C   0  0  0  0  0  0  0  0  0  0  0  0
  -13.7566   -0.5026    0.0768 C   0  0  0  0  0  0  0  0  0  0  0  0
  -15.0090    0.3757    0.1042 C   0  0  0  0  0  0  0  0  0  0  0  0
  -16.2550   -0.5120    0.0874 C   0  0  0  0  0  0  0  0  0  0  0  0
  -17.4886    0.3531    0.1144 C   0  0  0  0  0  0  0  0  0  0  0  0
  -18.3312    0.2302   -0.7420 O   0  0  0  0  0  0  0  0  0  0  0  0
   19.6108    0.2526   -0.0492 H   0  0  0  0  0  0  0  0  0  0  0  0
   18.7293   -1.0312    0.8128 H   0  0  0  0  0  0  0  0  0  0  0  0
   18.7216   -0.9868   -0.9666 H   0  0  0  0  0  0  0  0  0  0  0  0
   17.4722    1.1053    0.8716 H   0  0  0  0  0  0  0  0  0  0  0  0
   17.4645    1.1497   -0.9078 H   0  0  0  0  0  0  0  0  0  0  0  0
   16.2231   -0.9963   -0.9559 H   0  0  0  0  0  0  0  0  0  0  0  0
   16.2309   -1.0407    0.8234 H   0  0  0  0  0  0  0  0  0  0  0  0
   14.9738    1.0959    0.8822 H   0  0  0  0  0  0  0  0  0  0  0  0
   14.9661    1.1403   -0.8972 H   0  0  0  0  0  0  0  0  0  0  0  0
   13.7247   -1.0057   -0.9453 H   0  0  0  0  0  0  0  0  0  0  0  0
   13.7324   -1.0501    0.8341 H   0  0  0  0  0  0  0  0  0  0  0  0
   12.4754    1.0865    0.8928 H   0  0  0  0  0  0  0  0  0  0  0  0
   12.4676    1.1309   -0.8866 H   0  0  0  0  0  0  0  0  0  0  0  0
   11.2263   -1.0151   -0.9347 H   0  0  0  0  0  0  0  0  0  0  0  0
   11.2340   -1.0595    0.8447 H   0  0  0  0  0  0  0  0  0  0  0  0
    9.9769    1.0770    0.9035 H   0  0  0  0  0  0  0  0  0  0  0  0
    9.9692    1.1214   -0.8759 H   0  0  0  0  0  0  0  0  0  0  0  0
    8.7278   -1.0246   -0.9241 H   0  0  0  0  0  0  0  0  0  0  0  0
    8.7356   -1.0690    0.8553 H   0  0  0  0  0  0  0  0  0  0  0  0
    7.4785    1.0676    0.9141 H   0  0  0  0  0  0  0  0  0  0  0  0
    7.4707    1.1120   -0.8653 H   0  0  0  0  0  0  0  0  0  0  0  0
    6.2294   -1.0340   -0.9135 H   0  0  0  0  0  0  0  0  0  0  0  0
    6.2371   -1.0784    0.8659 H   0  0  0  0  0  0  0  0  0  0  0  0
    4.9800    1.0582    0.9247 H   0  0  0  0  0  0  0  0  0  0  0  0
    4.9723    1.1026   -0.8547 H   0  0  0  0  0  0  0  0  0  0  0  0
    3.7310   -1.0434   -0.9029 H   0  0  0  0  0  0  0  0  0  0  0  0
    3.7387   -1.0879    0.8765 H   0  0  0  0  0  0  0  0  0  0  0  0
    2.4816    1.0487    0.9353 H   0  0  0  0  0  0  0  0  0  0  0  0
    2.4739    1.0931   -0.8441 H   0  0  0  0  0  0  0  0  0  0  0  0
    1.2325   -1.0529   -0.8923 H   0  0  0  0  0  0  0  0  0  0  0  0
    1.2402   -1.0973    0.8871 H   0  0  0  0  0  0  0  0  0  0  0  0
   -0.0168    1.0393    0.9459 H   0  0  0  0  0  0  0  0  0  0  0  0
   -0.0246    1.0837   -0.8335 H   0  0  0  0  0  0  0  0  0  0  0  0
   -1.2659   -1.0623   -0.8817 H   0  0  0  0  0  0  0  0  0  0  0  0
   -1.2582   -1.1067    0.8977 H   0  0  0  0  0  0  0  0  0  0  0  0
   -2.5153    1.0298    0.9565 H   0  0  0  0  0  0  0  0  0  0  0  0
   -2.5230    1.0742   -0.8229 H   0  0  0  0  0  0  0  0  0  0  0  0
   -3.7644   -1.0718   -0.8710 H   0  0  0  0  0  0  0  0  0  0  0  0
   -3.7566   -1.1162    0.9083 H   0  0  0  0  0  0  0  0  0  0  0  0
   -5.0137    1.0204    0.9671 H   0  0  0  0  0  0  0  0  0  0  0  0
   -5.0214    1.0648   -0.8123 H   0  0  0  0  0  0  0  0  0  0  0  0
   -6.2628   -1.0812   -0.8604 H   0  0  0  0  0  0  0  0  0  0  0  0
   -6.2551   -1.1256    0.9190 H   0  0  0  0  0  0  0  0  0  0  0  0
   -7.5122    1.0110    0.9777 H   0  0  0  0  0  0  0  0  0  0  0  0
   -7.5199    1.0554   -0.8017 H   0  0  0  0  0  0  0  0  0  0  0  0
   -8.7612   -1.0906   -0.8498 H   0  0  0  0  0  0  0  0  0  0  0  0
   -8.7535   -1.1350    0.9296 H   0  0  0  0  0  0  0  0  0  0  0  0
  -10.0106    1.0015    0.9883 H   0  0  0  0  0  0  0  0  0  0  0  0
  -10.0183    1.0459   -0.7910 H   0  0  0  0  0  0  0  0  0  0  0  0
  -11.2597   -1.1001   -0.8392 H   0  0  0  0  0  0  0  0  0  0  0  0
  -11.2520   -1.1445    0.9402 H   0  0  0  0  0  0  0  0  0  0  0  0
  -12.5090    0.9921    0.9990 H   0  0  0  0  0  0  0  0  0  0  0  0
  -12.5168    1.0365   -0.7804 H   0  0  0  0  0  0  0  0  0  0  0  0
  -13.7581   -1.1095   -0.8286 H   0  0  0  0  0  0  0  0  0  0  0  0
  -13.7504   -1.1539    0.9508 H   0  0  0  0  0  0  0  0  0  0  0  0
  -15.0075    0.9827    1.0096 H   0  0  0  0  0  0  0  0  0  0  0  0
  -15.0152    1.0271   -0.7698 H   0  0  0  0  0  0  0  0  0  0  0  0
  -16.2566   -1.1190   -0.8180 H   0  0  0  0  0  0  0  0  0  0  0  0
  -16.2488   -1.1634    0.9614 H   0  0  0  0  0  0  0  0  0  0  0  0
  -17.6192    1.0830    0.8996 H   0  0  0  0  0  0  0  0  0  0  0  0
  1  2  1  0  0  0  0
  2  3  1  0  0  0  0
  3  4  1  0  0  0  0
  4  5  1  0  0  0  0
  5  6  1  0  0  0  0
  6  7  1  0  0  0  0
  7  8  1  0  0  0  0
  8  9  1  0  0  0  0
  9 10  1  0  0  0  0
 10 11  1  0  0  0  0
 11 12  1  0  0  0  0
 12 13  1  0  0  0  0
 13 14  1  0  0  0  0
 14 15  1  0  0  0  0
 15 16  1  0  0  0  0
 16 17  1  0  0  0  0
 17 18  1  0  0  0  0
 18 19  1  0  0  0  0
 19 20  1  0  0  0  0
 20 21  1  0  0  0  0
 21 22  1  0  0  0  0
 22 23  1  0  0  0  0
 23 24  1  0  0  0  0
 24 25  1  0  0  0  0
 25 26  1  0  0  0  0
 26 27  1  0  0  0  0
 27 28  1  0  0  0  0
 28 29  1  0  0  0  0
 29 30  1  0  0  0  0
 30 31  2  0  0  0  0
  1 32  1  0  0  0  0
  1 33  1  0  0  0  0
  1 34  1  0  0  0  0
  2 35  1  0  0  0  0
  2 36  1  0  0  0  0
  3 37  1  0  0  0  0
  3 38  1  0  0  0  0
  4 39  1  0  0  0  0
  4 40  1  0  0  0  0
  5 41  1  0  0  0  0
  5 42  1  0  0  0  0
  6 43  1  0  0  0  0
  6 44  1  0  0  0  0
  7 45  1  0  0  0  0
  7 46  1  0  0  0  0
  8 47  1  0  0  0  0
  8 48  1  0  0  0  0
  9 49  1  0  0  0  0
  9 50  1  0  0  0  0
 10 51  1  0  0  0  0
 10 52  1  0  0  0  0
 11 53  1  0  0  0  0
 11 54  1  0  0  0  0
 12 55  1  0  0  0  0
 12 56  1  0  0  0  0
 13 57  1  0  0  0  0
 13 58  1  0  0  0  0
 14 59  1  0  0  0  0
 14 60  1  0  0  0  0
 15 61  1  0  0  0  0
 15 62  1  0  0  0  0
 16 63  1  0  0  0  0
 16 64  1  0  0  0  0
 17 65  1  0  0  0  0
 17 66  1  0  0  0  0
 18 67  1  0  0  0  0
 18 68  1  0  0  0  0
 19 69  1  0  0  0  0
 19 70  1  0  0  0  0
 20 71  1  0  0  0  0
 20 72  1  0  0  0  0
 21 73  1  0  0  0  0
 21 74  1  0  0  0  0
 22 75  1  0  0  0  0
 22 76  1  0  0  0  0
 23 77  1  0  0  0  0
 23 78  1  0  0  0  0
 24 79  1  0  0  0  0
 24 80  1  0  0  0  0
 25 81  1  0  0  0  0
 25 82  1  0  0  0  0
 26 83  1  0  0  0  0
 26 84  1  0  0  0  0
 27 85  1  0  0  0  0
 27 86  1  0  0  0  0
 28 87  1  0  0  0  0
 28 88  1  0  0  0  0
 29 89  1  0  0  0  0
 29 90  1  0  0  0  0
 30 91  1  0  0  0  0
M  END
$$$$
