C19H16NO4
APtclcactv06281816303D 0   0.00000     0.00000
 
 40 44  0  0  0  0  0  0  0  0999 V2000
    4.8977   -1.9371    0.8808 C   0  0  0  0  0  0  0  0  0  0  0  0
    4.5679   -1.2177   -0.3090 O   0  0  0  0  0  0  0  0  0  0  0  0
    3.8792   -0.0562   -0.1568 C   0  0  0  0  0  0  0  0  0  0  0  0
    4.5537    1.1400   -0.0012 C   0  0  0  0  0  0  0  0  0  0  0  0
    3.8563    2.3384    0.1569 C   0  0  0  0  0  0  0  0  0  0  0  0
    2.4939    2.3617    0.1681 C   0  0  0  0  0  0  0  0  0  0  0  0
    1.7753    1.1668    0.0201 C   0  0  0  0  0  0  0  0  0  0  0  0
    0.3724    1.1296    0.0451 C   0  0  0  0  0  0  0  0  0  0  0  0
   -0.2683   -0.0865   -0.1100 C   0  0  0  0  0  0  0  0  0  0  0  0
    0.4167   -1.2164   -0.3200 N   0  3  0  0  0  0  0  0  0  0  0  0
   -0.2900   -2.4760   -0.5783 C   0  0  0  0  0  0  0  0  0  0  0  0
   -1.5323   -2.5950    0.2987 C   0  0  0  0  0  0  0  0  0  0  0  0
   -2.3819   -1.3578    0.1471 C   0  0  0  0  0  0  0  0  0  0  0  0
   -3.7615   -1.4626    0.2094 C   0  0  0  0  0  0  0  0  0  0  0  0
   -4.4982   -0.2915    0.0764 C   0  0  0  0  0  0  0  0  0  0  0  0
   -3.8688    0.9501   -0.1114 C   0  0  0  0  0  0  0  0  0  0  0  0
   -2.4881    1.0528   -0.1777 C   0  0  0  0  0  0  0  0  0  0  0  0
   -1.7528   -0.1295   -0.0520 C   0  0  0  0  0  0  0  0  0  0  0  0
   -4.8174    1.9097   -0.2038 O   0  0  0  0  0  0  0  0  0  0  0  0
   -6.0240    1.3117    0.3139 C   0  0  0  0  0  0  0  0  0  0  0  0
   -5.8370   -0.1020    0.0949 O   0  0  0  0  0  0  0  0  0  0  0  0
    1.7332   -1.2368   -0.3268 C   0  0  0  0  0  0  0  0  0  0  0  0
    2.4723   -0.0583   -0.1618 C   0  0  0  0  0  0  0  0  0  0  0  0
    5.9139    1.1492   -0.0017 O   0  0  0  0  0  0  0  0  0  0  0  0
    5.5170   -1.3115    1.5237 H   0  0  0  0  0  0  0  0  0  0  0  0
    3.9826   -2.2062    1.4082 H   0  0  0  0  0  0  0  0  0  0  0  0
    5.4453   -2.8422    0.6181 H   0  0  0  0  0  0  0  0  0  0  0  0
    4.4048    3.2615    0.2725 H   0  0  0  0  0  0  0  0  0  0  0  0
    1.9692    3.2976    0.2910 H   0  0  0  0  0  0  0  0  0  0  0  0
   -0.1979    2.0362    0.1836 H   0  0  0  0  0  0  0  0  0  0  0  0
   -0.5869   -2.5116   -1.6265 H   0  0  0  0  0  0  0  0  0  0  0  0
    0.3782   -3.3111   -0.3678 H   0  0  0  0  0  0  0  0  0  0  0  0
   -2.1079   -3.4696   -0.0045 H   0  0  0  0  0  0  0  0  0  0  0  0
   -1.2316   -2.7030    1.3408 H   0  0  0  0  0  0  0  0  0  0  0  0
   -4.2459   -2.4168    0.3552 H   0  0  0  0  0  0  0  0  0  0  0  0
   -2.0009    2.0061   -0.3201 H   0  0  0  0  0  0  0  0  0  0  0  0
   -6.1285    1.5227    1.3782 H   0  0  0  0  0  0  0  0  0  0  0  0
   -6.8944    1.6714   -0.2349 H   0  0  0  0  0  0  0  0  0  0  0  0
    2.2505   -2.1747   -0.4653 H   0  0  0  0  0  0  0  0  0  0  0  0
    6.3061    1.2665   -0.8777 H   0  0  0  0  0  0  0  0  0  0  0  0
  1  2  1  0  0  0  0
  2  3  1  0  0  0  0
  3  4  2  0  0  0  0
  4  5  1  0  0  0  0
  5  6  2  0  0  0  0
  6  7  1  0  0  0  0
  7  8  2  0  0  0  0
  8  9  1  0  0  0  0
  9 10  2  0  0  0  0
 10 11  1  0  0  0  0
 11 12  1  0  0  0  0
 12 13  1  0  0  0  0
 13 14  2  0  0  0  0
 14 15  1  0  0  0  0
 15 16  2  0  0  0  0
 16 17  1  0  0  0  0
 17 18  2  0  0  0  0
 13 18  1  0  0  0  0
  9 18  1  0  0  0  0
 16 19  1  0  0  0  0
 19 20  1  0  0  0  0
 20 21  1  0  0  0  0
 15 21  1  0  0  0  0
 10 22  1  0  0  0  0
 22 23  2  0  0  0  0
  7 23  1  0  0  0  0
  3 23  1  0  0  0  0
  4 24  1  0  0  0  0
  1 25  1  0  0  0  0
  1 26  1  0  0  0  0
  1 27  1  0  0  0  0
  5 28  1  0  0  0  0
  6 29  1  0  0  0  0
  8 30  1  0  0  0  0
 11 31  1  0  0  0  0
 11 32  1  0  0  0  0
 12 33  1  0  0  0  0
 12 34  1  0  0  0  0
 14 35  1  0  0  0  0
 17 36  1  0  0  0  0
 20 37  1  0  0  0  0
 20 38  1  0  0  0  0
 22 39  1  0  0  0  0
 24 40  1  0  0  0  0
M  CHG  1  10   1
M  END
$$$$
