C26H52O
APtclcactv06281816303D 0   0.00000     0.00000
 
 79 78  0  0  0  0  0  0  0  0999 V2000
   16.2229    0.3714    0.0683 C   0  0  0  0  0  0  0  0  0  0  0  0
   14.9694   -0.5054    0.0372 C   0  0  0  0  0  0  0  0  0  0  0  0
   13.7245    0.3839    0.0545 C   0  0  0  0  0  0  0  0  0  0  0  0
   12.4710   -0.4929    0.0233 C   0  0  0  0  0  0  0  0  0  0  0  0
   11.2261    0.3963    0.0406 C   0  0  0  0  0  0  0  0  0  0  0  0
    9.9726   -0.4805    0.0095 C   0  0  0  0  0  0  0  0  0  0  0  0
    8.7276    0.4087    0.0268 C   0  0  0  0  0  0  0  0  0  0  0  0
    7.4742   -0.4681   -0.0044 C   0  0  0  0  0  0  0  0  0  0  0  0
    6.2292    0.4211    0.0129 C   0  0  0  0  0  0  0  0  0  0  0  0
    4.9758   -0.4557   -0.0182 C   0  0  0  0  0  0  0  0  0  0  0  0
    3.7308    0.4335   -0.0009 C   0  0  0  0  0  0  0  0  0  0  0  0
    2.4774   -0.4433   -0.0321 C   0  0  0  0  0  0  0  0  0  0  0  0
    1.2324    0.4459   -0.0148 C   0  0  0  0  0  0  0  0  0  0  0  0
   -0.0210   -0.4309   -0.0459 C   0  0  0  0  0  0  0  0  0  0  0  0
   -1.2660    0.4583   -0.0286 C   0  0  0  0  0  0  0  0  0  0  0  0
   -2.5195   -0.4185   -0.0598 C   0  0  0  0  0  0  0  0  0  0  0  0
   -3.7644    0.4707   -0.0425 C   0  0  0  0  0  0  0  0  0  0  0  0
   -5.0179   -0.4061   -0.0736 C   0  0  0  0  0  0  0  0  0  0  0  0
   -6.2628    0.4832   -0.0563 C   0  0  0  0  0  0  0  0  0  0  0  0
   -7.5163   -0.3936   -0.0875 C   0  0  0  0  0  0  0  0  0  0  0  0
   -8.7612    0.4956   -0.0702 C   0  0  0  0  0  0  0  0  0  0  0  0
  -10.0147   -0.3812   -0.1013 C   0  0  0  0  0  0  0  0  0  0  0  0
  -11.2596    0.5080   -0.0840 C   0  0  0  0  0  0  0  0  0  0  0  0
  -12.5131   -0.3688   -0.1152 C   0  0  0  0  0  0  0  0  0  0  0  0
  -13.7580    0.5204   -0.0979 C   0  0  0  0  0  0  0  0  0  0  0  0
  -14.9927   -0.3432   -0.1285 C   0  0  0  0  0  0  0  0  0  0  0  0
  -15.8361   -0.2214    0.7270 O   0  0  0  0  0  0  0  0  0  0  0  0
   16.2209    0.9761    0.9752 H   0  0  0  0  0  0  0  0  0  0  0  0
   17.1098   -0.2620    0.0560 H   0  0  0  0  0  0  0  0  0  0  0  0
   16.2310    1.0249   -0.8041 H   0  0  0  0  0  0  0  0  0  0  0  0
   14.9714   -1.1100   -0.8697 H   0  0  0  0  0  0  0  0  0  0  0  0
   14.9613   -1.1588    0.9095 H   0  0  0  0  0  0  0  0  0  0  0  0
   13.7224    0.9885    0.9613 H   0  0  0  0  0  0  0  0  0  0  0  0
   13.7325    1.0373   -0.8179 H   0  0  0  0  0  0  0  0  0  0  0  0
   12.4730   -1.0976   -0.8836 H   0  0  0  0  0  0  0  0  0  0  0  0
   12.4629   -1.1464    0.8957 H   0  0  0  0  0  0  0  0  0  0  0  0
   11.2240    1.0010    0.9475 H   0  0  0  0  0  0  0  0  0  0  0  0
   11.2341    1.0497   -0.8318 H   0  0  0  0  0  0  0  0  0  0  0  0
    9.9746   -1.0852   -0.8974 H   0  0  0  0  0  0  0  0  0  0  0  0
    9.9645   -1.1340    0.8819 H   0  0  0  0  0  0  0  0  0  0  0  0
    8.7256    1.0134    0.9337 H   0  0  0  0  0  0  0  0  0  0  0  0
    8.7357    1.0621   -0.8456 H   0  0  0  0  0  0  0  0  0  0  0  0
    7.4762   -1.0728   -0.9113 H   0  0  0  0  0  0  0  0  0  0  0  0
    7.4661   -1.1216    0.8680 H   0  0  0  0  0  0  0  0  0  0  0  0
    6.2272    1.0258    0.9198 H   0  0  0  0  0  0  0  0  0  0  0  0
    6.2373    1.0745   -0.8595 H   0  0  0  0  0  0  0  0  0  0  0  0
    4.9778   -1.0604   -0.9251 H   0  0  0  0  0  0  0  0  0  0  0  0
    4.9677   -1.1091    0.8542 H   0  0  0  0  0  0  0  0  0  0  0  0
    3.7288    1.0382    0.9060 H   0  0  0  0  0  0  0  0  0  0  0  0
    3.7389    1.0869   -0.8733 H   0  0  0  0  0  0  0  0  0  0  0  0
    2.4794   -1.0480   -0.9390 H   0  0  0  0  0  0  0  0  0  0  0  0
    2.4693   -1.0967    0.8403 H   0  0  0  0  0  0  0  0  0  0  0  0
    1.2304    1.0506    0.8921 H   0  0  0  0  0  0  0  0  0  0  0  0
    1.2405    1.0994   -0.8872 H   0  0  0  0  0  0  0  0  0  0  0  0
   -0.0190   -1.0356   -0.9528 H   0  0  0  0  0  0  0  0  0  0  0  0
   -0.0291   -1.0843    0.8265 H   0  0  0  0  0  0  0  0  0  0  0  0
   -1.2680    1.0630    0.8783 H   0  0  0  0  0  0  0  0  0  0  0  0
   -1.2579    1.1118   -0.9010 H   0  0  0  0  0  0  0  0  0  0  0  0
   -2.5174   -1.0232   -0.9667 H   0  0  0  0  0  0  0  0  0  0  0  0
   -2.5275   -1.0719    0.8126 H   0  0  0  0  0  0  0  0  0  0  0  0
   -3.7664    1.0754    0.8644 H   0  0  0  0  0  0  0  0  0  0  0  0
   -3.7563    1.1242   -0.9148 H   0  0  0  0  0  0  0  0  0  0  0  0
   -5.0158   -1.0108   -0.9805 H   0  0  0  0  0  0  0  0  0  0  0  0
   -5.0259   -1.0595    0.7988 H   0  0  0  0  0  0  0  0  0  0  0  0
   -6.2648    1.0878    0.8506 H   0  0  0  0  0  0  0  0  0  0  0  0
   -6.2547    1.1366   -0.9287 H   0  0  0  0  0  0  0  0  0  0  0  0
   -7.5142   -0.9983   -0.9943 H   0  0  0  0  0  0  0  0  0  0  0  0
   -7.5244   -1.0471    0.7849 H   0  0  0  0  0  0  0  0  0  0  0  0
   -8.7632    1.1003    0.8367 H   0  0  0  0  0  0  0  0  0  0  0  0
   -8.7531    1.1490   -0.9425 H   0  0  0  0  0  0  0  0  0  0  0  0
  -10.0127   -0.9859   -1.0082 H   0  0  0  0  0  0  0  0  0  0  0  0
  -10.0228   -1.0347    0.7711 H   0  0  0  0  0  0  0  0  0  0  0  0
  -11.2617    1.1127    0.8229 H   0  0  0  0  0  0  0  0  0  0  0  0
  -11.2516    1.1614   -0.9564 H   0  0  0  0  0  0  0  0  0  0  0  0
  -12.5111   -0.9735   -1.0220 H   0  0  0  0  0  0  0  0  0  0  0  0
  -12.5212   -1.0223    0.7572 H   0  0  0  0  0  0  0  0  0  0  0  0
  -13.7601    1.1251    0.8090 H   0  0  0  0  0  0  0  0  0  0  0  0
  -13.7500    1.1738   -0.9702 H   0  0  0  0  0  0  0  0  0  0  0  0
  -15.1231   -1.0711   -0.9157 H   0  0  0  0  0  0  0  0  0  0  0  0
  1  2  1  0  0  0  0
  2  3  1  0  0  0  0
  3  4  1  0  0  0  0
  4  5  1  0  0  0  0
  5  6  1  0  0  0  0
  6  7  1  0  0  0  0
  7  8  1  0  0  0  0
  8  9  1  0  0  0  0
  9 10  1  0  0  0  0
 10 11  1  0  0  0  0
 11 12  1  0  0  0  0
 12 13  1  0  0  0  0
 13 14  1  0  0  0  0
 14 15  1  0  0  0  0
 15 16  1  0  0  0  0
 16 17  1  0  0  0  0
 17 18  1  0  0  0  0
 18 19  1  0  0  0  0
 19 20  1  0  0  0  0
 20 21  1  0  0  0  0
 21 22  1  0  0  0  0
 22 23  1  0  0  0  0
 23 24  1  0  0  0  0
 24 25  1  0  0  0  0
 25 26  1  0  0  0  0
 26 27  2  0  0  0  0
  1 28  1  0  0  0  0
  1 29  1  0  0  0  0
  1 30  1  0  0  0  0
  2 31  1  0  0  0  0
  2 32  1  0  0  0  0
  3 33  1  0  0  0  0
  3 34  1  0  0  0  0
  4 35  1  0  0  0  0
  4 36  1  0  0  0  0
  5 37  1  0  0  0  0
  5 38  1  0  0  0  0
  6 39  1  0  0  0  0
  6 40  1  0  0  0  0
  7 41  1  0  0  0  0
  7 42  1  0  0  0  0
  8 43  1  0  0  0  0
  8 44  1  0  0  0  0
  9 45  1  0  0  0  0
  9 46  1  0  0  0  0
 10 47  1  0  0  0  0
 10 48  1  0  0  0  0
 11 49  1  0  0  0  0
 11 50  1  0  0  0  0
 12 51  1  0  0  0  0
 12 52  1  0  0  0  0
 13 53  1  0  0  0  0
 13 54  1  0  0  0  0
 14 55  1  0  0  0  0
 14 56  1  0  0  0  0
 15 57  1  0  0  0  0
 15 58  1  0  0  0  0
 16 59  1  0  0  0  0
 16 60  1  0  0  0  0
 17 61  1  0  0  0  0
 17 62  1  0  0  0  0
 18 63  1  0  0  0  0
 18 64  1  0  0  0  0
 19 65  1  0  0  0  0
 19 66  1  0  0  0  0
 20 67  1  0  0  0  0
 20 68  1  0  0  0  0
 21 69  1  0  0  0  0
 21 70  1  0  0  0  0
 22 71  1  0  0  0  0
 22 72  1  0  0  0  0
 23 73  1  0  0  0  0
 23 74  1  0  0  0  0
 24 75  1  0  0  0  0
 24 76  1  0  0  0  0
 25 77  1  0  0  0  0
 25 78  1  0  0  0  0
 26 79  1  0  0  0  0
M  END
$$$$
