C16H22O7
APtclcactv06281816303D 0   0.00000     0.00000
 
 45 46  0  0  0  0  0  0  0  0999 V2000
    2.5461    3.1225   -1.6266 C   0  0  0  0  0  0  0  0  0  0  0  0
    1.4678    2.4650   -0.9580 O   0  0  0  0  0  0  0  0  0  0  0  0
    1.7873    1.4126   -0.1581 C   0  0  0  0  0  0  0  0  0  0  0  0
    0.7872    0.7260    0.5235 C   0  0  0  0  0  0  0  0  0  0  0  0
    1.1178   -0.3456    1.3374 C   0  0  0  0  0  0  0  0  0  0  0  0
    2.4389   -0.7304    1.4708 C   0  0  0  0  0  0  0  0  0  0  0  0
    3.4326   -0.0480    0.7940 C   0  0  0  0  0  0  0  0  0  0  0  0
    3.1089    1.0181   -0.0244 C   0  0  0  0  0  0  0  0  0  0  0  0
    4.8712   -0.4714    0.9434 C   0  0  0  0  0  0  0  0  0  0  0  0
    5.2054   -1.4955   -0.1104 C   0  0  0  0  0  0  0  0  0  0  0  0
    6.2186   -1.2986   -0.9171 C   0  0  0  0  0  0  0  0  0  0  0  0
   -0.5119    1.1061    0.3915 O   0  0  0  0  0  0  0  0  0  0  0  0
   -1.4848    0.3553    1.1208 C   0  0  0  0  0  0  0  0  0  0  0  0
   -2.8621    1.0012    0.9485 C   0  0  0  0  0  0  0  0  0  0  0  0
   -3.2558    0.9588   -0.5312 C   0  0  0  0  0  0  0  0  0  0  0  0
   -3.2310   -0.4949   -1.0134 C   0  0  0  0  0  0  0  0  0  0  0  0
   -1.8395   -1.0829   -0.7654 C   0  0  0  0  0  0  0  0  0  0  0  0
   -1.5229   -0.9843    0.6247 O   0  0  0  0  0  0  0  0  0  0  0  0
   -1.8238   -2.5530   -1.1892 C   0  0  0  0  0  0  0  0  0  0  0  0
   -0.4972   -3.0697   -1.0673 O   0  0  0  0  0  0  0  0  0  0  0  0
   -4.2052   -1.2534   -0.2938 O   0  0  0  0  0  0  0  0  0  0  0  0
   -4.5715    1.4932   -0.6912 O   0  0  0  0  0  0  0  0  0  0  0  0
   -3.8265    0.2823    1.7201 O   0  0  0  0  0  0  0  0  0  0  0  0
    2.1542    3.9413   -2.2300 H   0  0  0  0  0  0  0  0  0  0  0  0
    3.2447    3.5170   -0.8887 H   0  0  0  0  0  0  0  0  0  0  0  0
    3.0620    2.4107   -2.2711 H   0  0  0  0  0  0  0  0  0  0  0  0
    0.3435   -0.8800    1.8677 H   0  0  0  0  0  0  0  0  0  0  0  0
    2.6953   -1.5658    2.1054 H   0  0  0  0  0  0  0  0  0  0  0  0
    3.8871    1.5496   -0.5521 H   0  0  0  0  0  0  0  0  0  0  0  0
    5.5196    0.3967    0.8250 H   0  0  0  0  0  0  0  0  0  0  0  0
    5.0214   -0.9050    1.9321 H   0  0  0  0  0  0  0  0  0  0  0  0
    4.6097   -2.3918   -0.2005 H   0  0  0  0  0  0  0  0  0  0  0  0
    6.4582   -2.0325   -1.6723 H   0  0  0  0  0  0  0  0  0  0  0  0
    6.8143   -0.4023   -0.8270 H   0  0  0  0  0  0  0  0  0  0  0  0
   -1.2181    0.3443    2.1776 H   0  0  0  0  0  0  0  0  0  0  0  0
   -2.8234    2.0370    1.2857 H   0  0  0  0  0  0  0  0  0  0  0  0
   -2.5480    1.5484   -1.1138 H   0  0  0  0  0  0  0  0  0  0  0  0
   -3.4562   -0.5289   -2.0793 H   0  0  0  0  0  0  0  0  0  0  0  0
   -1.1020   -0.5291   -1.3463 H   0  0  0  0  0  0  0  0  0  0  0  0
   -2.4962   -3.1231   -0.5481 H   0  0  0  0  0  0  0  0  0  0  0  0
   -2.1523   -2.6359   -2.2252 H   0  0  0  0  0  0  0  0  0  0  0  0
   -0.4124   -3.9993   -1.3199 H   0  0  0  0  0  0  0  0  0  0  0  0
   -5.1112   -0.9329   -0.4015 H   0  0  0  0  0  0  0  0  0  0  0  0
   -4.6617    2.4105   -0.3988 H   0  0  0  0  0  0  0  0  0  0  0  0
   -3.6371    0.2638    2.6681 H   0  0  0  0  0  0  0  0  0  0  0  0
  1  2  1  0  0  0  0
  2  3  1  0  0  0  0
  3  4  2  0  0  0  0
  4  5  1  0  0  0  0
  5  6  2  0  0  0  0
  6  7  1  0  0  0  0
  7  8  2  0  0  0  0
  3  8  1  0  0  0  0
  7  9  1  0  0  0  0
  9 10  1  0  0  0  0
 10 11  2  0  0  0  0
  4 12  1  0  0  0  0
 12 13  1  0  0  0  0
 13 14  1  0  0  0  0
 14 15  1  0  0  0  0
 15 16  1  0  0  0  0
 16 17  1  0  0  0  0
 17 18  1  0  0  0  0
 13 18  1  0  0  0  0
 17 19  1  0  0  0  0
 19 20  1  0  0  0  0
 16 21  1  0  0  0  0
 15 22  1  0  0  0  0
 14 23  1  0  0  0  0
  1 24  1  0  0  0  0
  1 25  1  0  0  0  0
  1 26  1  0  0  0  0
  5 27  1  0  0  0  0
  6 28  1  0  0  0  0
  8 29  1  0  0  0  0
  9 30  1  0  0  0  0
  9 31  1  0  0  0  0
 10 32  1  0  0  0  0
 11 33  1  0  0  0  0
 11 34  1  0  0  0  0
 13 35  1  0  0  0  0
 14 36  1  0  0  0  0
 15 37  1  0  0  0  0
 16 38  1  0  0  0  0
 17 39  1  0  0  0  0
 19 40  1  0  0  0  0
 19 41  1  0  0  0  0
 20 42  1  0  0  0  0
 21 43  1  0  0  0  0
 22 44  1  0  0  0  0
 23 45  1  0  0  0  0
M  END
$$$$
