C12H20N2O8
APtclcactv06281816303D 0   0.00000     0.00000
 
 42 42  0  0  0  0  0  0  0  0999 V2000
    5.4408    0.6544   -0.8125 C   0  0  0  0  0  0  0  0  0  0  0  0
    4.0535    1.2513   -1.1103 C   0  0  0  0  0  0  0  0  0  0  0  0
    3.5038   -0.0158   -0.5797 N   0  0  0  0  0  0  0  0  0  0  0  0
    4.7275   -0.2336    0.2230 C   0  0  0  0  0  0  0  0  0  0  0  0
    5.2040   -1.6632    0.2278 C   0  0  0  0  0  0  0  0  0  0  0  0
    4.5951   -2.5051   -0.3890 O   0  0  0  0  0  0  0  0  0  0  0  0
    6.3049   -2.0014    0.9174 O   0  0  0  0  0  0  0  0  0  0  0  0
    2.3440    0.2352    0.2862 C   0  0  0  0  0  0  0  0  0  0  0  0
    1.0634    0.1855   -0.5496 C   0  0  0  0  0  0  0  0  0  0  0  0
   -0.1446    0.4470    0.3522 C   0  0  0  0  0  0  0  0  0  0  0  0
   -0.0744    1.8526    0.8910 C   0  0  0  0  0  0  0  0  0  0  0  0
   -0.9628    2.6361    0.6525 O   0  0  0  0  0  0  0  0  0  0  0  0
    0.9749    2.2342    1.6359 O   0  0  0  0  0  0  0  0  0  0  0  0
   -1.3805    0.2814   -0.4244 N   0  0  0  0  0  0  0  0  0  0  0  0
   -2.5092   -0.0646    0.4497 C   0  0  0  0  0  0  0  0  0  0  0  0
   -3.7755   -0.2285   -0.3932 C   0  0  0  0  0  0  0  0  0  0  0  0
   -4.9512   -0.5889    0.5172 C   0  0  0  0  0  0  0  0  0  0  0  0
   -6.2206   -0.6298   -0.2940 C   0  0  0  0  0  0  0  0  0  0  0  0
   -6.8143   -1.6727   -0.4344 O   0  0  0  0  0  0  0  0  0  0  0  0
   -6.6915    0.4922   -0.8604 O   0  0  0  0  0  0  0  0  0  0  0  0
   -4.7214   -1.8699    1.1073 O   0  0  0  0  0  0  0  0  0  0  0  0
    1.1213    1.1845   -1.5697 O   0  0  0  0  0  0  0  0  0  0  0  0
    5.8676    0.0985   -1.6474 H   0  0  0  0  0  0  0  0  0  0  0  0
    6.1396    1.3662   -0.3730 H   0  0  0  0  0  0  0  0  0  0  0  0
    3.8112    2.1235   -0.5031 H   0  0  0  0  0  0  0  0  0  0  0  0
    3.8597    1.4037   -2.1720 H   0  0  0  0  0  0  0  0  0  0  0  0
    4.6824    0.2043    1.2201 H   0  0  0  0  0  0  0  0  0  0  0  0
    6.5715   -2.9305    0.8906 H   0  0  0  0  0  0  0  0  0  0  0  0
    2.2998   -0.5268    1.0643 H   0  0  0  0  0  0  0  0  0  0  0  0
    2.4399    1.2189    0.7459 H   0  0  0  0  0  0  0  0  0  0  0  0
    0.9675   -0.7981   -1.0093 H   0  0  0  0  0  0  0  0  0  0  0  0
   -0.1390   -0.2606    1.1813 H   0  0  0  0  0  0  0  0  0  0  0  0
    0.9756    3.1456    1.9592 H   0  0  0  0  0  0  0  0  0  0  0  0
   -1.5819    1.1096   -0.9644 H   0  0  0  0  0  0  0  0  0  0  0  0
   -2.2943   -0.9992    0.9679 H   0  0  0  0  0  0  0  0  0  0  0  0
   -2.6596    0.7299    1.1806 H   0  0  0  0  0  0  0  0  0  0  0  0
   -3.9905    0.7060   -0.9115 H   0  0  0  0  0  0  0  0  0  0  0  0
   -3.6252   -1.0230   -1.1241 H   0  0  0  0  0  0  0  0  0  0  0  0
   -5.0458    0.1611    1.3025 H   0  0  0  0  0  0  0  0  0  0  0  0
   -7.5091    0.4163   -1.3713 H   0  0  0  0  0  0  0  0  0  0  0  0
   -4.6270   -2.5873    0.4657 H   0  0  0  0  0  0  0  0  0  0  0  0
    1.2070    2.0867   -1.2323 H   0  0  0  0  0  0  0  0  0  0  0  0
  1  2  1  0  0  0  0
  2  3  1  0  0  0  0
  3  4  1  0  0  0  0
  1  4  1  0  0  0  0
  4  5  1  0  0  0  0
  5  6  2  0  0  0  0
  5  7  1  0  0  0  0
  3  8  1  0  0  0  0
  8  9  1  0  0  0  0
  9 10  1  0  0  0  0
 10 11  1  0  0  0  0
 11 12  2  0  0  0  0
 11 13  1  0  0  0  0
 10 14  1  0  0  0  0
 14 15  1  0  0  0  0
 15 16  1  0  0  0  0
 16 17  1  0  0  0  0
 17 18  1  0  0  0  0
 18 19  2  0  0  0  0
 18 20  1  0  0  0  0
 17 21  1  0  0  0  0
  9 22  1  0  0  0  0
  1 23  1  0  0  0  0
  1 24  1  0  0  0  0
  2 25  1  0  0  0  0
  2 26  1  0  0  0  0
  4 27  1  0  0  0  0
  7 28  1  0  0  0  0
  8 29  1  0  0  0  0
  8 30  1  0  0  0  0
  9 31  1  0  0  0  0
 10 32  1  0  0  0  0
 13 33  1  0  0  0  0
 14 34  1  0  0  0  0
 15 35  1  0  0  0  0
 15 36  1  0  0  0  0
 16 37  1  0  0  0  0
 16 38  1  0  0  0  0
 17 39  1  0  0  0  0
 20 40  1  0  0  0  0
 21 41  1  0  0  0  0
 22 42  1  0  0  0  0
M  END
$$$$
