C5H6N6
APtclcactv06211806193D 0   0.00000     0.00000
 
 17 18  0  0  0  0  0  0  0  0999 V2000
    2.6587   -0.7370   -0.0002 C   0  0  0  0  0  0  0  0  0  0  0  0
    1.6887   -1.6089   -0.0000 N   0  0  0  0  0  0  0  0  0  0  0  0
    0.5027   -0.9719    0.0002 C   0  0  0  0  0  0  0  0  0  0  0  0
    0.7794    0.4041    0.0001 C   0  0  0  0  0  0  0  0  0  0  0  0
    2.1557    0.5175   -0.0002 N   0  0  0  0  0  0  0  0  0  0  0  0
   -0.2883    1.3044   -0.0001 C   0  0  0  0  0  0  0  0  0  0  0  0
   -1.5278    0.8229   -0.0002 N   0  0  0  0  0  0  0  0  0  0  0  0
   -1.7538   -0.4849   -0.0001 C   0  0  0  0  0  0  0  0  0  0  0  0
   -0.7740   -1.3711   -0.0002 N   0  0  0  0  0  0  0  0  0  0  0  0
   -3.0639   -0.9368    0.0002 N   0  0  0  0  0  0  0  0  0  0  0  0
   -0.0608    2.6709    0.0002 N   0  0  0  0  0  0  0  0  0  0  0  0
    3.7106   -0.9818    0.0037 H   0  0  0  0  0  0  0  0  0  0  0  0
    2.6657    1.3426   -0.0000 H   0  0  0  0  0  0  0  0  0  0  0  0
   -3.7964   -0.3009    0.0004 H   0  0  0  0  0  0  0  0  0  0  0  0
   -3.2485   -1.8891    0.0003 H   0  0  0  0  0  0  0  0  0  0  0  0
    0.8475    3.0113    0.0006 H   0  0  0  0  0  0  0  0  0  0  0  0
   -0.8097    3.2873    0.0000 H   0  0  0  0  0  0  0  0  0  0  0  0
  1  2  2  0  0  0  0
  2  3  1  0  0  0  0
  3  4  2  0  0  0  0
  4  5  1  0  0  0  0
  1  5  1  0  0  0  0
  4  6  1  0  0  0  0
  6  7  2  0  0  0  0
  7  8  1  0  0  0  0
  8  9  2  0  0  0  0
  3  9  1  0  0  0  0
  8 10  1  0  0  0  0
  6 11  1  0  0  0  0
  1 12  1  0  0  0  0
  5 13  1  0  0  0  0
 10 14  1  0  0  0  0
 10 15  1  0  0  0  0
 11 16  1  0  0  0  0
 11 17  1  0  0  0  0
M  END
$$$$
