C10H12O2
APtclcactv06211806193D 0   0.00000     0.00000
 
 24 24  0  0  0  0  0  0  0  0999 V2000
    4.7255   -0.0027   -0.5100 C   0  0  0  0  0  0  0  0  0  0  0  0
    3.3098   -0.0060   -1.0902 C   0  0  0  0  0  0  0  0  0  0  0  0
    2.3062    0.0003    0.0341 C   0  0  0  0  0  0  0  0  0  0  0  0
    2.6845    0.0067    1.1816 O   0  0  0  0  0  0  0  0  0  0  0  0
    0.9921   -0.0013   -0.2394 O   0  0  0  0  0  0  0  0  0  0  0  0
    0.0831    0.0050    0.8929 C   0  0  0  0  0  0  0  0  0  0  0  0
   -1.3393    0.0022    0.3953 C   0  0  0  0  0  0  0  0  0  0  0  0
   -1.9917   -1.1963    0.1737 C   0  0  0  0  0  0  0  0  0  0  0  0
   -3.2965   -1.1989   -0.2828 C   0  0  0  0  0  0  0  0  0  0  0  0
   -3.9490   -0.0030   -0.5174 C   0  0  0  0  0  0  0  0  0  0  0  0
   -3.2970    1.1954   -0.2949 C   0  0  0  0  0  0  0  0  0  0  0  0
   -1.9936    1.1980    0.1657 C   0  0  0  0  0  0  0  0  0  0  0  0
    4.8668    0.8907    0.0982 H   0  0  0  0  0  0  0  0  0  0  0  0
    4.8669   -0.8892    0.1082 H   0  0  0  0  0  0  0  0  0  0  0  0
    5.4514   -0.0072   -1.3232 H   0  0  0  0  0  0  0  0  0  0  0  0
    3.1684    0.8806   -1.7083 H   0  0  0  0  0  0  0  0  0  0  0  0
    3.1684   -0.8994   -1.6984 H   0  0  0  0  0  0  0  0  0  0  0  0
    0.2564   -0.8816    1.5029 H   0  0  0  0  0  0  0  0  0  0  0  0
    0.2564    0.8983    1.4930 H   0  0  0  0  0  0  0  0  0  0  0  0
   -1.4818   -2.1305    0.3569 H   0  0  0  0  0  0  0  0  0  0  0  0
   -3.8059   -2.1352   -0.4566 H   0  0  0  0  0  0  0  0  0  0  0  0
   -4.9682   -0.0050   -0.8747 H   0  0  0  0  0  0  0  0  0  0  0  0
   -3.8067    2.1297   -0.4785 H   0  0  0  0  0  0  0  0  0  0  0  0
   -1.4842    2.1343    0.3396 H   0  0  0  0  0  0  0  0  0  0  0  0
  1  2  1  0  0  0  0
  2  3  1  0  0  0  0
  3  4  2  0  0  0  0
  3  5  1  0  0  0  0
  5  6  1  0  0  0  0
  6  7  1  0  0  0  0
  7  8  2  0  0  0  0
  8  9  1  0  0  0  0
  9 10  2  0  0  0  0
 10 11  1  0  0  0  0
 11 12  2  0  0  0  0
  7 12  1  0  0  0  0
  1 13  1  0  0  0  0
  1 14  1  0  0  0  0
  1 15  1  0  0  0  0
  2 16  1  0  0  0  0
  2 17  1  0  0  0  0
  6 18  1  0  0  0  0
  6 19  1  0  0  0  0
  8 20  1  0  0  0  0
  9 21  1  0  0  0  0
 10 22  1  0  0  0  0
 11 23  1  0  0  0  0
 12 24  1  0  0  0  0
M  END
$$$$
