C11H14O2
APtclcactv06211806193D 0   0.00000     0.00000
 
 27 27  0  0  0  0  0  0  0  0999 V2000
    5.3086    0.0114    0.5902 C   0  0  0  0  0  0  0  0  0  0  0  0
    4.2727   -0.0106   -0.5355 C   0  0  0  0  0  0  0  0  0  0  0  0
    2.8870    0.0010    0.0567 C   0  0  0  0  0  0  0  0  0  0  0  0
    2.7428    0.0244    1.2561 O   0  0  0  0  0  0  0  0  0  0  0  0
    1.8129   -0.0147   -0.7482 O   0  0  0  0  0  0  0  0  0  0  0  0
    0.5095   -0.0021   -0.1084 C   0  0  0  0  0  0  0  0  0  0  0  0
   -0.5840   -0.0230   -1.1783 C   0  0  0  0  0  0  0  0  0  0  0  0
   -1.9368   -0.0100   -0.5144 C   0  0  0  0  0  0  0  0  0  0  0  0
   -2.5572    1.1929   -0.2332 C   0  0  0  0  0  0  0  0  0  0  0  0
   -3.7980    1.2048    0.3759 C   0  0  0  0  0  0  0  0  0  0  0  0
   -4.4187    0.0139    0.7034 C   0  0  0  0  0  0  0  0  0  0  0  0
   -3.7987   -1.1890    0.4214 C   0  0  0  0  0  0  0  0  0  0  0  0
   -2.5598   -1.2010   -0.1916 C   0  0  0  0  0  0  0  0  0  0  0  0
    5.1766    0.9132    1.1880 H   0  0  0  0  0  0  0  0  0  0  0  0
    5.1765   -0.8664    1.2227 H   0  0  0  0  0  0  0  0  0  0  0  0
    6.3109    0.0030    0.1618 H   0  0  0  0  0  0  0  0  0  0  0  0
    4.4048    0.8672   -1.1681 H   0  0  0  0  0  0  0  0  0  0  0  0
    4.4047   -0.9124   -1.1333 H   0  0  0  0  0  0  0  0  0  0  0  0
    0.4097   -0.8798    0.5302 H   0  0  0  0  0  0  0  0  0  0  0  0
    0.4098    0.8998    0.4955 H   0  0  0  0  0  0  0  0  0  0  0  0
   -0.4843    0.8547   -1.8170 H   0  0  0  0  0  0  0  0  0  0  0  0
   -0.4843   -0.9249   -1.7822 H   0  0  0  0  0  0  0  0  0  0  0  0
   -2.0723    2.1234   -0.4891 H   0  0  0  0  0  0  0  0  0  0  0  0
   -4.2824    2.1446    0.5962 H   0  0  0  0  0  0  0  0  0  0  0  0
   -5.3879    0.0232    1.1799 H   0  0  0  0  0  0  0  0  0  0  0  0
   -4.2835   -2.1195    0.6776 H   0  0  0  0  0  0  0  0  0  0  0  0
   -2.0754   -2.1408   -0.4119 H   0  0  0  0  0  0  0  0  0  0  0  0
  1  2  1  0  0  0  0
  2  3  1  0  0  0  0
  3  4  2  0  0  0  0
  3  5  1  0  0  0  0
  5  6  1  0  0  0  0
  6  7  1  0  0  0  0
  7  8  1  0  0  0  0
  8  9  2  0  0  0  0
  9 10  1  0  0  0  0
 10 11  2  0  0  0  0
 11 12  1  0  0  0  0
 12 13  2  0  0  0  0
  8 13  1  0  0  0  0
  1 14  1  0  0  0  0
  1 15  1  0  0  0  0
  1 16  1  0  0  0  0
  2 17  1  0  0  0  0
  2 18  1  0  0  0  0
  6 19  1  0  0  0  0
  6 20  1  0  0  0  0
  7 21  1  0  0  0  0
  7 22  1  0  0  0  0
  9 23  1  0  0  0  0
 10 24  1  0  0  0  0
 11 25  1  0  0  0  0
 12 26  1  0  0  0  0
 13 27  1  0  0  0  0
M  END
$$$$
