C19H32
APtclcactv06211806193D 0   0.00000     0.00000
 
 51 51  0  0  0  0  0  0  0  0999 V2000
   10.4176   -0.0278   -0.0003 C   0  0  0  0  0  0  0  0  0  0  0  0
    9.1035   -0.8113   -0.0070 C   0  0  0  0  0  0  0  0  0  0  0  0
    7.9267    0.1664    0.0014 C   0  0  0  0  0  0  0  0  0  0  0  0
    6.6125   -0.6171   -0.0053 C   0  0  0  0  0  0  0  0  0  0  0  0
    5.4357    0.3606    0.0031 C   0  0  0  0  0  0  0  0  0  0  0  0
    4.1216   -0.4230   -0.0036 C   0  0  0  0  0  0  0  0  0  0  0  0
    2.9448    0.5548    0.0047 C   0  0  0  0  0  0  0  0  0  0  0  0
    1.6307   -0.2288   -0.0020 C   0  0  0  0  0  0  0  0  0  0  0  0
    0.4539    0.7490    0.0064 C   0  0  0  0  0  0  0  0  0  0  0  0
   -0.8602   -0.0346   -0.0003 C   0  0  0  0  0  0  0  0  0  0  0  0
   -2.0370    0.9432    0.0081 C   0  0  0  0  0  0  0  0  0  0  0  0
   -3.3511    0.1596    0.0014 C   0  0  0  0  0  0  0  0  0  0  0  0
   -4.5279    1.1374    0.0098 C   0  0  0  0  0  0  0  0  0  0  0  0
   -5.8223    0.3656    0.0032 C   0  0  0  0  0  0  0  0  0  0  0  0
   -6.4159    0.0014    1.1972 C   0  0  0  0  0  0  0  0  0  0  0  0
   -7.6032   -0.7066    1.1912 C   0  0  0  0  0  0  0  0  0  0  0  0
   -8.1971   -1.0499   -0.0089 C   0  0  0  0  0  0  0  0  0  0  0  0
   -7.6039   -0.6849   -1.2030 C   0  0  0  0  0  0  0  0  0  0  0  0
   -6.4189    0.0268   -1.1969 C   0  0  0  0  0  0  0  0  0  0  0  0
   10.4665    0.5920    0.8950 H   0  0  0  0  0  0  0  0  0  0  0  0
   11.2560   -0.7244   -0.0063 H   0  0  0  0  0  0  0  0  0  0  0  0
   10.4665    0.6072   -0.8849 H   0  0  0  0  0  0  0  0  0  0  0  0
    9.0545   -1.4311   -0.9023 H   0  0  0  0  0  0  0  0  0  0  0  0
    9.0546   -1.4463    0.8776 H   0  0  0  0  0  0  0  0  0  0  0  0
    7.9756    0.7862    0.8967 H   0  0  0  0  0  0  0  0  0  0  0  0
    7.9756    0.8014   -0.8832 H   0  0  0  0  0  0  0  0  0  0  0  0
    6.5636   -1.2369   -0.9006 H   0  0  0  0  0  0  0  0  0  0  0  0
    6.5636   -1.2522    0.8793 H   0  0  0  0  0  0  0  0  0  0  0  0
    5.4847    0.9804    0.8984 H   0  0  0  0  0  0  0  0  0  0  0  0
    5.4847    0.9956   -0.8815 H   0  0  0  0  0  0  0  0  0  0  0  0
    4.0727   -1.0427   -0.8990 H   0  0  0  0  0  0  0  0  0  0  0  0
    4.0727   -1.0580    0.8809 H   0  0  0  0  0  0  0  0  0  0  0  0
    2.9937    1.1746    0.9000 H   0  0  0  0  0  0  0  0  0  0  0  0
    2.9937    1.1898   -0.8798 H   0  0  0  0  0  0  0  0  0  0  0  0
    1.5818   -0.8485   -0.8973 H   0  0  0  0  0  0  0  0  0  0  0  0
    1.5818   -0.8638    0.8826 H   0  0  0  0  0  0  0  0  0  0  0  0
    0.5028    1.3688    0.9017 H   0  0  0  0  0  0  0  0  0  0  0  0
    0.5028    1.3840   -0.8782 H   0  0  0  0  0  0  0  0  0  0  0  0
   -0.9091   -0.6543   -0.8956 H   0  0  0  0  0  0  0  0  0  0  0  0
   -0.9091   -0.6696    0.8843 H   0  0  0  0  0  0  0  0  0  0  0  0
   -1.9881    1.5629    0.9034 H   0  0  0  0  0  0  0  0  0  0  0  0
   -1.9881    1.5782   -0.8765 H   0  0  0  0  0  0  0  0  0  0  0  0
   -3.4001   -0.4601   -0.8939 H   0  0  0  0  0  0  0  0  0  0  0  0
   -3.4000   -0.4754    0.8860 H   0  0  0  0  0  0  0  0  0  0  0  0
   -4.4790    1.7571    0.9051 H   0  0  0  0  0  0  0  0  0  0  0  0
   -4.4790    1.7724   -0.8748 H   0  0  0  0  0  0  0  0  0  0  0  0
   -5.9520    0.2697    2.1349 H   0  0  0  0  0  0  0  0  0  0  0  0
   -8.0667   -0.9917    2.1241 H   0  0  0  0  0  0  0  0  0  0  0  0
   -9.1243   -1.6037   -0.0137 H   0  0  0  0  0  0  0  0  0  0  0  0
   -8.0677   -0.9535   -2.1406 H   0  0  0  0  0  0  0  0  0  0  0  0
   -5.9554    0.3120   -2.1298 H   0  0  0  0  0  0  0  0  0  0  0  0
  1  2  1  0  0  0  0
  2  3  1  0  0  0  0
  3  4  1  0  0  0  0
  4  5  1  0  0  0  0
  5  6  1  0  0  0  0
  6  7  1  0  0  0  0
  7  8  1  0  0  0  0
  8  9  1  0  0  0  0
  9 10  1  0  0  0  0
 10 11  1  0  0  0  0
 11 12  1  0  0  0  0
 12 13  1  0  0  0  0
 13 14  1  0  0  0  0
 14 15  2  0  0  0  0
 15 16  1  0  0  0  0
 16 17  2  0  0  0  0
 17 18  1  0  0  0  0
 18 19  2  0  0  0  0
 14 19  1  0  0  0  0
  1 20  1  0  0  0  0
  1 21  1  0  0  0  0
  1 22  1  0  0  0  0
  2 23  1  0  0  0  0
  2 24  1  0  0  0  0
  3 25  1  0  0  0  0
  3 26  1  0  0  0  0
  4 27  1  0  0  0  0
  4 28  1  0  0  0  0
  5 29  1  0  0  0  0
  5 30  1  0  0  0  0
  6 31  1  0  0  0  0
  6 32  1  0  0  0  0
  7 33  1  0  0  0  0
  7 34  1  0  0  0  0
  8 35  1  0  0  0  0
  8 36  1  0  0  0  0
  9 37  1  0  0  0  0
  9 38  1  0  0  0  0
 10 39  1  0  0  0  0
 10 40  1  0  0  0  0
 11 41  1  0  0  0  0
 11 42  1  0  0  0  0
 12 43  1  0  0  0  0
 12 44  1  0  0  0  0
 13 45  1  0  0  0  0
 13 46  1  0  0  0  0
 15 47  1  0  0  0  0
 16 48  1  0  0  0  0
 17 49  1  0  0  0  0
 18 50  1  0  0  0  0
 19 51  1  0  0  0  0
M  END
$$$$
