C10H12O2
APtclcactv06211806193D 0   0.00000     0.00000
 
 24 24  0  0  0  0  0  0  0  0999 V2000
    4.4079   -0.2767    0.1631 C   0  0  0  0  0  0  0  0  0  0  0  0
    2.9075   -0.1703    0.2557 C   0  0  0  0  0  0  0  0  0  0  0  0
    2.3542   -0.3422    1.3152 O   0  0  0  0  0  0  0  0  0  0  0  0
    2.0976    0.1507   -0.9740 C   0  0  0  0  0  0  0  0  0  0  0  0
    0.6351    0.1988   -0.6138 C   0  0  0  0  0  0  0  0  0  0  0  0
    0.0631    1.3904   -0.2080 C   0  0  0  0  0  0  0  0  0  0  0  0
   -1.2774    1.4372    0.1227 C   0  0  0  0  0  0  0  0  0  0  0  0
   -2.0497    0.2872    0.0474 C   0  0  0  0  0  0  0  0  0  0  0  0
   -1.4734   -0.9072   -0.3601 C   0  0  0  0  0  0  0  0  0  0  0  0
   -0.1338   -0.9474   -0.6951 C   0  0  0  0  0  0  0  0  0  0  0  0
   -3.3685    0.3305    0.3727 O   0  0  0  0  0  0  0  0  0  0  0  0
   -4.1021   -0.8917    0.2717 C   0  0  0  0  0  0  0  0  0  0  0  0
    4.8166   -0.5132    1.1455 H   0  0  0  0  0  0  0  0  0  0  0  0
    4.6735   -1.0657   -0.5404 H   0  0  0  0  0  0  0  0  0  0  0  0
    4.8188    0.6719   -0.1826 H   0  0  0  0  0  0  0  0  0  0  0  0
    2.4063    1.1182   -1.3701 H   0  0  0  0  0  0  0  0  0  0  0  0
    2.2610   -0.6194   -1.7279 H   0  0  0  0  0  0  0  0  0  0  0  0
    0.6648    2.2853   -0.1492 H   0  0  0  0  0  0  0  0  0  0  0  0
   -1.7236    2.3681    0.4400 H   0  0  0  0  0  0  0  0  0  0  0  0
   -2.0726   -1.8038   -0.4195 H   0  0  0  0  0  0  0  0  0  0  0  0
    0.3153   -1.8770   -1.0124 H   0  0  0  0  0  0  0  0  0  0  0  0
   -5.1390   -0.7179    0.5591 H   0  0  0  0  0  0  0  0  0  0  0  0
   -4.0656   -1.2536   -0.7558 H   0  0  0  0  0  0  0  0  0  0  0  0
   -3.6611   -1.6359    0.9349 H   0  0  0  0  0  0  0  0  0  0  0  0
  1  2  1  0  0  0  0
  2  3  2  0  0  0  0
  2  4  1  0  0  0  0
  4  5  1  0  0  0  0
  5  6  2  0  0  0  0
  6  7  1  0  0  0  0
  7  8  2  0  0  0  0
  8  9  1  0  0  0  0
  9 10  2  0  0  0  0
  5 10  1  0  0  0  0
  8 11  1  0  0  0  0
 11 12  1  0  0  0  0
  1 13  1  0  0  0  0
  1 14  1  0  0  0  0
  1 15  1  0  0  0  0
  4 16  1  0  0  0  0
  4 17  1  0  0  0  0
  6 18  1  0  0  0  0
  7 19  1  0  0  0  0
  9 20  1  0  0  0  0
 10 21  1  0  0  0  0
 12 22  1  0  0  0  0
 12 23  1  0  0  0  0
 12 24  1  0  0  0  0
M  END
$$$$
