C6H8N2
APtclcactv06211806193D 0   0.00000     0.00000
 
 16 16  0  0  0  0  0  0  0  0999 V2000
    2.8441   -0.0006    0.0012 C   0  0  0  0  0  0  0  0  0  0  0  0
    1.3372   -0.0146    0.0010 C   0  0  0  0  0  0  0  0  0  0  0  0
    0.6342    1.1773   -0.0006 C   0  0  0  0  0  0  0  0  0  0  0  0
   -0.6871    1.1650   -0.0008 N   0  0  0  0  0  0  0  0  0  0  0  0
   -1.3372    0.0146    0.0002 C   0  0  0  0  0  0  0  0  0  0  0  0
   -0.6342   -1.1773    0.0014 C   0  0  0  0  0  0  0  0  0  0  0  0
    0.6871   -1.1650   -0.0030 N   0  0  0  0  0  0  0  0  0  0  0  0
   -2.8441    0.0006    0.0006 C   0  0  0  0  0  0  0  0  0  0  0  0
    3.2072    0.0041    1.0290 H   0  0  0  0  0  0  0  0  0  0  0  0
    3.2157   -0.8878   -0.5114 H   0  0  0  0  0  0  0  0  0  0  0  0
    3.1992    0.8921   -0.5137 H   0  0  0  0  0  0  0  0  0  0  0  0
    1.1655    2.1175   -0.0014 H   0  0  0  0  0  0  0  0  0  0  0  0
   -1.1655   -2.1175    0.0026 H   0  0  0  0  0  0  0  0  0  0  0  0
   -3.2076   -0.0036   -1.0270 H   0  0  0  0  0  0  0  0  0  0  0  0
   -3.1990   -0.8924    0.5151 H   0  0  0  0  0  0  0  0  0  0  0  0
   -3.2156    0.8875    0.5138 H   0  0  0  0  0  0  0  0  0  0  0  0
  1  2  1  0  0  0  0
  2  3  2  0  0  0  0
  3  4  1  0  0  0  0
  4  5  2  0  0  0  0
  5  6  1  0  0  0  0
  6  7  2  0  0  0  0
  2  7  1  0  0  0  0
  5  8  1  0  0  0  0
  1  9  1  0  0  0  0
  1 10  1  0  0  0  0
  1 11  1  0  0  0  0
  3 12  1  0  0  0  0
  6 13  1  0  0  0  0
  8 14  1  0  0  0  0
  8 15  1  0  0  0  0
  8 16  1  0  0  0  0
M  END
$$$$
