C19H22O5
APtclcactv06211806473D 0   0.00000     0.00000
 
 46 50  0  0  0  0  0  0  0  0999 V2000
    3.2227    1.4296   -0.6861 C   0  0  0  0  0  0  0  0  0  0  0  0
    2.6066    0.0867   -0.2887 C   0  0  0  0  0  0  0  0  0  0  0  0
    3.5879   -1.0906   -0.4478 C   0  0  0  0  0  0  0  0  0  0  0  0
    2.8902   -2.4182   -0.3868 C   0  0  0  0  0  0  0  0  0  0  0  0
    1.5915   -2.5668   -0.2546 C   0  0  0  0  0  0  0  0  0  0  0  0
    0.7616   -1.3359   -0.1362 C   0  0  0  0  0  0  0  0  0  0  0  0
    1.3771   -0.2902   -1.1453 C   0  0  0  0  0  0  0  0  0  0  0  0
    0.3061    0.8147   -1.1862 C   0  0  0  0  0  0  0  0  0  0  0  0
   -0.9920    0.1468   -0.7476 C   0  0  0  0  0  0  0  0  0  0  0  0
   -0.6768   -1.3487   -0.5595 C   0  0  0  0  0  0  0  0  0  0  0  0
   -1.6814   -2.1330    0.1946 C   0  0  0  0  0  0  0  0  0  0  0  0
   -2.6392   -1.3867    1.0955 C   0  0  0  0  0  0  0  0  0  0  0  0
   -2.8768    0.0588    0.6679 C   0  0  0  0  0  0  0  0  0  0  0  0
   -1.4722    0.7232    0.6028 C   0  0  0  0  0  0  0  0  0  0  0  0
   -3.3992    0.1272   -0.7550 C   0  0  0  0  0  0  0  0  0  0  0  0
   -4.6537    0.0582   -1.1260 C   0  0  0  0  0  0  0  0  0  0  0  0
   -2.1923    0.2912   -1.6732 C   0  0  0  0  0  0  0  0  0  0  0  0
   -3.7343    0.7382    1.5872 O   0  0  0  0  0  0  0  0  0  0  0  0
    0.6676    1.9254   -0.2340 C   0  0  0  0  0  0  0  0  0  0  0  0
    0.5817    1.7507    0.9585 O   0  0  0  0  0  0  0  0  0  0  0  0
    1.0849    3.1088   -0.7106 O   0  0  0  0  0  0  0  0  0  0  0  0
    0.9726   -0.7197    1.1650 O   0  0  0  0  0  0  0  0  0  0  0  0
    2.0797    0.0776    1.1355 C   0  0  0  0  0  0  0  0  0  0  0  0
    2.5470    0.6667    2.0813 O   0  0  0  0  0  0  0  0  0  0  0  0
    3.1352    1.5648   -1.7641 H   0  0  0  0  0  0  0  0  0  0  0  0
    2.6969    2.2361   -0.1749 H   0  0  0  0  0  0  0  0  0  0  0  0
    4.2750    1.4448   -0.4023 H   0  0  0  0  0  0  0  0  0  0  0  0
    4.0958   -1.0011   -1.4080 H   0  0  0  0  0  0  0  0  0  0  0  0
    4.3299   -1.0434    0.3493 H   0  0  0  0  0  0  0  0  0  0  0  0
    3.4956   -3.3099   -0.4565 H   0  0  0  0  0  0  0  0  0  0  0  0
    1.1411   -3.5482   -0.2322 H   0  0  0  0  0  0  0  0  0  0  0  0
    1.6321   -0.7032   -2.1213 H   0  0  0  0  0  0  0  0  0  0  0  0
    0.2055    1.2043   -2.1993 H   0  0  0  0  0  0  0  0  0  0  0  0
   -0.6802   -1.7687   -1.5653 H   0  0  0  0  0  0  0  0  0  0  0  0
   -2.2745   -2.6938   -0.5277 H   0  0  0  0  0  0  0  0  0  0  0  0
   -1.1446   -2.8563    0.8083 H   0  0  0  0  0  0  0  0  0  0  0  0
   -3.5948   -1.9110    1.0994 H   0  0  0  0  0  0  0  0  0  0  0  0
   -2.2387   -1.3894    2.1092 H   0  0  0  0  0  0  0  0  0  0  0  0
   -0.8369    0.3947    1.4254 H   0  0  0  0  0  0  0  0  0  0  0  0
   -1.5462    1.8102    0.5690 H   0  0  0  0  0  0  0  0  0  0  0  0
   -5.4304   -0.0589   -0.3847 H   0  0  0  0  0  0  0  0  0  0  0  0
   -4.9113    0.1184   -2.1731 H   0  0  0  0  0  0  0  0  0  0  0  0
   -2.1985    1.2770   -2.1381 H   0  0  0  0  0  0  0  0  0  0  0  0
   -2.1832   -0.4897   -2.4336 H   0  0  0  0  0  0  0  0  0  0  0  0
   -4.6060    0.3315    1.6860 H   0  0  0  0  0  0  0  0  0  0  0  0
    1.3732    3.7661   -0.0625 H   0  0  0  0  0  0  0  0  0  0  0  0
  1  2  1  0  0  0  0
  2  3  1  0  0  0  0
  3  4  1  0  0  0  0
  4  5  2  0  0  0  0
  5  6  1  0  0  0  0
  6  7  1  0  0  0  0
  2  7  1  0  0  0  0
  7  8  1  0  0  0  0
  8  9  1  0  0  0  0
  9 10  1  0  0  0  0
  6 10  1  0  0  0  0
 10 11  1  0  0  0  0
 11 12  1  0  0  0  0
 12 13  1  0  0  0  0
 13 14  1  0  0  0  0
  9 14  1  0  0  0  0
 13 15  1  0  0  0  0
 15 16  2  0  0  0  0
 15 17  1  0  0  0  0
  9 17  1  0  0  0  0
 13 18  1  0  0  0  0
  8 19  1  0  0  0  0
 19 20  2  0  0  0  0
 19 21  1  0  0  0  0
  6 22  1  0  0  0  0
 22 23  1  0  0  0  0
  2 23  1  0  0  0  0
 23 24  2  0  0  0  0
  1 25  1  0  0  0  0
  1 26  1  0  0  0  0
  1 27  1  0  0  0  0
  3 28  1  0  0  0  0
  3 29  1  0  0  0  0
  4 30  1  0  0  0  0
  5 31  1  0  0  0  0
  7 32  1  0  0  0  0
  8 33  1  0  0  0  0
 10 34  1  0  0  0  0
 11 35  1  0  0  0  0
 11 36  1  0  0  0  0
 12 37  1  0  0  0  0
 12 38  1  0  0  0  0
 14 39  1  0  0  0  0
 14 40  1  0  0  0  0
 16 41  1  0  0  0  0
 16 42  1  0  0  0  0
 17 43  1  0  0  0  0
 17 44  1  0  0  0  0
 18 45  1  0  0  0  0
 21 46  1  0  0  0  0
M  END
$$$$
