C27H45NO2
APtclcactv06211806243D 0   0.00000     0.00000
 
 75 80  0  0  0  0  0  0  0  0999 V2000
    7.7018   -1.2043   -0.8455 C   0  0  0  0  0  0  0  0  0  0  0  0
    6.5649   -0.6801    0.0335 C   0  0  0  0  0  0  0  0  0  0  0  0
    5.9277    0.5440   -0.6298 C   0  0  0  0  0  0  0  0  0  0  0  0
    4.7636    1.0353    0.2369 C   0  0  0  0  0  0  0  0  0  0  0  0
    3.7773   -0.1007    0.4584 C   0  0  0  0  0  0  0  0  0  0  0  0
    2.6000    0.3889    1.3524 C   0  0  0  0  0  0  0  0  0  0  0  0
    1.8316    1.2403    0.3539 C   0  0  0  0  0  0  0  0  0  0  0  0
    2.1826    0.6214   -1.0393 C   0  0  0  0  0  0  0  0  0  0  0  0
    3.1127   -0.4453   -0.7730 O   0  0  0  0  0  0  0  0  0  0  0  0
    0.8664    0.0255   -1.5998 C   0  0  0  0  0  0  0  0  0  0  0  0
   -0.0695   -0.0207   -0.3834 C   0  0  0  0  0  0  0  0  0  0  0  0
    0.3112    1.2641    0.3744 C   0  0  0  0  0  0  0  0  0  0  0  0
   -0.4021    1.3666    1.6906 C   0  0  0  0  0  0  0  0  0  0  0  0
   -1.8931    1.0149    1.5664 C   0  0  0  0  0  0  0  0  0  0  0  0
   -2.3599    0.8874    0.1316 C   0  0  0  0  0  0  0  0  0  0  0  0
   -1.5410   -0.1262   -0.6587 C   0  0  0  0  0  0  0  0  0  0  0  0
   -1.9076   -0.0374   -2.1371 C   0  0  0  0  0  0  0  0  0  0  0  0
   -3.4049   -0.3355   -2.2935 C   0  0  0  0  0  0  0  0  0  0  0  0
   -4.0197   -0.6501   -0.9337 C   0  0  0  0  0  0  0  0  0  0  0  0
   -3.8455    0.5122    0.0399 C   0  0  0  0  0  0  0  0  0  0  0  0
   -4.3940    0.1092    1.4061 C   0  0  0  0  0  0  0  0  0  0  0  0
   -5.8757   -0.2515    1.2931 C   0  0  0  0  0  0  0  0  0  0  0  0
   -6.0863   -1.3706    0.2765 C   0  0  0  0  0  0  0  0  0  0  0  0
   -5.5024   -0.9906   -1.0840 C   0  0  0  0  0  0  0  0  0  0  0  0
   -5.4676   -2.5703    0.7464 O   0  0  0  0  0  0  0  0  0  0  0  0
   -4.5994    1.7489   -0.4639 C   0  0  0  0  0  0  0  0  0  0  0  0
   -0.0329    2.5143   -0.4739 C   0  0  0  0  0  0  0  0  0  0  0  0
    1.8883   -0.8157    1.9483 C   0  0  0  0  0  0  0  0  0  0  0  0
    4.4180   -1.2646    1.0566 N   0  0  0  0  0  0  0  0  0  0  0  0
    5.5059   -1.7716    0.2051 C   0  0  0  0  0  0  0  0  0  0  0  0
    8.4544   -0.4256   -0.9687 H   0  0  0  0  0  0  0  0  0  0  0  0
    8.1546   -2.0756   -0.3724 H   0  0  0  0  0  0  0  0  0  0  0  0
    7.3064   -1.4852   -1.8216 H   0  0  0  0  0  0  0  0  0  0  0  0
    6.9597   -0.4000    1.0103 H   0  0  0  0  0  0  0  0  0  0  0  0
    6.6710    1.3361   -0.7232 H   0  0  0  0  0  0  0  0  0  0  0  0
    5.5580    0.2728   -1.6183 H   0  0  0  0  0  0  0  0  0  0  0  0
    5.1493    1.3777    1.1987 H   0  0  0  0  0  0  0  0  0  0  0  0
    4.2657    1.8655   -0.2648 H   0  0  0  0  0  0  0  0  0  0  0  0
    3.0128    1.0121    2.1632 H   0  0  0  0  0  0  0  0  0  0  0  0
    2.2009    2.2891    0.3791 H   0  0  0  0  0  0  0  0  0  0  0  0
    2.6101    1.3682   -1.7077 H   0  0  0  0  0  0  0  0  0  0  0  0
    0.4577    0.6472   -2.3933 H   0  0  0  0  0  0  0  0  0  0  0  0
    1.0392   -0.9878   -1.9768 H   0  0  0  0  0  0  0  0  0  0  0  0
    0.2031   -0.9163    0.2059 H   0  0  0  0  0  0  0  0  0  0  0  0
    0.0515    0.7488    2.4642 H   0  0  0  0  0  0  0  0  0  0  0  0
   -0.3262    2.4125    2.0508 H   0  0  0  0  0  0  0  0  0  0  0  0
   -2.0724    0.0675    2.0946 H   0  0  0  0  0  0  0  0  0  0  0  0
   -2.4818    1.7883    2.0769 H   0  0  0  0  0  0  0  0  0  0  0  0
   -2.3150    1.8669   -0.3592 H   0  0  0  0  0  0  0  0  0  0  0  0
   -1.8472   -1.1390   -0.3144 H   0  0  0  0  0  0  0  0  0  0  0  0
   -1.6972    0.9630   -2.5123 H   0  0  0  0  0  0  0  0  0  0  0  0
   -1.3331   -0.7705   -2.7033 H   0  0  0  0  0  0  0  0  0  0  0  0
   -3.9016    0.5148   -2.7538 H   0  0  0  0  0  0  0  0  0  0  0  0
   -3.5219   -1.2051   -2.9487 H   0  0  0  0  0  0  0  0  0  0  0  0
   -3.5188   -1.5363   -0.5191 H   0  0  0  0  0  0  0  0  0  0  0  0
   -3.8413   -0.7543    1.7811 H   0  0  0  0  0  0  0  0  0  0  0  0
   -4.2799    0.9387    2.1062 H   0  0  0  0  0  0  0  0  0  0  0  0
   -6.2265   -0.5976    2.2741 H   0  0  0  0  0  0  0  0  0  0  0  0
   -6.4636    0.6205    1.0166 H   0  0  0  0  0  0  0  0  0  0  0  0
   -7.1607   -1.5498    0.1628 H   0  0  0  0  0  0  0  0  0  0  0  0
   -6.0525   -0.1580   -1.5110 H   0  0  0  0  0  0  0  0  0  0  0  0
   -5.5983   -1.8491   -1.7601 H   0  0  0  0  0  0  0  0  0  0  0  0
   -5.8143   -2.8865    1.5920 H   0  0  0  0  0  0  0  0  0  0  0  0
   -5.6605    1.5164   -0.5528 H   0  0  0  0  0  0  0  0  0  0  0  0
   -4.4650    2.5688    0.2418 H   0  0  0  0  0  0  0  0  0  0  0  0
   -4.2084    2.0407   -1.4386 H   0  0  0  0  0  0  0  0  0  0  0  0
   -1.1083    2.6894   -0.4432 H   0  0  0  0  0  0  0  0  0  0  0  0
    0.4882    3.3822   -0.0699 H   0  0  0  0  0  0  0  0  0  0  0  0
    0.2793    2.3507   -1.5053 H   0  0  0  0  0  0  0  0  0  0  0  0
    2.5993   -1.4113    2.5209 H   0  0  0  0  0  0  0  0  0  0  0  0
    1.0870   -0.4763    2.6047 H   0  0  0  0  0  0  0  0  0  0  0  0
    1.4684   -1.4230    1.1464 H   0  0  0  0  0  0  0  0  0  0  0  0
    4.7692   -1.0513    1.9813 H   0  0  0  0  0  0  0  0  0  0  0  0
    5.1055   -2.0466   -0.7699 H   0  0  0  0  0  0  0  0  0  0  0  0
    5.9565   -2.6452    0.6750 H   0  0  0  0  0  0  0  0  0  0  0  0
  1  2  1  0  0  0  0
  2  3  1  0  0  0  0
  3  4  1  0  0  0  0
  4  5  1  0  0  0  0
  5  6  1  0  0  0  0
  6  7  1  0  0  0  0
  7  8  1  0  0  0  0
  8  9  1  0  0  0  0
  5  9  1  0  0  0  0
  8 10  1  0  0  0  0
 10 11  1  0  0  0  0
 11 12  1  0  0  0  0
  7 12  1  0  0  0  0
 12 13  1  0  0  0  0
 13 14  1  0  0  0  0
 14 15  1  0  0  0  0
 15 16  1  0  0  0  0
 11 16  1  0  0  0  0
 16 17  1  0  0  0  0
 17 18  1  0  0  0  0
 18 19  1  0  0  0  0
 19 20  1  0  0  0  0
 15 20  1  0  0  0  0
 20 21  1  0  0  0  0
 21 22  1  0  0  0  0
 22 23  1  0  0  0  0
 23 24  1  0  0  0  0
 19 24  1  0  0  0  0
 23 25  1  0  0  0  0
 20 26  1  0  0  0  0
 12 27  1  0  0  0  0
  6 28  1  0  0  0  0
  5 29  1  0  0  0  0
 29 30  1  0  0  0  0
  2 30  1  0  0  0  0
  1 31  1  0  0  0  0
  1 32  1  0  0  0  0
  1 33  1  0  0  0  0
  2 34  1  0  0  0  0
  3 35  1  0  0  0  0
  3 36  1  0  0  0  0
  4 37  1  0  0  0  0
  4 38  1  0  0  0  0
  6 39  1  0  0  0  0
  7 40  1  0  0  0  0
  8 41  1  0  0  0  0
 10 42  1  0  0  0  0
 10 43  1  0  0  0  0
 11 44  1  0  0  0  0
 13 45  1  0  0  0  0
 13 46  1  0  0  0  0
 14 47  1  0  0  0  0
 14 48  1  0  0  0  0
 15 49  1  0  0  0  0
 16 50  1  0  0  0  0
 17 51  1  0  0  0  0
 17 52  1  0  0  0  0
 18 53  1  0  0  0  0
 18 54  1  0  0  0  0
 19 55  1  0  0  0  0
 21 56  1  0  0  0  0
 21 57  1  0  0  0  0
 22 58  1  0  0  0  0
 22 59  1  0  0  0  0
 23 60  1  0  0  0  0
 24 61  1  0  0  0  0
 24 62  1  0  0  0  0
 25 63  1  0  0  0  0
 26 64  1  0  0  0  0
 26 65  1  0  0  0  0
 26 66  1  0  0  0  0
 27 67  1  0  0  0  0
 27 68  1  0  0  0  0
 27 69  1  0  0  0  0
 28 70  1  0  0  0  0
 28 71  1  0  0  0  0
 28 72  1  0  0  0  0
 29 73  1  0  0  0  0
 30 74  1  0  0  0  0
 30 75  1  0  0  0  0
M  END
$$$$
