C14H28O
APtclcactv06211806203D 0   0.00000     0.00000
 
 43 42  0  0  0  0  0  0  0  0999 V2000
    8.7175   -0.3229   -0.1036 C   0  0  0  0  0  0  0  0  0  0  0  0
    7.4552    0.5401   -0.0518 C   0  0  0  0  0  0  0  0  0  0  0  0
    6.2197   -0.3624   -0.0610 C   0  0  0  0  0  0  0  0  0  0  0  0
    4.9574    0.5006   -0.0092 C   0  0  0  0  0  0  0  0  0  0  0  0
    3.7219   -0.4019   -0.0184 C   0  0  0  0  0  0  0  0  0  0  0  0
    2.4596    0.4611    0.0334 C   0  0  0  0  0  0  0  0  0  0  0  0
    1.2241   -0.4414    0.0243 C   0  0  0  0  0  0  0  0  0  0  0  0
   -0.0382    0.4216    0.0761 C   0  0  0  0  0  0  0  0  0  0  0  0
   -1.2737   -0.4809    0.0669 C   0  0  0  0  0  0  0  0  0  0  0  0
   -2.5360    0.3821    0.1187 C   0  0  0  0  0  0  0  0  0  0  0  0
   -3.7715   -0.5204    0.1095 C   0  0  0  0  0  0  0  0  0  0  0  0
   -5.0338    0.3425    0.1613 C   0  0  0  0  0  0  0  0  0  0  0  0
   -6.2693   -0.5599    0.1522 C   0  0  0  0  0  0  0  0  0  0  0  0
   -7.5127    0.2901    0.2032 C   0  0  0  0  0  0  0  0  0  0  0  0
   -8.3647    0.1651   -0.6434 O   0  0  0  0  0  0  0  0  0  0  0  0
    8.7428   -0.9822    0.7640 H   0  0  0  0  0  0  0  0  0  0  0  0
    8.7114   -0.9213   -1.0147 H   0  0  0  0  0  0  0  0  0  0  0  0
    9.5977    0.3201   -0.0971 H   0  0  0  0  0  0  0  0  0  0  0  0
    7.4613    1.1385    0.8592 H   0  0  0  0  0  0  0  0  0  0  0  0
    7.4299    1.1994   -0.9194 H   0  0  0  0  0  0  0  0  0  0  0  0
    6.2136   -0.9608   -0.9720 H   0  0  0  0  0  0  0  0  0  0  0  0
    6.2450   -1.0217    0.8066 H   0  0  0  0  0  0  0  0  0  0  0  0
    4.9635    1.0990    0.9018 H   0  0  0  0  0  0  0  0  0  0  0  0
    4.9321    1.1599   -0.8768 H   0  0  0  0  0  0  0  0  0  0  0  0
    3.7158   -1.0003   -0.9294 H   0  0  0  0  0  0  0  0  0  0  0  0
    3.7472   -1.0612    0.8492 H   0  0  0  0  0  0  0  0  0  0  0  0
    2.4657    1.0595    0.9445 H   0  0  0  0  0  0  0  0  0  0  0  0
    2.4343    1.1204   -0.8342 H   0  0  0  0  0  0  0  0  0  0  0  0
    1.2180   -1.0398   -0.8868 H   0  0  0  0  0  0  0  0  0  0  0  0
    1.2493   -1.1007    0.8919 H   0  0  0  0  0  0  0  0  0  0  0  0
   -0.0321    1.0200    0.9871 H   0  0  0  0  0  0  0  0  0  0  0  0
   -0.0635    1.0809   -0.7915 H   0  0  0  0  0  0  0  0  0  0  0  0
   -1.2798   -1.0793   -0.8441 H   0  0  0  0  0  0  0  0  0  0  0  0
   -1.2485   -1.1402    0.9345 H   0  0  0  0  0  0  0  0  0  0  0  0
   -2.5299    0.9804    1.0297 H   0  0  0  0  0  0  0  0  0  0  0  0
   -2.5613    1.0414   -0.7489 H   0  0  0  0  0  0  0  0  0  0  0  0
   -3.7776   -1.1188   -0.8015 H   0  0  0  0  0  0  0  0  0  0  0  0
   -3.7463   -1.1797    0.9771 H   0  0  0  0  0  0  0  0  0  0  0  0
   -5.0278    0.9409    1.0724 H   0  0  0  0  0  0  0  0  0  0  0  0
   -5.0591    1.0019   -0.7063 H   0  0  0  0  0  0  0  0  0  0  0  0
   -6.2754   -1.1583   -0.7589 H   0  0  0  0  0  0  0  0  0  0  0  0
   -6.2441   -1.2193    1.0198 H   0  0  0  0  0  0  0  0  0  0  0  0
   -7.6417    1.0110    0.9969 H   0  0  0  0  0  0  0  0  0  0  0  0
  1  2  1  0  0  0  0
  2  3  1  0  0  0  0
  3  4  1  0  0  0  0
  4  5  1  0  0  0  0
  5  6  1  0  0  0  0
  6  7  1  0  0  0  0
  7  8  1  0  0  0  0
  8  9  1  0  0  0  0
  9 10  1  0  0  0  0
 10 11  1  0  0  0  0
 11 12  1  0  0  0  0
 12 13  1  0  0  0  0
 13 14  1  0  0  0  0
 14 15  2  0  0  0  0
  1 16  1  0  0  0  0
  1 17  1  0  0  0  0
  1 18  1  0  0  0  0
  2 19  1  0  0  0  0
  2 20  1  0  0  0  0
  3 21  1  0  0  0  0
  3 22  1  0  0  0  0
  4 23  1  0  0  0  0
  4 24  1  0  0  0  0
  5 25  1  0  0  0  0
  5 26  1  0  0  0  0
  6 27  1  0  0  0  0
  6 28  1  0  0  0  0
  7 29  1  0  0  0  0
  7 30  1  0  0  0  0
  8 31  1  0  0  0  0
  8 32  1  0  0  0  0
  9 33  1  0  0  0  0
  9 34  1  0  0  0  0
 10 35  1  0  0  0  0
 10 36  1  0  0  0  0
 11 37  1  0  0  0  0
 11 38  1  0  0  0  0
 12 39  1  0  0  0  0
 12 40  1  0  0  0  0
 13 41  1  0  0  0  0
 13 42  1  0  0  0  0
 14 43  1  0  0  0  0
M  END
$$$$
