C17H26O4
APtclcactv06211806473D 0   0.00000     0.00000
 
 47 49  0  0  0  0  0  0  0  0999 V2000
    4.7077    2.1369   -0.5915 C   0  0  0  0  0  0  0  0  0  0  0  0
    4.0621    0.8526   -0.1390 C   0  0  0  0  0  0  0  0  0  0  0  0
    4.6929    0.0578    0.5169 O   0  0  0  0  0  0  0  0  0  0  0  0
    2.7863    0.5917   -0.4646 O   0  0  0  0  0  0  0  0  0  0  0  0
    2.2297   -0.6644    0.0053 C   0  0  0  0  0  0  0  0  0  0  0  0
    3.0451   -1.8277   -0.5627 C   0  0  0  0  0  0  0  0  0  0  0  0
    2.2803   -0.7045    1.5339 C   0  0  0  0  0  0  0  0  0  0  0  0
    0.7772   -0.7844   -0.4603 C   0  0  0  0  0  0  0  0  0  0  0  0
    0.1827   -2.1101    0.0331 C   0  0  0  0  0  0  0  0  0  0  0  0
   -1.2127   -2.2572   -0.5730 C   0  0  0  0  0  0  0  0  0  0  0  0
   -2.1190   -1.1218   -0.1740 C   0  0  0  0  0  0  0  0  0  0  0  0
   -2.5463   -1.1762    1.3032 C   0  0  0  0  0  0  0  0  0  0  0  0
   -2.9904    0.1620    1.5985 O   0  0  0  0  0  0  0  0  0  0  0  0
   -2.3625    1.0968    0.7131 C   0  0  0  0  0  0  0  0  0  0  0  0
   -1.5001    0.2676   -0.2900 C   0  0  0  0  0  0  0  0  0  0  0  0
   -0.0506    0.3555    0.1319 C   0  0  0  0  0  0  0  0  0  0  0  0
   -1.7793    0.8940   -1.5356 O   0  0  0  0  0  0  0  0  0  0  0  0
   -2.9798    1.5163   -1.4551 C   0  0  0  0  0  0  0  0  0  0  0  0
   -3.4035    1.6881   -0.2213 C   0  0  0  0  0  0  0  0  0  0  0  0
   -1.5496    2.1566    1.4594 C   0  0  0  0  0  0  0  0  0  0  0  0
   -3.3738   -1.1616   -1.0484 C   0  0  0  0  0  0  0  0  0  0  0  0
    5.7370    2.1716   -0.2346 H   0  0  0  0  0  0  0  0  0  0  0  0
    4.6990    2.1840   -1.6805 H   0  0  0  0  0  0  0  0  0  0  0  0
    4.1541    2.9842   -0.1868 H   0  0  0  0  0  0  0  0  0  0  0  0
    4.0799   -1.7422   -0.2311 H   0  0  0  0  0  0  0  0  0  0  0  0
    2.6273   -2.7706   -0.2100 H   0  0  0  0  0  0  0  0  0  0  0  0
    3.0091   -1.7991   -1.6517 H   0  0  0  0  0  0  0  0  0  0  0  0
    1.6994    0.1243    1.9386 H   0  0  0  0  0  0  0  0  0  0  0  0
    1.8625   -1.6474    1.8866 H   0  0  0  0  0  0  0  0  0  0  0  0
    3.3151   -0.6189    1.8656 H   0  0  0  0  0  0  0  0  0  0  0  0
    0.7350   -0.7443   -1.5487 H   0  0  0  0  0  0  0  0  0  0  0  0
    0.8132   -2.9390   -0.2886 H   0  0  0  0  0  0  0  0  0  0  0  0
    0.1127   -2.1003    1.1208 H   0  0  0  0  0  0  0  0  0  0  0  0
   -1.1276   -2.2785   -1.6594 H   0  0  0  0  0  0  0  0  0  0  0  0
   -1.6499   -3.1964   -0.2340 H   0  0  0  0  0  0  0  0  0  0  0  0
   -3.3622   -1.8863    1.4375 H   0  0  0  0  0  0  0  0  0  0  0  0
   -1.6994   -1.4442    1.9348 H   0  0  0  0  0  0  0  0  0  0  0  0
    0.0069    0.3095    1.2194 H   0  0  0  0  0  0  0  0  0  0  0  0
    0.3611    1.3068   -0.2051 H   0  0  0  0  0  0  0  0  0  0  0  0
   -3.5365    1.8410   -2.3217 H   0  0  0  0  0  0  0  0  0  0  0  0
   -4.3268    2.1643    0.0740 H   0  0  0  0  0  0  0  0  0  0  0  0
   -0.7793    1.6693    2.0572 H   0  0  0  0  0  0  0  0  0  0  0  0
   -1.0808    2.8281    0.7401 H   0  0  0  0  0  0  0  0  0  0  0  0
   -2.2096    2.7273    2.1127 H   0  0  0  0  0  0  0  0  0  0  0  0
   -3.8806   -2.1171   -0.9134 H   0  0  0  0  0  0  0  0  0  0  0  0
   -4.0434   -0.3513   -0.7602 H   0  0  0  0  0  0  0  0  0  0  0  0
   -3.0914   -1.0447   -2.0947 H   0  0  0  0  0  0  0  0  0  0  0  0
  1  2  1  0  0  0  0
  2  3  2  0  0  0  0
  2  4  1  0  0  0  0
  4  5  1  0  0  0  0
  5  6  1  0  0  0  0
  5  7  1  0  0  0  0
  5  8  1  0  0  0  0
  8  9  1  0  0  0  0
  9 10  1  0  0  0  0
 10 11  1  0  0  0  0
 11 12  1  0  0  0  0
 12 13  1  0  0  0  0
 13 14  1  0  0  0  0
 14 15  1  0  0  0  0
 11 15  1  0  0  0  0
 15 16  1  0  0  0  0
  8 16  1  0  0  0  0
 15 17  1  0  0  0  0
 17 18  1  0  0  0  0
 18 19  2  0  0  0  0
 14 19  1  0  0  0  0
 14 20  1  0  0  0  0
 11 21  1  0  0  0  0
  1 22  1  0  0  0  0
  1 23  1  0  0  0  0
  1 24  1  0  0  0  0
  6 25  1  0  0  0  0
  6 26  1  0  0  0  0
  6 27  1  0  0  0  0
  7 28  1  0  0  0  0
  7 29  1  0  0  0  0
  7 30  1  0  0  0  0
  8 31  1  0  0  0  0
  9 32  1  0  0  0  0
  9 33  1  0  0  0  0
 10 34  1  0  0  0  0
 10 35  1  0  0  0  0
 12 36  1  0  0  0  0
 12 37  1  0  0  0  0
 16 38  1  0  0  0  0
 16 39  1  0  0  0  0
 18 40  1  0  0  0  0
 19 41  1  0  0  0  0
 20 42  1  0  0  0  0
 20 43  1  0  0  0  0
 20 44  1  0  0  0  0
 21 45  1  0  0  0  0
 21 46  1  0  0  0  0
 21 47  1  0  0  0  0
M  END
$$$$
