C21H20O10
APtclcactv06211806333D 0   0.00000     0.00000
 
 51 54  0  0  0  0  0  0  0  0999 V2000
    7.2030    1.3502   -0.3181 C   0  0  0  0  0  0  0  0  0  0  0  0
    5.7088    1.1748   -0.2312 C   0  0  0  0  0  0  0  0  0  0  0  0
    4.8953    2.2837   -0.1223 C   0  0  0  0  0  0  0  0  0  0  0  0
    3.5125    2.1382   -0.0414 C   0  0  0  0  0  0  0  0  0  0  0  0
    2.9497    0.8607   -0.0706 C   0  0  0  0  0  0  0  0  0  0  0  0
    3.7864   -0.2669   -0.1819 C   0  0  0  0  0  0  0  0  0  0  0  0
    5.1632   -0.0991   -0.2671 C   0  0  0  0  0  0  0  0  0  0  0  0
    3.1895   -1.6197   -0.2114 C   0  0  0  0  0  0  0  0  0  0  0  0
    3.8538   -2.5785   -0.5522 O   0  0  0  0  0  0  0  0  0  0  0  0
    1.7730   -1.7902    0.1799 C   0  0  0  0  0  0  0  0  0  0  0  0
    1.2602   -3.0529    0.4397 C   0  0  0  0  0  0  0  0  0  0  0  0
   -0.0760   -3.1979    0.8083 C   0  0  0  0  0  0  0  0  0  0  0  0
   -0.8982   -2.0884    0.9174 C   0  0  0  0  0  0  0  0  0  0  0  0
   -0.3999   -0.8168    0.6600 C   0  0  0  0  0  0  0  0  0  0  0  0
    0.9395   -0.6584    0.2901 C   0  0  0  0  0  0  0  0  0  0  0  0
    1.4870    0.6815    0.0146 C   0  0  0  0  0  0  0  0  0  0  0  0
    0.7415    1.6301   -0.1400 O   0  0  0  0  0  0  0  0  0  0  0  0
   -1.2092    0.2659    0.7670 O   0  0  0  0  0  0  0  0  0  0  0  0
   -2.5652    0.0270    1.1492 C   0  0  0  0  0  0  0  0  0  0  0  0
   -3.2855    1.3646    1.3382 C   0  0  0  0  0  0  0  0  0  0  0  0
   -3.3042    2.1185    0.0049 C   0  0  0  0  0  0  0  0  0  0  0  0
   -3.9763    1.2411   -1.0557 C   0  0  0  0  0  0  0  0  0  0  0  0
   -3.2293   -0.0917   -1.1523 C   0  0  0  0  0  0  0  0  0  0  0  0
   -3.2225   -0.7263    0.1281 O   0  0  0  0  0  0  0  0  0  0  0  0
   -3.9305   -0.9972   -2.1668 C   0  0  0  0  0  0  0  0  0  0  0  0
   -3.1693   -2.1937   -2.3433 O   0  0  0  0  0  0  0  0  0  0  0  0
   -5.3355    1.0010   -0.6855 O   0  0  0  0  0  0  0  0  0  0  0  0
   -4.0385    3.3353    0.1540 O   0  0  0  0  0  0  0  0  0  0  0  0
   -4.6264    1.1278    1.7718 O   0  0  0  0  0  0  0  0  0  0  0  0
   -0.5750   -4.4343    1.0616 O   0  0  0  0  0  0  0  0  0  0  0  0
    2.7172    3.2312    0.0655 O   0  0  0  0  0  0  0  0  0  0  0  0
    7.6290    1.3401    0.6852 H   0  0  0  0  0  0  0  0  0  0  0  0
    7.6310    0.5360   -0.9028 H   0  0  0  0  0  0  0  0  0  0  0  0
    7.4298    2.3015   -0.7995 H   0  0  0  0  0  0  0  0  0  0  0  0
    5.3334    3.2705   -0.0992 H   0  0  0  0  0  0  0  0  0  0  0  0
    5.8083   -0.9610   -0.3531 H   0  0  0  0  0  0  0  0  0  0  0  0
    1.8954   -3.9223    0.3561 H   0  0  0  0  0  0  0  0  0  0  0  0
   -1.9322   -2.2123    1.2036 H   0  0  0  0  0  0  0  0  0  0  0  0
   -2.5862   -0.5324    2.0844 H   0  0  0  0  0  0  0  0  0  0  0  0
   -2.7597    1.9591    2.0854 H   0  0  0  0  0  0  0  0  0  0  0  0
   -2.2825    2.3428   -0.3015 H   0  0  0  0  0  0  0  0  0  0  0  0
   -3.9445    1.7472   -2.0206 H   0  0  0  0  0  0  0  0  0  0  0  0
   -2.2036    0.0889   -1.4739 H   0  0  0  0  0  0  0  0  0  0  0  0
   -4.9256   -1.2503   -1.8011 H   0  0  0  0  0  0  0  0  0  0  0  0
   -4.0155   -0.4767   -3.1207 H   0  0  0  0  0  0  0  0  0  0  0  0
   -3.5556   -2.8161   -2.9746 H   0  0  0  0  0  0  0  0  0  0  0  0
   -5.8678    1.8039   -0.6010 H   0  0  0  0  0  0  0  0  0  0  0  0
   -3.6721    3.9372    0.8162 H   0  0  0  0  0  0  0  0  0  0  0  0
   -4.6902    0.6491    2.6095 H   0  0  0  0  0  0  0  0  0  0  0  0
   -0.4942   -4.7095    1.9851 H   0  0  0  0  0  0  0  0  0  0  0  0
    2.4302    3.5935   -0.7840 H   0  0  0  0  0  0  0  0  0  0  0  0
  1  2  1  0  0  0  0
  2  3  2  0  0  0  0
  3  4  1  0  0  0  0
  4  5  2  0  0  0  0
  5  6  1  0  0  0  0
  6  7  2  0  0  0  0
  2  7  1  0  0  0  0
  6  8  1  0  0  0  0
  8  9  2  0  0  0  0
  8 10  1  0  0  0  0
 10 11  2  0  0  0  0
 11 12  1  0  0  0  0
 12 13  2  0  0  0  0
 13 14  1  0  0  0  0
 14 15  2  0  0  0  0
 10 15  1  0  0  0  0
 15 16  1  0  0  0  0
  5 16  1  0  0  0  0
 16 17  2  0  0  0  0
 14 18  1  0  0  0  0
 18 19  1  0  0  0  0
 19 20  1  0  0  0  0
 20 21  1  0  0  0  0
 21 22  1  0  0  0  0
 22 23  1  0  0  0  0
 23 24  1  0  0  0  0
 19 24  1  0  0  0  0
 23 25  1  0  0  0  0
 25 26  1  0  0  0  0
 22 27  1  0  0  0  0
 21 28  1  0  0  0  0
 20 29  1  0  0  0  0
 12 30  1  0  0  0  0
  4 31  1  0  0  0  0
  1 32  1  0  0  0  0
  1 33  1  0  0  0  0
  1 34  1  0  0  0  0
  3 35  1  0  0  0  0
  7 36  1  0  0  0  0
 11 37  1  0  0  0  0
 13 38  1  0  0  0  0
 19 39  1  0  0  0  0
 20 40  1  0  0  0  0
 21 41  1  0  0  0  0
 22 42  1  0  0  0  0
 23 43  1  0  0  0  0
 25 44  1  0  0  0  0
 25 45  1  0  0  0  0
 26 46  1  0  0  0  0
 27 47  1  0  0  0  0
 28 48  1  0  0  0  0
 29 49  1  0  0  0  0
 30 50  1  0  0  0  0
 31 51  1  0  0  0  0
M  END
$$$$
