C15H16O8
APtclcactv06211806483D 0   0.00000     0.00000
 
 39 41  0  0  0  0  0  0  0  0999 V2000
    2.0385   -0.9400    1.5399 C   0  0  0  0  0  0  0  0  0  0  0  0
    0.8022   -0.4006    1.3330 C   0  0  0  0  0  0  0  0  0  0  0  0
    0.6222    0.6118    0.3922 C   0  0  0  0  0  0  0  0  0  0  0  0
    1.6940    1.0850   -0.3465 C   0  0  0  0  0  0  0  0  0  0  0  0
    2.9574    0.5482   -0.1491 C   0  0  0  0  0  0  0  0  0  0  0  0
    3.1331   -0.4735    0.8026 C   0  0  0  0  0  0  0  0  0  0  0  0
    4.4711   -1.0335    1.0034 C   0  0  0  0  0  0  0  0  0  0  0  0
    5.4926   -0.5389    0.2568 C   0  0  0  0  0  0  0  0  0  0  0  0
    5.2447    0.4860   -0.6793 C   0  0  0  0  0  0  0  0  0  0  0  0
    6.1694    0.9205   -1.3422 O   0  0  0  0  0  0  0  0  0  0  0  0
    4.0158    0.9953   -0.8583 O   0  0  0  0  0  0  0  0  0  0  0  0
   -0.6140    1.1381    0.1980 O   0  0  0  0  0  0  0  0  0  0  0  0
   -1.6774    0.6065    0.9908 C   0  0  0  0  0  0  0  0  0  0  0  0
   -2.9587    1.4011    0.7253 C   0  0  0  0  0  0  0  0  0  0  0  0
   -3.3524    1.2431   -0.7466 C   0  0  0  0  0  0  0  0  0  0  0  0
   -3.5162   -0.2467   -1.0627 C   0  0  0  0  0  0  0  0  0  0  0  0
   -2.2134   -0.9777   -0.7281 C   0  0  0  0  0  0  0  0  0  0  0  0
   -1.8887   -0.7644    0.6471 O   0  0  0  0  0  0  0  0  0  0  0  0
   -2.3885   -2.4758   -0.9846 C   0  0  0  0  0  0  0  0  0  0  0  0
   -1.1405   -3.1425   -0.7843 O   0  0  0  0  0  0  0  0  0  0  0  0
   -4.5818   -0.7869   -0.2787 O   0  0  0  0  0  0  0  0  0  0  0  0
   -4.5871    1.9213   -0.9866 O   0  0  0  0  0  0  0  0  0  0  0  0
   -4.0095    0.9045    1.5567 O   0  0  0  0  0  0  0  0  0  0  0  0
    2.1729   -1.7212    2.2734 H   0  0  0  0  0  0  0  0  0  0  0  0
   -0.0423   -0.7609    1.9017 H   0  0  0  0  0  0  0  0  0  0  0  0
    1.5464    1.8693   -1.0742 H   0  0  0  0  0  0  0  0  0  0  0  0
    4.6414   -1.8182    1.7257 H   0  0  0  0  0  0  0  0  0  0  0  0
    6.4919   -0.9294    0.3802 H   0  0  0  0  0  0  0  0  0  0  0  0
   -1.4159    0.6806    2.0464 H   0  0  0  0  0  0  0  0  0  0  0  0
   -2.7860    2.4547    0.9451 H   0  0  0  0  0  0  0  0  0  0  0  0
   -2.5731    1.6667   -1.3800 H   0  0  0  0  0  0  0  0  0  0  0  0
   -3.7424   -0.3716   -2.1217 H   0  0  0  0  0  0  0  0  0  0  0  0
   -1.4093   -0.5929   -1.3554 H   0  0  0  0  0  0  0  0  0  0  0  0
   -3.1303   -2.8783   -0.2947 H   0  0  0  0  0  0  0  0  0  0  0  0
   -2.7235   -2.6322   -2.0100 H   0  0  0  0  0  0  0  0  0  0  0  0
   -1.1771   -4.0977   -0.9301 H   0  0  0  0  0  0  0  0  0  0  0  0
   -5.4383   -0.3664   -0.4361 H   0  0  0  0  0  0  0  0  0  0  0  0
   -4.5576    2.8697   -0.8000 H   0  0  0  0  0  0  0  0  0  0  0  0
   -3.8254    0.9690    2.5038 H   0  0  0  0  0  0  0  0  0  0  0  0
  1  2  2  0  0  0  0
  2  3  1  0  0  0  0
  3  4  2  0  0  0  0
  4  5  1  0  0  0  0
  5  6  2  0  0  0  0
  1  6  1  0  0  0  0
  6  7  1  0  0  0  0
  7  8  2  0  0  0  0
  8  9  1  0  0  0  0
  9 10  2  0  0  0  0
  9 11  1  0  0  0  0
  5 11  1  0  0  0  0
  3 12  1  0  0  0  0
 12 13  1  0  0  0  0
 13 14  1  0  0  0  0
 14 15  1  0  0  0  0
 15 16  1  0  0  0  0
 16 17  1  0  0  0  0
 17 18  1  0  0  0  0
 13 18  1  0  0  0  0
 17 19  1  0  0  0  0
 19 20  1  0  0  0  0
 16 21  1  0  0  0  0
 15 22  1  0  0  0  0
 14 23  1  0  0  0  0
  1 24  1  0  0  0  0
  2 25  1  0  0  0  0
  4 26  1  0  0  0  0
  7 27  1  0  0  0  0
  8 28  1  0  0  0  0
 13 29  1  0  0  0  0
 14 30  1  0  0  0  0
 15 31  1  0  0  0  0
 16 32  1  0  0  0  0
 17 33  1  0  0  0  0
 19 34  1  0  0  0  0
 19 35  1  0  0  0  0
 20 36  1  0  0  0  0
 21 37  1  0  0  0  0
 22 38  1  0  0  0  0
 23 39  1  0  0  0  0
M  END
$$$$
