C8H10N2
APtclcactv06211806203D 0   0.00000     0.00000
 
 20 21  0  0  0  0  0  0  0  0999 V2000
    2.1462   -1.3029   -0.8531 C   0  0  0  0  0  0  0  0  0  0  0  0
    1.5420   -0.6571    0.3955 C   0  0  0  0  0  0  0  0  0  0  0  0
    2.1016    0.7688    0.5850 C   0  0  0  0  0  0  0  0  0  0  0  0
    1.0573    1.6359   -0.1498 C   0  0  0  0  0  0  0  0  0  0  0  0
   -0.2297    0.8415   -0.0901 C   0  0  0  0  0  0  0  0  0  0  0  0
   -1.4825    1.2216   -0.2846 N   0  0  0  0  0  0  0  0  0  0  0  0
   -2.4663    0.3469   -0.1803 C   0  0  0  0  0  0  0  0  0  0  0  0
   -2.1875   -0.9714    0.1332 C   0  0  0  0  0  0  0  0  0  0  0  0
   -0.9383   -1.3525    0.3276 N   0  0  0  0  0  0  0  0  0  0  0  0
    0.0492   -0.4772    0.2235 C   0  0  0  0  0  0  0  0  0  0  0  0
    3.2296   -1.3571   -0.7461 H   0  0  0  0  0  0  0  0  0  0  0  0
    1.7423   -2.3080   -0.9739 H   0  0  0  0  0  0  0  0  0  0  0  0
    1.8972   -0.7035   -1.7288 H   0  0  0  0  0  0  0  0  0  0  0  0
    1.7523   -1.2659    1.2748 H   0  0  0  0  0  0  0  0  0  0  0  0
    2.1468    1.0298    1.6424 H   0  0  0  0  0  0  0  0  0  0  0  0
    3.0822    0.8653    0.1189 H   0  0  0  0  0  0  0  0  0  0  0  0
    0.9352    2.5925    0.3581 H   0  0  0  0  0  0  0  0  0  0  0  0
    1.3573    1.7924   -1.1859 H   0  0  0  0  0  0  0  0  0  0  0  0
   -3.4875    0.6605   -0.3393 H   0  0  0  0  0  0  0  0  0  0  0  0
   -2.9909   -1.6880    0.2193 H   0  0  0  0  0  0  0  0  0  0  0  0
  1  2  1  0  0  0  0
  2  3  1  0  0  0  0
  3  4  1  0  0  0  0
  4  5  1  0  0  0  0
  5  6  2  0  0  0  0
  6  7  1  0  0  0  0
  7  8  2  0  0  0  0
  8  9  1  0  0  0  0
  9 10  2  0  0  0  0
  2 10  1  0  0  0  0
  5 10  1  0  0  0  0
  1 11  1  0  0  0  0
  1 12  1  0  0  0  0
  1 13  1  0  0  0  0
  2 14  1  0  0  0  0
  3 15  1  0  0  0  0
  3 16  1  0  0  0  0
  4 17  1  0  0  0  0
  4 18  1  0  0  0  0
  7 19  1  0  0  0  0
  8 20  1  0  0  0  0
M  END
$$$$
