C9H6O2
APtclcactv06211802143D 0   0.00000     0.00000
 
 17 18  0  0  0  0  0  0  0  0999 V2000
   -2.8715    0.3901    0.0002 C   0  0  0  0  0  0  0  0  0  0  0  0
   -2.6406   -0.9777    0.0001 C   0  0  0  0  0  0  0  0  0  0  0  0
   -1.3534   -1.4741   -0.0001 C   0  0  0  0  0  0  0  0  0  0  0  0
   -0.2756   -0.5983   -0.0001 C   0  0  0  0  0  0  0  0  0  0  0  0
   -0.5136    0.7875    0.0001 C   0  0  0  0  0  0  0  0  0  0  0  0
   -1.8255    1.2702    0.0002 C   0  0  0  0  0  0  0  0  0  0  0  0
    0.6299    1.7051    0.0001 C   0  0  0  0  0  0  0  0  0  0  0  0
    1.8783    1.1731   -0.0001 C   0  0  0  0  0  0  0  0  0  0  0  0
    2.0436   -0.2290   -0.0002 C   0  0  0  0  0  0  0  0  0  0  0  0
    3.1692   -0.6937    0.0000 O   0  0  0  0  0  0  0  0  0  0  0  0
    0.9921   -1.0627    0.0002 O   0  0  0  0  0  0  0  0  0  0  0  0
   -3.8852    0.7625   -0.0042 H   0  0  0  0  0  0  0  0  0  0  0  0
   -3.4769   -1.6610    0.0004 H   0  0  0  0  0  0  0  0  0  0  0  0
   -1.1844   -2.5408    0.0001 H   0  0  0  0  0  0  0  0  0  0  0  0
   -2.0119    2.3340   -0.0000 H   0  0  0  0  0  0  0  0  0  0  0  0
    0.4827    2.7751   -0.0001 H   0  0  0  0  0  0  0  0  0  0  0  0
    2.7429    1.8204   -0.0004 H   0  0  0  0  0  0  0  0  0  0  0  0
  1  2  2  0  0  0  0
  2  3  1  0  0  0  0
  3  4  2  0  0  0  0
  4  5  1  0  0  0  0
  5  6  2  0  0  0  0
  1  6  1  0  0  0  0
  5  7  1  0  0  0  0
  7  8  2  0  0  0  0
  8  9  1  0  0  0  0
  9 10  2  0  0  0  0
  9 11  1  0  0  0  0
  4 11  1  0  0  0  0
  1 12  1  0  0  0  0
  2 13  1  0  0  0  0
  3 14  1  0  0  0  0
  6 15  1  0  0  0  0
  7 16  1  0  0  0  0
  8 17  1  0  0  0  0
M  END
$$$$
