C30H34O10
APtclcactv06211806483D 0   0.00000     0.00000
 
 74 77  0  0  0  0  0  0  0  0999 V2000
   -0.2433    6.0355    0.0283 C   0  0  0  0  0  0  0  0  0  0  0  0
   -1.4098    5.2271   -0.1388 O   0  0  0  0  0  0  0  0  0  0  0  0
   -1.2178    3.8886   -0.2841 C   0  0  0  0  0  0  0  0  0  0  0  0
    0.0647    3.3654   -0.2662 C   0  0  0  0  0  0  0  0  0  0  0  0
    0.2582    2.0042   -0.4141 C   0  0  0  0  0  0  0  0  0  0  0  0
   -0.8258    1.1630   -0.5804 C   0  0  0  0  0  0  0  0  0  0  0  0
   -2.1087    1.6789   -0.5992 C   0  0  0  0  0  0  0  0  0  0  0  0
   -2.3099    3.0408   -0.4454 C   0  0  0  0  0  0  0  0  0  0  0  0
   -3.5708    3.5497   -0.4637 O   0  0  0  0  0  0  0  0  0  0  0  0
   -3.2882    0.7587   -0.7808 C   0  0  0  0  0  0  0  0  0  0  0  0
   -3.1639    0.0282   -2.1194 C   0  0  0  0  0  0  0  0  0  0  0  0
   -4.3374   -0.7553   -2.3453 O   0  0  0  0  0  0  0  0  0  0  0  0
   -3.3175   -0.2636    0.3572 C   0  0  0  0  0  0  0  0  0  0  0  0
   -4.4971   -1.1837    0.1756 C   0  0  0  0  0  0  0  0  0  0  0  0
   -5.6870   -0.9164    0.8265 C   0  0  0  0  0  0  0  0  0  0  0  0
   -6.7725   -1.7614    0.6606 C   0  0  0  0  0  0  0  0  0  0  0  0
   -6.6615   -2.8783   -0.1619 C   0  0  0  0  0  0  0  0  0  0  0  0
   -5.4660   -3.1405   -0.8115 C   0  0  0  0  0  0  0  0  0  0  0  0
   -4.3886   -2.2903   -0.6461 C   0  0  0  0  0  0  0  0  0  0  0  0
   -7.7240   -3.7110   -0.3276 O   0  0  0  0  0  0  0  0  0  0  0  0
   -7.9437   -1.5001    1.3006 O   0  0  0  0  0  0  0  0  0  0  0  0
   -7.9846   -0.3365    2.1290 C   0  0  0  0  0  0  0  0  0  0  0  0
   -2.1103   -1.0280    0.3420 O   0  0  0  0  0  0  0  0  0  0  0  0
    1.6541    1.4367   -0.3943 C   0  0  0  0  0  0  0  0  0  0  0  0
    2.0380    1.0767    1.0423 C   0  0  0  0  0  0  0  0  0  0  0  0
    1.1683   -0.0873    1.5694 C   0  0  0  0  0  0  0  0  0  0  0  0
    1.9264   -1.2877    1.2363 O   0  0  0  0  0  0  0  0  0  0  0  0
    3.2394   -1.0176    1.2524 C   0  0  0  0  0  0  0  0  0  0  0  0
    4.1164   -1.8400    1.3723 O   0  0  0  0  0  0  0  0  0  0  0  0
    3.4585    0.4717    1.0972 C   0  0  0  0  0  0  0  0  0  0  0  0
    4.2134    0.7665   -0.2006 C   0  0  0  0  0  0  0  0  0  0  0  0
    5.6099    0.2076   -0.1075 C   0  0  0  0  0  0  0  0  0  0  0  0
    5.8644   -1.0857   -0.5242 C   0  0  0  0  0  0  0  0  0  0  0  0
    7.1478   -1.6010   -0.4393 C   0  0  0  0  0  0  0  0  0  0  0  0
    8.1782   -0.8140    0.0660 C   0  0  0  0  0  0  0  0  0  0  0  0
    7.9163    0.4815    0.4820 C   0  0  0  0  0  0  0  0  0  0  0  0
    6.6347    0.9914    0.3892 C   0  0  0  0  0  0  0  0  0  0  0  0
    9.4394   -1.3154    0.1518 O   0  0  0  0  0  0  0  0  0  0  0  0
    7.3998   -2.8732   -0.8484 O   0  0  0  0  0  0  0  0  0  0  0  0
    6.2938   -3.6227   -1.3555 C   0  0  0  0  0  0  0  0  0  0  0  0
    0.2938    5.7179    0.9220 H   0  0  0  0  0  0  0  0  0  0  0  0
    0.4030    5.9251   -0.8425 H   0  0  0  0  0  0  0  0  0  0  0  0
   -0.5370    7.0799    0.1328 H   0  0  0  0  0  0  0  0  0  0  0  0
    0.9135    4.0206   -0.1370 H   0  0  0  0  0  0  0  0  0  0  0  0
   -0.6705    0.1005   -0.6963 H   0  0  0  0  0  0  0  0  0  0  0  0
   -3.9914    3.5898    0.4062 H   0  0  0  0  0  0  0  0  0  0  0  0
   -4.2091    1.3418   -0.7692 H   0  0  0  0  0  0  0  0  0  0  0  0
   -3.0537    0.7572   -2.9223 H   0  0  0  0  0  0  0  0  0  0  0  0
   -2.2904   -0.6234   -2.0980 H   0  0  0  0  0  0  0  0  0  0  0  0
   -4.3277   -1.2471   -3.1779 H   0  0  0  0  0  0  0  0  0  0  0  0
   -3.4061    0.2568    1.3108 H   0  0  0  0  0  0  0  0  0  0  0  0
   -5.7704   -0.0490    1.4647 H   0  0  0  0  0  0  0  0  0  0  0  0
   -5.3772   -4.0067   -1.4504 H   0  0  0  0  0  0  0  0  0  0  0  0
   -3.4573   -2.4957   -1.1529 H   0  0  0  0  0  0  0  0  0  0  0  0
   -8.3009   -3.4705   -1.0654 H   0  0  0  0  0  0  0  0  0  0  0  0
   -7.2344   -0.4234    2.9150 H   0  0  0  0  0  0  0  0  0  0  0  0
   -7.7774    0.5470    1.5251 H   0  0  0  0  0  0  0  0  0  0  0  0
   -8.9733   -0.2453    2.5789 H   0  0  0  0  0  0  0  0  0  0  0  0
   -1.9657   -1.5186   -0.4786 H   0  0  0  0  0  0  0  0  0  0  0  0
    1.6913    0.5417   -1.0155 H   0  0  0  0  0  0  0  0  0  0  0  0
    2.3531    2.1776   -0.7824 H   0  0  0  0  0  0  0  0  0  0  0  0
    1.9579    1.9471    1.6935 H   0  0  0  0  0  0  0  0  0  0  0  0
    1.0379   -0.0067    2.6486 H   0  0  0  0  0  0  0  0  0  0  0  0
    0.2005   -0.0968    1.0679 H   0  0  0  0  0  0  0  0  0  0  0  0
    4.0060    0.8659    1.9534 H   0  0  0  0  0  0  0  0  0  0  0  0
    3.6916    0.3028   -1.0378 H   0  0  0  0  0  0  0  0  0  0  0  0
    4.2629    1.8443   -0.3553 H   0  0  0  0  0  0  0  0  0  0  0  0
    5.0628   -1.6945   -0.9156 H   0  0  0  0  0  0  0  0  0  0  0  0
    8.7142    1.0944    0.8745 H   0  0  0  0  0  0  0  0  0  0  0  0
    6.4319    2.0013    0.7138 H   0  0  0  0  0  0  0  0  0  0  0  0
    9.9773   -1.1644   -0.6376 H   0  0  0  0  0  0  0  0  0  0  0  0
    5.5291   -3.7093   -0.5836 H   0  0  0  0  0  0  0  0  0  0  0  0
    5.8772   -3.1128   -2.2242 H   0  0  0  0  0  0  0  0  0  0  0  0
    6.6316   -4.6176   -1.6456 H   0  0  0  0  0  0  0  0  0  0  0  0
  1  2  1  0  0  0  0
  2  3  1  0  0  0  0
  3  4  2  0  0  0  0
  4  5  1  0  0  0  0
  5  6  2  0  0  0  0
  6  7  1  0  0  0  0
  7  8  2  0  0  0  0
  3  8  1  0  0  0  0
  8  9  1  0  0  0  0
  7 10  1  0  0  0  0
 10 11  1  0  0  0  0
 11 12  1  0  0  0  0
 10 13  1  0  0  0  0
 13 14  1  0  0  0  0
 14 15  2  0  0  0  0
 15 16  1  0  0  0  0
 16 17  2  0  0  0  0
 17 18  1  0  0  0  0
 18 19  2  0  0  0  0
 14 19  1  0  0  0  0
 17 20  1  0  0  0  0
 16 21  1  0  0  0  0
 21 22  1  0  0  0  0
 13 23  1  0  0  0  0
  5 24  1  0  0  0  0
 24 25  1  0  0  0  0
 25 26  1  0  0  0  0
 26 27  1  0  0  0  0
 27 28  1  0  0  0  0
 28 29  2  0  0  0  0
 28 30  1  0  0  0  0
 25 30  1  0  0  0  0
 30 31  1  0  0  0  0
 31 32  1  0  0  0  0
 32 33  2  0  0  0  0
 33 34  1  0  0  0  0
 34 35  2  0  0  0  0
 35 36  1  0  0  0  0
 36 37  2  0  0  0  0
 32 37  1  0  0  0  0
 35 38  1  0  0  0  0
 34 39  1  0  0  0  0
 39 40  1  0  0  0  0
  1 41  1  0  0  0  0
  1 42  1  0  0  0  0
  1 43  1  0  0  0  0
  4 44  1  0  0  0  0
  6 45  1  0  0  0  0
  9 46  1  0  0  0  0
 10 47  1  0  0  0  0
 11 48  1  0  0  0  0
 11 49  1  0  0  0  0
 12 50  1  0  0  0  0
 13 51  1  0  0  0  0
 15 52  1  0  0  0  0
 18 53  1  0  0  0  0
 19 54  1  0  0  0  0
 20 55  1  0  0  0  0
 22 56  1  0  0  0  0
 22 57  1  0  0  0  0
 22 58  1  0  0  0  0
 23 59  1  0  0  0  0
 24 60  1  0  0  0  0
 24 61  1  0  0  0  0
 25 62  1  0  0  0  0
 26 63  1  0  0  0  0
 26 64  1  0  0  0  0
 30 65  1  0  0  0  0
 31 66  1  0  0  0  0
 31 67  1  0  0  0  0
 33 68  1  0  0  0  0
 36 69  1  0  0  0  0
 37 70  1  0  0  0  0
 38 71  1  0  0  0  0
 40 72  1  0  0  0  0
 40 73  1  0  0  0  0
 40 74  1  0  0  0  0
M  END
$$$$
