C11H2Cl9N3
APtclcactv06211806203D 0   0.00000     0.00000
 
 25 26  0  0  0  0  0  0  0  0999 V2000
    2.6849    0.9018   -0.0013 C   0  0  0  0  0  0  0  0  0  0  0  0
    1.8503   -0.2149   -0.0011 C   0  0  0  0  0  0  0  0  0  0  0  0
    2.4060   -1.4953   -0.0007 C   0  0  0  0  0  0  0  0  0  0  0  0
    3.7782   -1.6496   -0.0005 C   0  0  0  0  0  0  0  0  0  0  0  0
    4.6022   -0.5373   -0.0001 C   0  0  0  0  0  0  0  0  0  0  0  0
    4.0556    0.7361   -0.0010 C   0  0  0  0  0  0  0  0  0  0  0  0
    5.0963    2.1256   -0.0000 Cl  0  0  0  0  0  0  0  0  0  0  0  0
    6.3265   -0.7384    0.0008 Cl  0  0  0  0  0  0  0  0  0  0  0  0
    1.3739   -2.8912    0.0000 Cl  0  0  0  0  0  0  0  0  0  0  0  0
    0.3786   -0.0431   -0.0009 C   0  0  0  0  0  0  0  0  0  0  0  0
   -0.4180   -1.1096   -0.0008 N   0  0  0  0  0  0  0  0  0  0  0  0
   -1.7291   -0.9519   -0.0001 C   0  0  0  0  0  0  0  0  0  0  0  0
   -2.2513    0.2638   -0.0001 N   0  0  0  0  0  0  0  0  0  0  0  0
   -1.4632    1.3266   -0.0002 C   0  0  0  0  0  0  0  0  0  0  0  0
   -0.1509    1.1781    0.0047 N   0  0  0  0  0  0  0  0  0  0  0  0
   -2.0639    2.7087   -0.0001 C   0  0  0  0  0  0  0  0  0  0  0  0
   -3.8093    2.6054    0.4401 Cl  0  0  0  0  0  0  0  0  0  0  0  0
   -1.2009    3.7390    1.2017 Cl  0  0  0  0  0  0  0  0  0  0  0  0
   -1.9003    3.4352   -1.6421 Cl  0  0  0  0  0  0  0  0  0  0  0  0
   -2.6320   -2.1585    0.0000 C   0  0  0  0  0  0  0  0  0  0  0  0
   -3.3436   -2.3765    1.6423 Cl  0  0  0  0  0  0  0  0  0  0  0  0
   -3.9550   -1.9193   -1.2013 Cl  0  0  0  0  0  0  0  0  0  0  0  0
   -1.6776   -3.6233   -0.4407 Cl  0  0  0  0  0  0  0  0  0  0  0  0
    2.2601    1.8947   -0.0061 H   0  0  0  0  0  0  0  0  0  0  0  0
    4.2093   -2.6398   -0.0001 H   0  0  0  0  0  0  0  0  0  0  0  0
  1  2  2  0  0  0  0
  2  3  1  0  0  0  0
  3  4  2  0  0  0  0
  4  5  1  0  0  0  0
  5  6  2  0  0  0  0
  1  6  1  0  0  0  0
  6  7  1  0  0  0  0
  5  8  1  0  0  0  0
  3  9  1  0  0  0  0
  2 10  1  0  0  0  0
 10 11  2  0  0  0  0
 11 12  1  0  0  0  0
 12 13  2  0  0  0  0
 13 14  1  0  0  0  0
 14 15  2  0  0  0  0
 10 15  1  0  0  0  0
 14 16  1  0  0  0  0
 16 17  1  0  0  0  0
 16 18  1  0  0  0  0
 16 19  1  0  0  0  0
 12 20  1  0  0  0  0
 20 21  1  0  0  0  0
 20 22  1  0  0  0  0
 20 23  1  0  0  0  0
  1 24  1  0  0  0  0
  4 25  1  0  0  0  0
M  END
$$$$
