C10H12O
APtclcactv06211802143D 0   0.00000     0.00000
 
 23 23  0  0  0  0  0  0  0  0999 V2000
    3.0806   -0.4362    1.2505 C   0  0  0  0  0  0  0  0  0  0  0  0
    2.5636    0.2782    0.0002 C   0  0  0  0  0  0  0  0  0  0  0  0
    3.0805   -0.4400   -1.2480 C   0  0  0  0  0  0  0  0  0  0  0  0
    1.0567    0.2636    0.0003 C   0  0  0  0  0  0  0  0  0  0  0  0
    0.3567    1.4576   -0.0015 C   0  0  0  0  0  0  0  0  0  0  0  0
   -1.0221    1.4526   -0.0015 C   0  0  0  0  0  0  0  0  0  0  0  0
   -1.7133    0.2368   -0.0001 C   0  0  0  0  0  0  0  0  0  0  0  0
   -0.9988   -0.9654    0.0012 C   0  0  0  0  0  0  0  0  0  0  0  0
    0.3799   -0.9437   -0.0037 C   0  0  0  0  0  0  0  0  0  0  0  0
   -3.1849    0.2226    0.0004 C   0  0  0  0  0  0  0  0  0  0  0  0
   -3.7810   -0.8334    0.0016 O   0  0  0  0  0  0  0  0  0  0  0  0
    2.7123    0.0754    2.1397 H   0  0  0  0  0  0  0  0  0  0  0  0
    2.7272   -1.4674    1.2521 H   0  0  0  0  0  0  0  0  0  0  0  0
    4.1705   -0.4257    1.2505 H   0  0  0  0  0  0  0  0  0  0  0  0
    2.9170    1.3093   -0.0013 H   0  0  0  0  0  0  0  0  0  0  0  0
    2.7272   -1.4711   -1.2464 H   0  0  0  0  0  0  0  0  0  0  0  0
    2.7122    0.0690   -2.1387 H   0  0  0  0  0  0  0  0  0  0  0  0
    4.1705   -0.4295   -1.2480 H   0  0  0  0  0  0  0  0  0  0  0  0
    0.8919    2.3956   -0.0026 H   0  0  0  0  0  0  0  0  0  0  0  0
   -1.5670    2.3851   -0.0022 H   0  0  0  0  0  0  0  0  0  0  0  0
   -1.5254   -1.9083    0.0026 H   0  0  0  0  0  0  0  0  0  0  0  0
    0.9332   -1.8713   -0.0030 H   0  0  0  0  0  0  0  0  0  0  0  0
   -3.7339    1.1526   -0.0003 H   0  0  0  0  0  0  0  0  0  0  0  0
  1  2  1  0  0  0  0
  2  3  1  0  0  0  0
  2  4  1  0  0  0  0
  4  5  2  0  0  0  0
  5  6  1  0  0  0  0
  6  7  2  0  0  0  0
  7  8  1  0  0  0  0
  8  9  2  0  0  0  0
  4  9  1  0  0  0  0
  7 10  1  0  0  0  0
 10 11  2  0  0  0  0
  1 12  1  0  0  0  0
  1 13  1  0  0  0  0
  1 14  1  0  0  0  0
  2 15  1  0  0  0  0
  3 16  1  0  0  0  0
  3 17  1  0  0  0  0
  3 18  1  0  0  0  0
  5 19  1  0  0  0  0
  6 20  1  0  0  0  0
  8 21  1  0  0  0  0
  9 22  1  0  0  0  0
 10 23  1  0  0  0  0
M  END
$$$$
