C10H16O
APtclcactv06211804403D 0   0.00000     0.00000
 
 27 27  0  0  0  0  0  0  0  0999 V2000
    3.3880    0.6476    0.0437 C   0  0  0  0  0  0  0  0  0  0  0  0
    1.8930    0.4576    0.0426 C   0  0  0  0  0  0  0  0  0  0  0  0
    1.1604    1.4111   -0.4366 C   0  0  0  0  0  0  0  0  0  0  0  0
   -0.3386    1.3711   -0.4957 C   0  0  0  0  0  0  0  0  0  0  0  0
   -0.8347   -0.0662   -0.3232 C   0  0  0  0  0  0  0  0  0  0  0  0
   -0.1448   -0.6734    0.9049 C   0  0  0  0  0  0  0  0  0  0  0  0
    1.3466   -0.8278    0.5915 C   0  0  0  0  0  0  0  0  0  0  0  0
    1.5237   -1.8737   -0.3659 O   0  0  0  0  0  0  0  0  0  0  0  0
   -2.3275   -0.0655   -0.1171 C   0  0  0  0  0  0  0  0  0  0  0  0
   -3.1051   -0.7013   -0.9580 C   0  0  0  0  0  0  0  0  0  0  0  0
   -2.9258    0.6665    1.0565 C   0  0  0  0  0  0  0  0  0  0  0  0
    3.6311    1.6192   -0.3864 H   0  0  0  0  0  0  0  0  0  0  0  0
    3.7596    0.6000    1.0673 H   0  0  0  0  0  0  0  0  0  0  0  0
    3.8546   -0.1392   -0.5491 H   0  0  0  0  0  0  0  0  0  0  0  0
    1.6589    2.2904   -0.8171 H   0  0  0  0  0  0  0  0  0  0  0  0
   -0.7484    1.9927    0.3004 H   0  0  0  0  0  0  0  0  0  0  0  0
   -0.6725    1.7553   -1.4596 H   0  0  0  0  0  0  0  0  0  0  0  0
   -0.5844   -0.6491   -1.2096 H   0  0  0  0  0  0  0  0  0  0  0  0
   -0.2763   -0.0137    1.7626 H   0  0  0  0  0  0  0  0  0  0  0  0
   -0.5757   -1.6510    1.1213 H   0  0  0  0  0  0  0  0  0  0  0  0
    1.8834   -1.0825    1.5054 H   0  0  0  0  0  0  0  0  0  0  0  0
    2.4457   -2.0288   -0.6130 H   0  0  0  0  0  0  0  0  0  0  0  0
   -2.6764   -1.2259   -1.7991 H   0  0  0  0  0  0  0  0  0  0  0  0
   -4.1750   -0.7008   -0.8103 H   0  0  0  0  0  0  0  0  0  0  0  0
   -3.1485    1.6939    0.7687 H   0  0  0  0  0  0  0  0  0  0  0  0
   -3.8448    0.1683    1.3653 H   0  0  0  0  0  0  0  0  0  0  0  0
   -2.2168    0.6666    1.8844 H   0  0  0  0  0  0  0  0  0  0  0  0
  1  2  1  0  0  0  0
  2  3  2  0  0  0  0
  3  4  1  0  0  0  0
  4  5  1  0  0  0  0
  5  6  1  0  0  0  0
  6  7  1  0  0  0  0
  2  7  1  0  0  0  0
  7  8  1  0  0  0  0
  5  9  1  0  0  0  0
  9 10  2  0  0  0  0
  9 11  1  0  0  0  0
  1 12  1  0  0  0  0
  1 13  1  0  0  0  0
  1 14  1  0  0  0  0
  3 15  1  0  0  0  0
  4 16  1  0  0  0  0
  4 17  1  0  0  0  0
  5 18  1  0  0  0  0
  6 19  1  0  0  0  0
  6 20  1  0  0  0  0
  7 21  1  0  0  0  0
  8 22  1  0  0  0  0
 10 23  1  0  0  0  0
 10 24  1  0  0  0  0
 11 25  1  0  0  0  0
 11 26  1  0  0  0  0
 11 27  1  0  0  0  0
M  END
$$$$
