C20H27NO4
APtclcactv06211806483D 0   0.00000     0.00000
 
 52 55  0  0  0  0  0  0  0  0999 V2000
    4.9096    0.8607   -1.6043 C   0  0  0  0  0  0  0  0  0  0  0  0
    4.5579    0.1677   -0.2863 C   0  0  0  0  0  0  0  0  0  0  0  0
    5.0246    1.0337    0.8856 C   0  0  0  0  0  0  0  0  0  0  0  0
    3.0659   -0.0273   -0.2039 C   0  0  0  0  0  0  0  0  0  0  0  0
    2.5417   -1.3046   -0.0910 C   0  0  0  0  0  0  0  0  0  0  0  0
    1.1623   -1.4769   -0.0100 C   0  0  0  0  0  0  0  0  0  0  0  0
    0.3289   -0.3733   -0.0437 C   0  0  0  0  0  0  0  0  0  0  0  0
    0.8511    0.9004   -0.1658 C   0  0  0  0  0  0  0  0  0  0  0  0
    2.2254    1.0684   -0.2354 C   0  0  0  0  0  0  0  0  0  0  0  0
   -0.0375    2.1147   -0.2333 C   0  0  0  0  0  0  0  0  0  0  0  0
   -1.5024    1.7535    0.0150 C   0  0  0  0  0  0  0  0  0  0  0  0
   -1.8219    0.5014   -0.8610 C   0  0  0  0  0  0  0  0  0  0  0  0
   -1.1664   -0.5502    0.0644 C   0  0  0  0  0  0  0  0  0  0  0  0
   -1.6056   -1.9570   -0.2302 C   0  0  0  0  0  0  0  0  0  0  0  0
   -3.1313   -2.0753   -0.2106 C   0  0  0  0  0  0  0  0  0  0  0  0
   -3.7102   -1.1069   -1.2468 C   0  0  0  0  0  0  0  0  0  0  0  0
   -3.3412    0.3223   -0.8532 C   0  0  0  0  0  0  0  0  0  0  0  0
   -3.8783    0.6158    0.5490 C   0  0  0  0  0  0  0  0  0  0  0  0
   -3.9713    1.2998   -1.8474 C   0  0  0  0  0  0  0  0  0  0  0  0
   -1.5671   -0.0650    1.4439 C   0  0  0  0  0  0  0  0  0  0  0  0
   -1.7510   -0.7545    2.4190 O   0  0  0  0  0  0  0  0  0  0  0  0
   -1.6802    1.2777    1.3827 O   0  0  0  0  0  0  0  0  0  0  0  0
    0.3964    3.0838    0.7819 N   0  0  0  0  0  0  0  0  0  0  0  0
    0.6361   -2.7260    0.1013 O   0  0  0  0  0  0  0  0  0  0  0  0
    3.3690   -2.3835   -0.0598 O   0  0  0  0  0  0  0  0  0  0  0  0
    5.9888    1.0018   -1.6639 H   0  0  0  0  0  0  0  0  0  0  0  0
    4.5772    0.2438   -2.4391 H   0  0  0  0  0  0  0  0  0  0  0  0
    4.4134    1.8302   -1.6487 H   0  0  0  0  0  0  0  0  0  0  0  0
    5.0541   -0.8018   -0.2419 H   0  0  0  0  0  0  0  0  0  0  0  0
    4.5284    2.0031    0.8412 H   0  0  0  0  0  0  0  0  0  0  0  0
    4.7740    0.5400    1.8245 H   0  0  0  0  0  0  0  0  0  0  0  0
    6.1037    1.1748    0.8260 H   0  0  0  0  0  0  0  0  0  0  0  0
    2.6410    2.0614   -0.3227 H   0  0  0  0  0  0  0  0  0  0  0  0
    0.0548    2.5690   -1.2198 H   0  0  0  0  0  0  0  0  0  0  0  0
   -2.1636    2.5872   -0.2213 H   0  0  0  0  0  0  0  0  0  0  0  0
   -1.3849    0.5390   -1.8589 H   0  0  0  0  0  0  0  0  0  0  0  0
   -1.2372   -2.2478   -1.2140 H   0  0  0  0  0  0  0  0  0  0  0  0
   -1.1855   -2.6270    0.5200 H   0  0  0  0  0  0  0  0  0  0  0  0
   -3.4224   -3.0955   -0.4604 H   0  0  0  0  0  0  0  0  0  0  0  0
   -3.5055   -1.8175    0.7802 H   0  0  0  0  0  0  0  0  0  0  0  0
   -3.2956   -1.3333   -2.2291 H   0  0  0  0  0  0  0  0  0  0  0  0
   -4.7951   -1.2088   -1.2751 H   0  0  0  0  0  0  0  0  0  0  0  0
   -3.5340   -0.1549    1.2387 H   0  0  0  0  0  0  0  0  0  0  0  0
   -3.5155    1.5887    0.8807 H   0  0  0  0  0  0  0  0  0  0  0  0
   -4.9680    0.6228    0.5266 H   0  0  0  0  0  0  0  0  0  0  0  0
   -5.0551    1.1856   -1.8319 H   0  0  0  0  0  0  0  0  0  0  0  0
   -3.7094    2.3206   -1.5688 H   0  0  0  0  0  0  0  0  0  0  0  0
   -3.5981    1.0897   -2.8497 H   0  0  0  0  0  0  0  0  0  0  0  0
    1.3516    3.3684    0.6252 H   0  0  0  0  0  0  0  0  0  0  0  0
   -0.2196    3.8825    0.8060 H   0  0  0  0  0  0  0  0  0  0  0  0
    0.5281   -3.0273    1.0138 H   0  0  0  0  0  0  0  0  0  0  0  0
    3.6528   -2.6360    0.8294 H   0  0  0  0  0  0  0  0  0  0  0  0
  1  2  1  0  0  0  0
  2  3  1  0  0  0  0
  2  4  1  0  0  0  0
  4  5  2  0  0  0  0
  5  6  1  0  0  0  0
  6  7  2  0  0  0  0
  7  8  1  0  0  0  0
  8  9  2  0  0  0  0
  4  9  1  0  0  0  0
  8 10  1  0  0  0  0
 10 11  1  0  0  0  0
 11 12  1  0  0  0  0
 12 13  1  0  0  0  0
  7 13  1  0  0  0  0
 13 14  1  0  0  0  0
 14 15  1  0  0  0  0
 15 16  1  0  0  0  0
 16 17  1  0  0  0  0
 12 17  1  0  0  0  0
 17 18  1  0  0  0  0
 17 19  1  0  0  0  0
 13 20  1  0  0  0  0
 20 21  2  0  0  0  0
 20 22  1  0  0  0  0
 11 22  1  0  0  0  0
 10 23  1  0  0  0  0
  6 24  1  0  0  0  0
  5 25  1  0  0  0  0
  1 26  1  0  0  0  0
  1 27  1  0  0  0  0
  1 28  1  0  0  0  0
  2 29  1  0  0  0  0
  3 30  1  0  0  0  0
  3 31  1  0  0  0  0
  3 32  1  0  0  0  0
  9 33  1  0  0  0  0
 10 34  1  0  0  0  0
 11 35  1  0  0  0  0
 12 36  1  0  0  0  0
 14 37  1  0  0  0  0
 14 38  1  0  0  0  0
 15 39  1  0  0  0  0
 15 40  1  0  0  0  0
 16 41  1  0  0  0  0
 16 42  1  0  0  0  0
 18 43  1  0  0  0  0
 18 44  1  0  0  0  0
 18 45  1  0  0  0  0
 19 46  1  0  0  0  0
 19 47  1  0  0  0  0
 19 48  1  0  0  0  0
 23 49  1  0  0  0  0
 23 50  1  0  0  0  0
 24 51  1  0  0  0  0
 25 52  1  0  0  0  0
M  END
$$$$
