C9H10O2
APtclcactv06211802143D 0   0.00000     0.00000
 
 21 21  0  0  0  0  0  0  0  0999 V2000
    2.1184    2.3436    0.0002 C   0  0  0  0  0  0  0  0  0  0  0  0
    2.1961    0.9167   -0.0090 O   0  0  0  0  0  0  0  0  0  0  0  0
    1.0197    0.2344   -0.0086 C   0  0  0  0  0  0  0  0  0  0  0  0
    1.0225   -1.1584   -0.0173 C   0  0  0  0  0  0  0  0  0  0  0  0
   -0.1756   -1.8571   -0.0174 C   0  0  0  0  0  0  0  0  0  0  0  0
   -1.3750   -1.1757   -0.0088 C   0  0  0  0  0  0  0  0  0  0  0  0
   -1.3847    0.2199    0.0004 C   0  0  0  0  0  0  0  0  0  0  0  0
   -0.1792    0.9232    0.0062 C   0  0  0  0  0  0  0  0  0  0  0  0
   -2.6687    0.9513    0.0096 C   0  0  0  0  0  0  0  0  0  0  0  0
   -3.8132    0.2817    0.0090 C   0  0  0  0  0  0  0  0  0  0  0  0
    2.2020   -1.8344   -0.0262 O   0  0  0  0  0  0  0  0  0  0  0  0
    3.1248    2.7623   -0.0012 H   0  0  0  0  0  0  0  0  0  0  0  0
    1.5821    2.6840   -0.8855 H   0  0  0  0  0  0  0  0  0  0  0  0
    1.5892    2.6729    0.8944 H   0  0  0  0  0  0  0  0  0  0  0  0
   -0.1695   -2.9371   -0.0245 H   0  0  0  0  0  0  0  0  0  0  0  0
   -2.3065   -1.7221   -0.0096 H   0  0  0  0  0  0  0  0  0  0  0  0
   -0.1828    2.0032    0.0134 H   0  0  0  0  0  0  0  0  0  0  0  0
   -2.6749    2.0313    0.0167 H   0  0  0  0  0  0  0  0  0  0  0  0
   -3.8069   -0.7983    0.0019 H   0  0  0  0  0  0  0  0  0  0  0  0
   -4.7516    0.8163    0.0157 H   0  0  0  0  0  0  0  0  0  0  0  0
    2.5468   -2.0355    0.8546 H   0  0  0  0  0  0  0  0  0  0  0  0
  1  2  1  0  0  0  0
  2  3  1  0  0  0  0
  3  4  2  0  0  0  0
  4  5  1  0  0  0  0
  5  6  2  0  0  0  0
  6  7  1  0  0  0  0
  7  8  2  0  0  0  0
  3  8  1  0  0  0  0
  7  9  1  0  0  0  0
  9 10  2  0  0  0  0
  4 11  1  0  0  0  0
  1 12  1  0  0  0  0
  1 13  1  0  0  0  0
  1 14  1  0  0  0  0
  5 15  1  0  0  0  0
  6 16  1  0  0  0  0
  8 17  1  0  0  0  0
  9 18  1  0  0  0  0
 10 19  1  0  0  0  0
 10 20  1  0  0  0  0
 11 21  1  0  0  0  0
M  END
$$$$
