C13H16O8
APtclcactv06281816313D 0   0.00000     0.00000
 
 37 38  0  0  0  0  0  0  0  0999 V2000
    3.1685    1.0658   -1.0214 C   0  0  0  0  0  0  0  0  0  0  0  0
    1.8386    1.4127   -1.1013 C   0  0  0  0  0  0  0  0  0  0  0  0
    0.9413    0.9603   -0.1408 C   0  0  0  0  0  0  0  0  0  0  0  0
    1.3823    0.1566    0.9043 C   0  0  0  0  0  0  0  0  0  0  0  0
    2.7106   -0.1946    0.9919 C   0  0  0  0  0  0  0  0  0  0  0  0
    3.6161    0.2574    0.0276 C   0  0  0  0  0  0  0  0  0  0  0  0
    5.0399   -0.1163    0.1174 C   0  0  0  0  0  0  0  0  0  0  0  0
    5.4273   -0.8180    1.0306 O   0  0  0  0  0  0  0  0  0  0  0  0
    5.9111    0.3205   -0.8131 O   0  0  0  0  0  0  0  0  0  0  0  0
   -0.3687    1.3045   -0.2232 O   0  0  0  0  0  0  0  0  0  0  0  0
   -1.2361    0.8052    0.7968 C   0  0  0  0  0  0  0  0  0  0  0  0
   -2.6366    1.3946    0.6096 C   0  0  0  0  0  0  0  0  0  0  0  0
   -3.1973    0.9394   -0.7412 C   0  0  0  0  0  0  0  0  0  0  0  0
   -3.1995   -0.5916   -0.7909 C   0  0  0  0  0  0  0  0  0  0  0  0
   -1.7773   -1.1043   -0.5496 C   0  0  0  0  0  0  0  0  0  0  0  0
   -1.3047   -0.6195    0.7088 O   0  0  0  0  0  0  0  0  0  0  0  0
   -1.7815   -2.6342   -0.5381 C   0  0  0  0  0  0  0  0  0  0  0  0
   -0.4397   -3.1135   -0.4295 O   0  0  0  0  0  0  0  0  0  0  0  0
   -4.0690   -1.1010    0.2222 O   0  0  0  0  0  0  0  0  0  0  0  0
   -4.5329    1.4245   -0.8924 O   0  0  0  0  0  0  0  0  0  0  0  0
   -3.4912    0.9378    1.6598 O   0  0  0  0  0  0  0  0  0  0  0  0
    3.8642    1.4140   -1.7705 H   0  0  0  0  0  0  0  0  0  0  0  0
    1.4920    2.0375   -1.9112 H   0  0  0  0  0  0  0  0  0  0  0  0
    0.6820   -0.1925    1.6486 H   0  0  0  0  0  0  0  0  0  0  0  0
    3.0526   -0.8185    1.8045 H   0  0  0  0  0  0  0  0  0  0  0  0
    6.8338    0.0495   -0.7121 H   0  0  0  0  0  0  0  0  0  0  0  0
   -0.8492    1.0910    1.7749 H   0  0  0  0  0  0  0  0  0  0  0  0
   -2.5798    2.4829    0.6324 H   0  0  0  0  0  0  0  0  0  0  0  0
   -2.5731    1.3294   -1.5452 H   0  0  0  0  0  0  0  0  0  0  0  0
   -3.5453   -0.9237   -1.7698 H   0  0  0  0  0  0  0  0  0  0  0  0
   -1.1227   -0.7484   -1.3453 H   0  0  0  0  0  0  0  0  0  0  0  0
   -2.3641   -2.9895    0.3119 H   0  0  0  0  0  0  0  0  0  0  0  0
   -2.2255   -3.0033   -1.4626 H   0  0  0  0  0  0  0  0  0  0  0  0
   -0.3662   -4.0776   -0.4163 H   0  0  0  0  0  0  0  0  0  0  0  0
   -4.9876   -0.8118    0.1340 H   0  0  0  0  0  0  0  0  0  0  0  0
   -4.6069    2.3882   -0.8636 H   0  0  0  0  0  0  0  0  0  0  0  0
   -3.1935    1.1866    2.5456 H   0  0  0  0  0  0  0  0  0  0  0  0
  1  2  2  0  0  0  0
  2  3  1  0  0  0  0
  3  4  2  0  0  0  0
  4  5  1  0  0  0  0
  5  6  2  0  0  0  0
  1  6  1  0  0  0  0
  6  7  1  0  0  0  0
  7  8  2  0  0  0  0
  7  9  1  0  0  0  0
  3 10  1  0  0  0  0
 10 11  1  0  0  0  0
 11 12  1  0  0  0  0
 12 13  1  0  0  0  0
 13 14  1  0  0  0  0
 14 15  1  0  0  0  0
 15 16  1  0  0  0  0
 11 16  1  0  0  0  0
 15 17  1  0  0  0  0
 17 18  1  0  0  0  0
 14 19  1  0  0  0  0
 13 20  1  0  0  0  0
 12 21  1  0  0  0  0
  1 22  1  0  0  0  0
  2 23  1  0  0  0  0
  4 24  1  0  0  0  0
  5 25  1  0  0  0  0
  9 26  1  0  0  0  0
 11 27  1  0  0  0  0
 12 28  1  0  0  0  0
 13 29  1  0  0  0  0
 14 30  1  0  0  0  0
 15 31  1  0  0  0  0
 17 32  1  0  0  0  0
 17 33  1  0  0  0  0
 18 34  1  0  0  0  0
 19 35  1  0  0  0  0
 20 36  1  0  0  0  0
 21 37  1  0  0  0  0
M  END
$$$$
