C16H15N3O4
APtclcactv06211806213D 0   0.00000     0.00000
 
 38 39  0  0  0  0  0  0  0  0999 V2000
    8.0279   -1.0317   -0.3435 C   0  0  0  0  0  0  0  0  0  0  0  0
    6.6020   -1.0935   -0.0766 O   0  0  0  0  0  0  0  0  0  0  0  0
    5.9148    0.0631   -0.1523 C   0  0  0  0  0  0  0  0  0  0  0  0
    6.4912    1.0949   -0.4336 O   0  0  0  0  0  0  0  0  0  0  0  0
    4.4627    0.0764    0.1065 C   0  0  0  0  0  0  0  0  0  0  0  0
    3.7479    1.2751    0.0285 C   0  0  0  0  0  0  0  0  0  0  0  0
    2.3923    1.2831    0.2703 C   0  0  0  0  0  0  0  0  0  0  0  0
    1.7348    0.1015    0.5920 C   0  0  0  0  0  0  0  0  0  0  0  0
    2.4419   -1.0926    0.6711 C   0  0  0  0  0  0  0  0  0  0  0  0
    3.7965   -1.1105    0.4246 C   0  0  0  0  0  0  0  0  0  0  0  0
    0.3985    0.1138    0.8301 O   0  0  0  0  0  0  0  0  0  0  0  0
   -0.4122    0.2580   -0.2376 C   0  0  0  0  0  0  0  0  0  0  0  0
    0.0621    0.3483   -1.3531 O   0  0  0  0  0  0  0  0  0  0  0  0
   -1.8717    0.3061   -0.0524 C   0  0  0  0  0  0  0  0  0  0  0  0
   -2.7136    0.4560   -1.1611 C   0  0  0  0  0  0  0  0  0  0  0  0
   -4.0660    0.5001   -0.9895 C   0  0  0  0  0  0  0  0  0  0  0  0
   -4.6124    0.3956    0.2953 C   0  0  0  0  0  0  0  0  0  0  0  0
   -3.7707    0.2458    1.4040 C   0  0  0  0  0  0  0  0  0  0  0  0
   -2.4184    0.1963    1.2319 C   0  0  0  0  0  0  0  0  0  0  0  0
   -5.9645    0.4401    0.4669 N   0  0  0  0  0  0  0  0  0  0  0  0
   -6.7323   -0.4503   -0.1237 C   0  0  0  0  0  0  0  0  0  0  0  0
   -6.1686   -1.5021   -0.7969 N   0  0  0  0  0  0  0  0  0  0  0  0
   -8.0955   -0.3257   -0.0655 N   0  0  0  0  0  0  0  0  0  0  0  0
    8.1924   -0.6589   -1.3545 H   0  0  0  0  0  0  0  0  0  0  0  0
    8.5029   -0.3614    0.3727 H   0  0  0  0  0  0  0  0  0  0  0  0
    8.4587   -2.0285   -0.2493 H   0  0  0  0  0  0  0  0  0  0  0  0
    4.2582    2.1937   -0.2207 H   0  0  0  0  0  0  0  0  0  0  0  0
    1.8393    2.2088    0.2103 H   0  0  0  0  0  0  0  0  0  0  0  0
    1.9273   -2.0084    0.9220 H   0  0  0  0  0  0  0  0  0  0  0  0
    4.3452   -2.0387    0.4862 H   0  0  0  0  0  0  0  0  0  0  0  0
   -2.2921    0.5369   -2.1522 H   0  0  0  0  0  0  0  0  0  0  0  0
   -4.7154    0.6160   -1.8446 H   0  0  0  0  0  0  0  0  0  0  0  0
   -4.1922    0.1651    2.3951 H   0  0  0  0  0  0  0  0  0  0  0  0
   -1.7691    0.0808    2.0872 H   0  0  0  0  0  0  0  0  0  0  0  0
   -5.2142   -1.6632   -0.7332 H   0  0  0  0  0  0  0  0  0  0  0  0
   -6.7240   -2.0857   -1.3372 H   0  0  0  0  0  0  0  0  0  0  0  0
   -8.4946    0.4189    0.4111 H   0  0  0  0  0  0  0  0  0  0  0  0
   -8.6616   -0.9822   -0.5009 H   0  0  0  0  0  0  0  0  0  0  0  0
  1  2  1  0  0  0  0
  2  3  1  0  0  0  0
  3  4  2  0  0  0  0
  3  5  1  0  0  0  0
  5  6  2  0  0  0  0
  6  7  1  0  0  0  0
  7  8  2  0  0  0  0
  8  9  1  0  0  0  0
  9 10  2  0  0  0  0
  5 10  1  0  0  0  0
  8 11  1  0  0  0  0
 11 12  1  0  0  0  0
 12 13  2  0  0  0  0
 12 14  1  0  0  0  0
 14 15  2  0  0  0  0
 15 16  1  0  0  0  0
 16 17  2  0  0  0  0
 17 18  1  0  0  0  0
 18 19  2  0  0  0  0
 14 19  1  0  0  0  0
 17 20  1  0  0  0  0
 20 21  2  0  0  0  0
 21 22  1  0  0  0  0
 21 23  1  0  0  0  0
  1 24  1  0  0  0  0
  1 25  1  0  0  0  0
  1 26  1  0  0  0  0
  6 27  1  0  0  0  0
  7 28  1  0  0  0  0
  9 29  1  0  0  0  0
 10 30  1  0  0  0  0
 15 31  1  0  0  0  0
 16 32  1  0  0  0  0
 18 33  1  0  0  0  0
 19 34  1  0  0  0  0
 22 35  1  0  0  0  0
 22 36  1  0  0  0  0
 23 37  1  0  0  0  0
 23 38  1  0  0  0  0
M  END
$$$$
