C14H14O4
APtclcactv06211806173D 0   0.00000     0.00000
 
 32 34  0  0  0  0  0  0  0  0999 V2000
    4.8710   -0.9990   -0.3784 C   0  0  0  0  0  0  0  0  0  0  0  0
    3.9600    0.1496    0.0595 C   0  0  0  0  0  0  0  0  0  0  0  0
    4.5890    1.4833   -0.3483 C   0  0  0  0  0  0  0  0  0  0  0  0
    2.5943    0.0026   -0.6144 C   0  0  0  0  0  0  0  0  0  0  0  0
    1.8942   -1.2980   -0.1551 C   0  0  0  0  0  0  0  0  0  0  0  0
    0.4402   -0.8681   -0.1006 C   0  0  0  0  0  0  0  0  0  0  0  0
    0.4277    0.5275   -0.1197 C   0  0  0  0  0  0  0  0  0  0  0  0
    1.6925    1.0277   -0.1654 O   0  0  0  0  0  0  0  0  0  0  0  0
   -0.7892    1.2015   -0.0879 C   0  0  0  0  0  0  0  0  0  0  0  0
   -1.9771    0.4921   -0.0328 C   0  0  0  0  0  0  0  0  0  0  0  0
   -1.9455   -0.9149   -0.0084 C   0  0  0  0  0  0  0  0  0  0  0  0
   -0.7164   -1.5834   -0.0432 C   0  0  0  0  0  0  0  0  0  0  0  0
   -3.2074   -1.6543    0.0523 C   0  0  0  0  0  0  0  0  0  0  0  0
   -4.3657   -0.9449    0.0814 C   0  0  0  0  0  0  0  0  0  0  0  0
   -4.3249    0.4643    0.0530 C   0  0  0  0  0  0  0  0  0  0  0  0
   -5.3705    1.0884    0.0791 O   0  0  0  0  0  0  0  0  0  0  0  0
   -3.1644    1.1359   -0.0026 O   0  0  0  0  0  0  0  0  0  0  0  0
    3.7972    0.1139    1.4788 O   0  0  0  0  0  0  0  0  0  0  0  0
    5.8440   -0.8943    0.1017 H   0  0  0  0  0  0  0  0  0  0  0  0
    4.4228   -1.9492   -0.0879 H   0  0  0  0  0  0  0  0  0  0  0  0
    4.9952   -0.9718   -1.4609 H   0  0  0  0  0  0  0  0  0  0  0  0
    4.7792    1.4823   -1.4215 H   0  0  0  0  0  0  0  0  0  0  0  0
    3.9075    2.2972   -0.1008 H   0  0  0  0  0  0  0  0  0  0  0  0
    5.5285    1.6207    0.1871 H   0  0  0  0  0  0  0  0  0  0  0  0
    2.6968    0.0232   -1.6993 H   0  0  0  0  0  0  0  0  0  0  0  0
    2.0375   -2.0958   -0.8837 H   0  0  0  0  0  0  0  0  0  0  0  0
    2.2473   -1.6036    0.8298 H   0  0  0  0  0  0  0  0  0  0  0  0
   -0.8074    2.2811   -0.1066 H   0  0  0  0  0  0  0  0  0  0  0  0
   -0.6858   -2.6628   -0.0246 H   0  0  0  0  0  0  0  0  0  0  0  0
   -3.2173   -2.7341    0.0736 H   0  0  0  0  0  0  0  0  0  0  0  0
   -5.3147   -1.4586    0.1259 H   0  0  0  0  0  0  0  0  0  0  0  0
    4.6243    0.2018    1.9719 H   0  0  0  0  0  0  0  0  0  0  0  0
  1  2  1  0  0  0  0
  2  3  1  0  0  0  0
  2  4  1  0  0  0  0
  4  5  1  0  0  0  0
  5  6  1  0  0  0  0
  6  7  2  0  0  0  0
  7  8  1  0  0  0  0
  4  8  1  0  0  0  0
  7  9  1  0  0  0  0
  9 10  2  0  0  0  0
 10 11  1  0  0  0  0
 11 12  2  0  0  0  0
  6 12  1  0  0  0  0
 11 13  1  0  0  0  0
 13 14  2  0  0  0  0
 14 15  1  0  0  0  0
 15 16  2  0  0  0  0
 15 17  1  0  0  0  0
 10 17  1  0  0  0  0
  2 18  1  0  0  0  0
  1 19  1  0  0  0  0
  1 20  1  0  0  0  0
  1 21  1  0  0  0  0
  3 22  1  0  0  0  0
  3 23  1  0  0  0  0
  3 24  1  0  0  0  0
  4 25  1  0  0  0  0
  5 26  1  0  0  0  0
  5 27  1  0  0  0  0
  9 28  1  0  0  0  0
 12 29  1  0  0  0  0
 13 30  1  0  0  0  0
 14 31  1  0  0  0  0
 18 32  1  0  0  0  0
M  END
$$$$
