C15H12O4
APtclcactv06281816313D 0   0.00000     0.00000
 
 31 34  0  0  0  0  0  0  0  0999 V2000
    0.2185    2.1424   -0.2899 C   0  0  0  0  0  0  0  0  0  0  0  0
   -0.3520    0.8676    0.2780 C   0  0  0  0  0  0  0  0  0  0  0  0
    0.1157   -0.2937   -0.6670 C   0  0  0  0  0  0  0  0  0  0  0  0
    1.5696   -0.4201   -0.3521 C   0  0  0  0  0  0  0  0  0  0  0  0
    2.2579    0.7999   -0.2758 C   0  0  0  0  0  0  0  0  0  0  0  0
    1.6233    1.9724   -0.5142 O   0  0  0  0  0  0  0  0  0  0  0  0
    3.6086    0.7808    0.0368 C   0  0  0  0  0  0  0  0  0  0  0  0
    4.2573   -0.4243    0.2513 C   0  0  0  0  0  0  0  0  0  0  0  0
    3.5637   -1.6229    0.1570 C   0  0  0  0  0  0  0  0  0  0  0  0
    2.2126   -1.6118   -0.1464 C   0  0  0  0  0  0  0  0  0  0  0  0
    5.5817   -0.4330    0.5558 O   0  0  0  0  0  0  0  0  0  0  0  0
   -0.7708   -1.3274   -0.2574 O   0  0  0  0  0  0  0  0  0  0  0  0
   -1.9782   -0.7279   -0.0501 C   0  0  0  0  0  0  0  0  0  0  0  0
   -1.8166    0.6385    0.2674 C   0  0  0  0  0  0  0  0  0  0  0  0
   -2.8966    1.4611    0.5009 C   0  0  0  0  0  0  0  0  0  0  0  0
   -4.1613    0.8923    0.4242 C   0  0  0  0  0  0  0  0  0  0  0  0
   -4.3316   -0.4492    0.1255 C   0  0  0  0  0  0  0  0  0  0  0  0
   -3.2481   -1.2873   -0.1181 C   0  0  0  0  0  0  0  0  0  0  0  0
   -5.5895   -0.9603    0.0690 O   0  0  0  0  0  0  0  0  0  0  0  0
   -0.2755    2.3735   -1.2336 H   0  0  0  0  0  0  0  0  0  0  0  0
    0.0585    2.9584    0.4148 H   0  0  0  0  0  0  0  0  0  0  0  0
    0.0384    0.7049    1.2826 H   0  0  0  0  0  0  0  0  0  0  0  0
   -0.0335   -0.0338   -1.7150 H   0  0  0  0  0  0  0  0  0  0  0  0
    4.1567    1.7083    0.1130 H   0  0  0  0  0  0  0  0  0  0  0  0
    4.0756   -2.5600    0.3190 H   0  0  0  0  0  0  0  0  0  0  0  0
    1.6669   -2.5409   -0.2203 H   0  0  0  0  0  0  0  0  0  0  0  0
    5.7676   -0.3887    1.5037 H   0  0  0  0  0  0  0  0  0  0  0  0
   -2.7650    2.5072    0.7348 H   0  0  0  0  0  0  0  0  0  0  0  0
   -5.0301    1.5090    0.6016 H   0  0  0  0  0  0  0  0  0  0  0  0
   -3.3888   -2.3325   -0.3509 H   0  0  0  0  0  0  0  0  0  0  0  0
   -5.9948   -0.9114   -0.8076 H   0  0  0  0  0  0  0  0  0  0  0  0
  1  2  1  0  0  0  0
  2  3  1  0  0  0  0
  3  4  1  0  0  0  0
  4  5  2  0  0  0  0
  5  6  1  0  0  0  0
  1  6  1  0  0  0  0
  5  7  1  0  0  0  0
  7  8  2  0  0  0  0
  8  9  1  0  0  0  0
  9 10  2  0  0  0  0
  4 10  1  0  0  0  0
  8 11  1  0  0  0  0
  3 12  1  0  0  0  0
 12 13  1  0  0  0  0
 13 14  2  0  0  0  0
  2 14  1  0  0  0  0
 14 15  1  0  0  0  0
 15 16  2  0  0  0  0
 16 17  1  0  0  0  0
 17 18  2  0  0  0  0
 13 18  1  0  0  0  0
 17 19  1  0  0  0  0
  1 20  1  0  0  0  0
  1 21  1  0  0  0  0
  2 22  1  0  0  0  0
  3 23  1  0  0  0  0
  7 24  1  0  0  0  0
  9 25  1  0  0  0  0
 10 26  1  0  0  0  0
 11 27  1  0  0  0  0
 15 28  1  0  0  0  0
 16 29  1  0  0  0  0
 18 30  1  0  0  0  0
 19 31  1  0  0  0  0
M  END
$$$$
