C7H8O
APtclcactv06201815233D 0   0.00000     0.00000
 
 16 16  0  0  0  0  0  0  0  0999 V2000
    1.8330    1.4300    0.0107 C   0  0  0  0  0  0  0  0  0  0  0  0
    0.5162    0.6972    0.0068 C   0  0  0  0  0  0  0  0  0  0  0  0
   -0.6692    1.4060   -0.0113 C   0  0  0  0  0  0  0  0  0  0  0  0
   -1.8779    0.7342   -0.0149 C   0  0  0  0  0  0  0  0  0  0  0  0
   -1.9032   -0.6480   -0.0004 C   0  0  0  0  0  0  0  0  0  0  0  0
   -0.7202   -1.3616    0.0182 C   0  0  0  0  0  0  0  0  0  0  0  0
    0.4936   -0.6901    0.0156 C   0  0  0  0  0  0  0  0  0  0  0  0
    1.6585   -1.3897    0.0339 O   0  0  0  0  0  0  0  0  0  0  0  0
    2.1413    1.6176    1.0393 H   0  0  0  0  0  0  0  0  0  0  0  0
    2.5878    0.8236   -0.4900 H   0  0  0  0  0  0  0  0  0  0  0  0
    1.7224    2.3789   -0.5142 H   0  0  0  0  0  0  0  0  0  0  0  0
   -0.6521    2.4858   -0.0223 H   0  0  0  0  0  0  0  0  0  0  0  0
   -2.8037    1.2902   -0.0287 H   0  0  0  0  0  0  0  0  0  0  0  0
   -2.8484   -1.1704   -0.0032 H   0  0  0  0  0  0  0  0  0  0  0  0
   -0.7405   -2.4413    0.0299 H   0  0  0  0  0  0  0  0  0  0  0  0
    2.0013   -1.6058   -0.8441 H   0  0  0  0  0  0  0  0  0  0  0  0
  1  2  1  0  0  0  0
  2  3  2  0  0  0  0
  3  4  1  0  0  0  0
  4  5  2  0  0  0  0
  5  6  1  0  0  0  0
  6  7  2  0  0  0  0
  2  7  1  0  0  0  0
  7  8  1  0  0  0  0
  1  9  1  0  0  0  0
  1 10  1  0  0  0  0
  1 11  1  0  0  0  0
  3 12  1  0  0  0  0
  4 13  1  0  0  0  0
  5 14  1  0  0  0  0
  6 15  1  0  0  0  0
  8 16  1  0  0  0  0
M  END
$$$$
