C10H13N5
APtclcactv06281816313D 0   0.00000     0.00000
 
 28 29  0  0  0  0  0  0  0  0999 V2000
    4.9539   -0.2361    1.2289 C   0  0  0  0  0  0  0  0  0  0  0  0
    4.3243    0.2396   -0.0550 C   0  0  0  0  0  0  0  0  0  0  0  0
    4.9407    0.0518   -1.1956 C   0  0  0  0  0  0  0  0  0  0  0  0
    2.9857    0.9312   -0.0269 C   0  0  0  0  0  0  0  0  0  0  0  0
    1.8703   -0.1159   -0.0393 C   0  0  0  0  0  0  0  0  0  0  0  0
    0.5690    0.5564   -0.0120 N   0  0  0  0  0  0  0  0  0  0  0  0
   -0.5974   -0.1914   -0.0174 C   0  0  0  0  0  0  0  0  0  0  0  0
   -0.5529   -1.5206   -0.0472 N   0  0  0  0  0  0  0  0  0  0  0  0
   -1.6604   -2.2405   -0.0525 C   0  0  0  0  0  0  0  0  0  0  0  0
   -2.8569   -1.6968   -0.0291 N   0  0  0  0  0  0  0  0  0  0  0  0
   -2.9994   -0.3677    0.0017 C   0  0  0  0  0  0  0  0  0  0  0  0
   -1.8459    0.4332    0.0142 C   0  0  0  0  0  0  0  0  0  0  0  0
   -2.2874    1.7391    0.0464 N   0  0  0  0  0  0  0  0  0  0  0  0
   -3.6390    1.7034    0.0523 C   0  0  0  0  0  0  0  0  0  0  0  0
   -4.0548    0.4676    0.0307 N   0  0  0  0  0  0  0  0  0  0  0  0
    5.5766    0.5566    1.6436 H   0  0  0  0  0  0  0  0  0  0  0  0
    4.1720   -0.4949    1.9429 H   0  0  0  0  0  0  0  0  0  0  0  0
    5.5683   -1.1139    1.0290 H   0  0  0  0  0  0  0  0  0  0  0  0
    5.9001   -0.4439   -1.2157 H   0  0  0  0  0  0  0  0  0  0  0  0
    4.4896    0.3926   -2.1157 H   0  0  0  0  0  0  0  0  0  0  0  0
    2.9075    1.5346    0.8775 H   0  0  0  0  0  0  0  0  0  0  0  0
    2.8904    1.5740   -0.9020 H   0  0  0  0  0  0  0  0  0  0  0  0
    1.9485   -0.7194   -0.9437 H   0  0  0  0  0  0  0  0  0  0  0  0
    1.9656   -0.7588    0.8358 H   0  0  0  0  0  0  0  0  0  0  0  0
    0.5239    1.5251    0.0099 H   0  0  0  0  0  0  0  0  0  0  0  0
   -1.5797   -3.3172   -0.0775 H   0  0  0  0  0  0  0  0  0  0  0  0
   -1.7323    2.5344    0.0621 H   0  0  0  0  0  0  0  0  0  0  0  0
   -4.2807    2.5718    0.0760 H   0  0  0  0  0  0  0  0  0  0  0  0
  1  2  1  0  0  0  0
  2  3  2  0  0  0  0
  2  4  1  0  0  0  0
  4  5  1  0  0  0  0
  5  6  1  0  0  0  0
  6  7  1  0  0  0  0
  7  8  2  0  0  0  0
  8  9  1  0  0  0  0
  9 10  2  0  0  0  0
 10 11  1  0  0  0  0
 11 12  2  0  0  0  0
  7 12  1  0  0  0  0
 12 13  1  0  0  0  0
 13 14  1  0  0  0  0
 14 15  2  0  0  0  0
 11 15  1  0  0  0  0
  1 16  1  0  0  0  0
  1 17  1  0  0  0  0
  1 18  1  0  0  0  0
  3 19  1  0  0  0  0
  3 20  1  0  0  0  0
  4 21  1  0  0  0  0
  4 22  1  0  0  0  0
  5 23  1  0  0  0  0
  5 24  1  0  0  0  0
  6 25  1  0  0  0  0
  9 26  1  0  0  0  0
 13 27  1  0  0  0  0
 14 28  1  0  0  0  0
M  END
$$$$
