C17H16O5
APtclcactv06211806483D 0   0.00000     0.00000
 
 38 40  0  0  0  0  0  0  0  0999 V2000
   -1.1133   -2.5332    0.3715 C   0  0  0  0  0  0  0  0  0  0  0  0
   -1.5150   -1.5686   -0.6033 O   0  0  0  0  0  0  0  0  0  0  0  0
   -2.0448   -0.4059   -0.1392 C   0  0  0  0  0  0  0  0  0  0  0  0
   -1.2116    0.6880    0.1318 C   0  0  0  0  0  0  0  0  0  0  0  0
   -1.7645    1.8800    0.6089 C   0  0  0  0  0  0  0  0  0  0  0  0
   -3.1245    1.9766    0.8118 C   0  0  0  0  0  0  0  0  0  0  0  0
   -3.9507    0.8932    0.5436 C   0  0  0  0  0  0  0  0  0  0  0  0
   -3.4127   -0.2957    0.0627 C   0  0  0  0  0  0  0  0  0  0  0  0
   -4.2269   -1.3545   -0.1990 O   0  0  0  0  0  0  0  0  0  0  0  0
   -4.7687   -1.4457   -1.5182 C   0  0  0  0  0  0  0  0  0  0  0  0
   -5.2911    0.9968    0.7469 O   0  0  0  0  0  0  0  0  0  0  0  0
    0.2413    0.5819   -0.0849 C   0  0  0  0  0  0  0  0  0  0  0  0
    1.0056   -0.1148    0.7819 C   0  0  0  0  0  0  0  0  0  0  0  0
    2.4562   -0.1799    0.5253 C   0  0  0  0  0  0  0  0  0  0  0  0
    3.0188    0.7435   -0.3712 C   0  0  0  0  0  0  0  0  0  0  0  0
    4.3745    0.7066   -0.6315 C   0  0  0  0  0  0  0  0  0  0  0  0
    5.1721   -0.2421   -0.0054 C   0  0  0  0  0  0  0  0  0  0  0  0
    4.6156   -1.1558    0.8815 C   0  0  0  0  0  0  0  0  0  0  0  0
    3.2622   -1.1290    1.1493 C   0  0  0  0  0  0  0  0  0  0  0  0
    6.5059   -0.2776   -0.2620 O   0  0  0  0  0  0  0  0  0  0  0  0
    2.2114    1.6584   -0.9658 O   0  0  0  0  0  0  0  0  0  0  0  0
    0.8774    1.2456   -1.2781 C   0  0  0  0  0  0  0  0  0  0  0  0
   -0.3493   -2.1006    1.0174 H   0  0  0  0  0  0  0  0  0  0  0  0
   -1.9753   -2.8233    0.9722 H   0  0  0  0  0  0  0  0  0  0  0  0
   -0.7089   -3.4115   -0.1317 H   0  0  0  0  0  0  0  0  0  0  0  0
   -1.1259    2.7252    0.8189 H   0  0  0  0  0  0  0  0  0  0  0  0
   -3.5491    2.8984    1.1811 H   0  0  0  0  0  0  0  0  0  0  0  0
   -5.3978   -2.3328   -1.5920 H   0  0  0  0  0  0  0  0  0  0  0  0
   -5.3658   -0.5583   -1.7279 H   0  0  0  0  0  0  0  0  0  0  0  0
   -3.9557   -1.5157   -2.2409 H   0  0  0  0  0  0  0  0  0  0  0  0
   -5.7827    1.3114   -0.0241 H   0  0  0  0  0  0  0  0  0  0  0  0
    0.5686   -0.6090    1.6370 H   0  0  0  0  0  0  0  0  0  0  0  0
    4.8131    1.4135   -1.3202 H   0  0  0  0  0  0  0  0  0  0  0  0
    5.2447   -1.8900    1.3627 H   0  0  0  0  0  0  0  0  0  0  0  0
    2.8306   -1.8394    1.8388 H   0  0  0  0  0  0  0  0  0  0  0  0
    7.0353    0.2730    0.3310 H   0  0  0  0  0  0  0  0  0  0  0  0
    0.9035    0.5475   -2.1148 H   0  0  0  0  0  0  0  0  0  0  0  0
    0.2868    2.1183   -1.5568 H   0  0  0  0  0  0  0  0  0  0  0  0
  1  2  1  0  0  0  0
  2  3  1  0  0  0  0
  3  4  2  0  0  0  0
  4  5  1  0  0  0  0
  5  6  2  0  0  0  0
  6  7  1  0  0  0  0
  7  8  2  0  0  0  0
  3  8  1  0  0  0  0
  8  9  1  0  0  0  0
  9 10  1  0  0  0  0
  7 11  1  0  0  0  0
  4 12  1  0  0  0  0
 12 13  2  0  0  0  0
 13 14  1  0  0  0  0
 14 15  2  0  0  0  0
 15 16  1  0  0  0  0
 16 17  2  0  0  0  0
 17 18  1  0  0  0  0
 18 19  2  0  0  0  0
 14 19  1  0  0  0  0
 17 20  1  0  0  0  0
 15 21  1  0  0  0  0
 21 22  1  0  0  0  0
 12 22  1  0  0  0  0
  1 23  1  0  0  0  0
  1 24  1  0  0  0  0
  1 25  1  0  0  0  0
  5 26  1  0  0  0  0
  6 27  1  0  0  0  0
 10 28  1  0  0  0  0
 10 29  1  0  0  0  0
 10 30  1  0  0  0  0
 11 31  1  0  0  0  0
 13 32  1  0  0  0  0
 16 33  1  0  0  0  0
 18 34  1  0  0  0  0
 19 35  1  0  0  0  0
 20 36  1  0  0  0  0
 22 37  1  0  0  0  0
 22 38  1  0  0  0  0
M  END
$$$$
