C17H19NO4
APtclcactv06211806483D 0   0.00000     0.00000
 
 41 43  0  0  0  0  0  0  0  0999 V2000
    3.5173   -1.3087   -1.5914 C   0  0  0  0  0  0  0  0  0  0  0  0
    3.6141   -1.0990   -0.0789 C   0  0  0  0  0  0  0  0  0  0  0  0
    4.1238    0.2909    0.1995 C   0  0  0  0  0  0  0  0  0  0  0  0
    3.2637    1.3020    0.3267 C   0  0  0  0  0  0  0  0  0  0  0  0
    1.8231    1.0076    0.1998 C   0  0  0  0  0  0  0  0  0  0  0  0
    1.4083   -0.3174    0.2989 C   0  0  0  0  0  0  0  0  0  0  0  0
    2.3245   -1.2847    0.5072 O   0  0  0  0  0  0  0  0  0  0  0  0
   -0.0167   -0.6132    0.1717 C   0  0  0  0  0  0  0  0  0  0  0  0
   -0.9116    0.4536   -0.0444 C   0  0  0  0  0  0  0  0  0  0  0  0
   -2.2726    0.1860   -0.1684 C   0  0  0  0  0  0  0  0  0  0  0  0
   -2.7282   -1.1215   -0.0781 C   0  0  0  0  0  0  0  0  0  0  0  0
   -1.8353   -2.1685    0.1358 C   0  0  0  0  0  0  0  0  0  0  0  0
   -0.4982   -1.9242    0.2598 C   0  0  0  0  0  0  0  0  0  0  0  0
   -4.0562   -1.3823   -0.1990 O   0  0  0  0  0  0  0  0  0  0  0  0
   -4.4609   -2.7489   -0.0966 C   0  0  0  0  0  0  0  0  0  0  0  0
   -3.1523    1.2029   -0.3777 O   0  0  0  0  0  0  0  0  0  0  0  0
   -3.8421    1.7099    0.7665 C   0  0  0  0  0  0  0  0  0  0  0  0
   -0.4370    1.7489   -0.1318 N   0  0  0  0  0  0  0  0  0  0  0  0
    0.8741    2.0296   -0.0165 C   0  0  0  0  0  0  0  0  0  0  0  0
    1.2486    3.1865   -0.1010 O   0  0  0  0  0  0  0  0  0  0  0  0
   -1.3849    2.8434   -0.3552 C   0  0  0  0  0  0  0  0  0  0  0  0
    4.5861   -2.1221    0.5123 C   0  0  0  0  0  0  0  0  0  0  0  0
    4.5034   -1.1852   -2.0392 H   0  0  0  0  0  0  0  0  0  0  0  0
    3.1487   -2.3139   -1.7960 H   0  0  0  0  0  0  0  0  0  0  0  0
    2.8309   -0.5765   -2.0165 H   0  0  0  0  0  0  0  0  0  0  0  0
    5.1847    0.4682    0.2963 H   0  0  0  0  0  0  0  0  0  0  0  0
    3.6111    2.3067    0.5174 H   0  0  0  0  0  0  0  0  0  0  0  0
   -2.2037   -3.1815    0.2041 H   0  0  0  0  0  0  0  0  0  0  0  0
    0.1877   -2.7419    0.4252 H   0  0  0  0  0  0  0  0  0  0  0  0
   -3.9756   -3.3312   -0.8799 H   0  0  0  0  0  0  0  0  0  0  0  0
   -4.1731   -3.1410    0.8788 H   0  0  0  0  0  0  0  0  0  0  0  0
   -5.5428   -2.8170   -0.2107 H   0  0  0  0  0  0  0  0  0  0  0  0
   -4.4129    2.5945    0.4842 H   0  0  0  0  0  0  0  0  0  0  0  0
   -4.5199    0.9471    1.1496 H   0  0  0  0  0  0  0  0  0  0  0  0
   -3.1196    1.9748    1.5384 H   0  0  0  0  0  0  0  0  0  0  0  0
   -2.0482    2.9310    0.5054 H   0  0  0  0  0  0  0  0  0  0  0  0
   -0.8375    3.7766   -0.4884 H   0  0  0  0  0  0  0  0  0  0  0  0
   -1.9742    2.6371   -1.2486 H   0  0  0  0  0  0  0  0  0  0  0  0
    5.5700   -1.9909    0.0621 H   0  0  0  0  0  0  0  0  0  0  0  0
    4.6571   -1.9751    1.5900 H   0  0  0  0  0  0  0  0  0  0  0  0
    4.2235   -3.1291    0.3061 H   0  0  0  0  0  0  0  0  0  0  0  0
  1  2  1  0  0  0  0
  2  3  1  0  0  0  0
  3  4  2  0  0  0  0
  4  5  1  0  0  0  0
  5  6  2  0  0  0  0
  6  7  1  0  0  0  0
  2  7  1  0  0  0  0
  6  8  1  0  0  0  0
  8  9  2  0  0  0  0
  9 10  1  0  0  0  0
 10 11  2  0  0  0  0
 11 12  1  0  0  0  0
 12 13  2  0  0  0  0
  8 13  1  0  0  0  0
 11 14  1  0  0  0  0
 14 15  1  0  0  0  0
 10 16  1  0  0  0  0
 16 17  1  0  0  0  0
  9 18  1  0  0  0  0
 18 19  1  0  0  0  0
  5 19  1  0  0  0  0
 19 20  2  0  0  0  0
 18 21  1  0  0  0  0
  2 22  1  0  0  0  0
  1 23  1  0  0  0  0
  1 24  1  0  0  0  0
  1 25  1  0  0  0  0
  3 26  1  0  0  0  0
  4 27  1  0  0  0  0
 12 28  1  0  0  0  0
 13 29  1  0  0  0  0
 15 30  1  0  0  0  0
 15 31  1  0  0  0  0
 15 32  1  0  0  0  0
 17 33  1  0  0  0  0
 17 34  1  0  0  0  0
 17 35  1  0  0  0  0
 21 36  1  0  0  0  0
 21 37  1  0  0  0  0
 21 38  1  0  0  0  0
 22 39  1  0  0  0  0
 22 40  1  0  0  0  0
 22 41  1  0  0  0  0
M  END
$$$$
