C24H28N2O
APtclcactv06211806483D 0   0.00000     0.00000
 
 55 59  0  0  0  0  0  0  0  0999 V2000
   -1.9249   -2.3203   -1.5278 C   0  0  0  0  0  0  0  0  0  0  0  0
   -1.8892   -1.3325   -0.3536 C   0  0  0  0  0  0  0  0  0  0  0  0
   -0.8215   -0.2923   -0.6638 C   0  0  0  0  0  0  0  0  0  0  0  0
   -1.0202    0.8936    0.2610 C   0  0  0  0  0  0  0  0  0  0  0  0
    0.1508    1.2437    0.7453 C   0  0  0  0  0  0  0  0  0  0  0  0
    1.1924    0.3040    0.2045 C   0  0  0  0  0  0  0  0  0  0  0  0
    0.5026   -0.7834   -0.4103 O   0  0  0  0  0  0  0  0  0  0  0  0
    2.1387    1.0046   -0.7921 C   0  0  0  0  0  0  0  0  0  0  0  0
    3.4702    0.3750   -0.4920 C   0  0  0  0  0  0  0  0  0  0  0  0
    4.6458    0.3921   -1.2138 C   0  0  0  0  0  0  0  0  0  0  0  0
    5.7407   -0.2789   -0.6751 C   0  0  0  0  0  0  0  0  0  0  0  0
    5.6459   -0.9418    0.5320 C   0  0  0  0  0  0  0  0  0  0  0  0
    4.4697   -0.9711    1.2653 C   0  0  0  0  0  0  0  0  0  0  0  0
    3.3702   -0.2920    0.7374 C   0  0  0  0  0  0  0  0  0  0  0  0
    2.0973   -0.1466    1.2760 N   0  0  0  0  0  0  0  0  0  0  0  0
    1.6422   -1.3957    1.8947 C   0  0  0  0  0  0  0  0  0  0  0  0
    1.7262    0.7282   -2.2366 C   0  0  0  0  0  0  0  0  0  0  0  0
    2.2002    2.5120   -0.5290 C   0  0  0  0  0  0  0  0  0  0  0  0
   -2.2747    1.4419    0.5105 N   0  0  0  0  0  0  0  0  0  0  0  0
   -3.3904    0.6465    0.1881 C   0  0  0  0  0  0  0  0  0  0  0  0
   -4.6599    1.2062    0.2515 C   0  0  0  0  0  0  0  0  0  0  0  0
   -5.7816    0.4407   -0.0114 C   0  0  0  0  0  0  0  0  0  0  0  0
   -5.6361   -0.8922   -0.3400 C   0  0  0  0  0  0  0  0  0  0  0  0
   -4.3731   -1.4496   -0.4252 C   0  0  0  0  0  0  0  0  0  0  0  0
   -3.2409   -0.6829   -0.1894 C   0  0  0  0  0  0  0  0  0  0  0  0
   -2.4060    2.7902    1.0891 C   0  0  0  0  0  0  0  0  0  0  0  0
   -1.5438   -2.0937    0.9244 C   0  0  0  0  0  0  0  0  0  0  0  0
   -0.9494   -2.7952   -1.6329 H   0  0  0  0  0  0  0  0  0  0  0  0
   -2.6813   -3.0821   -1.3389 H   0  0  0  0  0  0  0  0  0  0  0  0
   -2.1693   -1.7853   -2.4454 H   0  0  0  0  0  0  0  0  0  0  0  0
   -0.9017    0.0384   -1.7051 H   0  0  0  0  0  0  0  0  0  0  0  0
    0.3338    2.0461    1.4406 H   0  0  0  0  0  0  0  0  0  0  0  0
    4.7184    0.8977   -2.1659 H   0  0  0  0  0  0  0  0  0  0  0  0
    6.6730   -0.2843   -1.2108 H   0  0  0  0  0  0  0  0  0  0  0  0
    6.5224   -1.4387    0.9235 H   0  0  0  0  0  0  0  0  0  0  0  0
    4.4218   -1.4770    2.2165 H   0  0  0  0  0  0  0  0  0  0  0  0
    2.3280   -1.6760    2.6942 H   0  0  0  0  0  0  0  0  0  0  0  0
    0.6428   -1.2544    2.3061 H   0  0  0  0  0  0  0  0  0  0  0  0
    1.6177   -2.1853    1.1436 H   0  0  0  0  0  0  0  0  0  0  0  0
    0.7138    1.0966   -2.4022 H   0  0  0  0  0  0  0  0  0  0  0  0
    2.4129    1.2359   -2.9141 H   0  0  0  0  0  0  0  0  0  0  0  0
    1.7576   -0.3450   -2.4245 H   0  0  0  0  0  0  0  0  0  0  0  0
    2.5660    2.6897    0.4822 H   0  0  0  0  0  0  0  0  0  0  0  0
    2.8748    2.9789   -1.2467 H   0  0  0  0  0  0  0  0  0  0  0  0
    1.2035    2.9403   -0.6354 H   0  0  0  0  0  0  0  0  0  0  0  0
   -4.8066    2.2495    0.4843 H   0  0  0  0  0  0  0  0  0  0  0  0
   -6.7643    0.8831    0.0567 H   0  0  0  0  0  0  0  0  0  0  0  0
   -6.5104   -1.5017   -0.5155 H   0  0  0  0  0  0  0  0  0  0  0  0
   -4.3049   -2.5054   -0.6447 H   0  0  0  0  0  0  0  0  0  0  0  0
   -2.4496    3.5271    0.2871 H   0  0  0  0  0  0  0  0  0  0  0  0
   -3.3192    2.8439    1.6819 H   0  0  0  0  0  0  0  0  0  0  0  0
   -1.5464    2.9974    1.7265 H   0  0  0  0  0  0  0  0  0  0  0  0
   -0.5687   -2.5678    0.8125 H   0  0  0  0  0  0  0  0  0  0  0  0
   -1.5161   -1.3997    1.7644 H   0  0  0  0  0  0  0  0  0  0  0  0
   -2.3000   -2.8569    1.1083 H   0  0  0  0  0  0  0  0  0  0  0  0
  1  2  1  0  0  0  0
  2  3  1  0  0  0  0
  3  4  1  0  0  0  0
  4  5  2  0  0  0  0
  5  6  1  0  0  0  0
  6  7  1  0  0  0  0
  3  7  1  0  0  0  0
  6  8  1  0  0  0  0
  8  9  1  0  0  0  0
  9 10  2  0  0  0  0
 10 11  1  0  0  0  0
 11 12  2  0  0  0  0
 12 13  1  0  0  0  0
 13 14  2  0  0  0  0
  9 14  1  0  0  0  0
 14 15  1  0  0  0  0
  6 15  1  0  0  0  0
 15 16  1  0  0  0  0
  8 17  1  0  0  0  0
  8 18  1  0  0  0  0
  4 19  1  0  0  0  0
 19 20  1  0  0  0  0
 20 21  2  0  0  0  0
 21 22  1  0  0  0  0
 22 23  2  0  0  0  0
 23 24  1  0  0  0  0
 24 25  2  0  0  0  0
 20 25  1  0  0  0  0
  2 25  1  0  0  0  0
 19 26  1  0  0  0  0
  2 27  1  0  0  0  0
  1 28  1  0  0  0  0
  1 29  1  0  0  0  0
  1 30  1  0  0  0  0
  3 31  1  0  0  0  0
  5 32  1  0  0  0  0
 10 33  1  0  0  0  0
 11 34  1  0  0  0  0
 12 35  1  0  0  0  0
 13 36  1  0  0  0  0
 16 37  1  0  0  0  0
 16 38  1  0  0  0  0
 16 39  1  0  0  0  0
 17 40  1  0  0  0  0
 17 41  1  0  0  0  0
 17 42  1  0  0  0  0
 18 43  1  0  0  0  0
 18 44  1  0  0  0  0
 18 45  1  0  0  0  0
 21 46  1  0  0  0  0
 22 47  1  0  0  0  0
 23 48  1  0  0  0  0
 24 49  1  0  0  0  0
 26 50  1  0  0  0  0
 26 51  1  0  0  0  0
 26 52  1  0  0  0  0
 27 53  1  0  0  0  0
 27 54  1  0  0  0  0
 27 55  1  0  0  0  0
M  END
$$$$
