C14H10O9
APtclcactv06211802143D 0   0.00000     0.00000
 
 33 34  0  0  0  0  0  0  0  0999 V2000
    2.9126   -0.1431   -1.3196 C   0  0  0  0  0  0  0  0  0  0  0  0
    2.0626   -0.0464   -0.2144 C   0  0  0  0  0  0  0  0  0  0  0  0
    2.5890    0.2564    1.0444 C   0  0  0  0  0  0  0  0  0  0  0  0
    3.9480    0.4595    1.1931 C   0  0  0  0  0  0  0  0  0  0  0  0
    4.7925    0.3630    0.0902 C   0  0  0  0  0  0  0  0  0  0  0  0
    4.2708    0.0609   -1.1651 C   0  0  0  0  0  0  0  0  0  0  0  0
    5.0985   -0.0326   -2.2402 O   0  0  0  0  0  0  0  0  0  0  0  0
    6.1281    0.5635    0.2391 O   0  0  0  0  0  0  0  0  0  0  0  0
    4.4609    0.7542    2.4177 O   0  0  0  0  0  0  0  0  0  0  0  0
    0.6129   -0.2631   -0.3763 C   0  0  0  0  0  0  0  0  0  0  0  0
    0.1564   -0.5260   -1.4713 O   0  0  0  0  0  0  0  0  0  0  0  0
   -0.2054   -0.1696    0.6901 O   0  0  0  0  0  0  0  0  0  0  0  0
   -1.5407   -0.2755    0.4548 C   0  0  0  0  0  0  0  0  0  0  0  0
   -2.3009    0.8632    0.2657 C   0  0  0  0  0  0  0  0  0  0  0  0
   -3.6730    0.7535    0.0235 C   0  0  0  0  0  0  0  0  0  0  0  0
   -4.2725   -0.5079   -0.0268 C   0  0  0  0  0  0  0  0  0  0  0  0
   -3.5077   -1.6434    0.1629 C   0  0  0  0  0  0  0  0  0  0  0  0
   -2.1399   -1.5316    0.3988 C   0  0  0  0  0  0  0  0  0  0  0  0
   -1.3903   -2.6494    0.5846 O   0  0  0  0  0  0  0  0  0  0  0  0
   -4.0906   -2.8712    0.1141 O   0  0  0  0  0  0  0  0  0  0  0  0
   -4.4868    1.9668   -0.1782 C   0  0  0  0  0  0  0  0  0  0  0  0
   -3.9645    3.0630   -0.1338 O   0  0  0  0  0  0  0  0  0  0  0  0
   -5.8096    1.8597   -0.4116 O   0  0  0  0  0  0  0  0  0  0  0  0
    2.5091   -0.3814   -2.2926 H   0  0  0  0  0  0  0  0  0  0  0  0
    1.9344    0.3321    1.9001 H   0  0  0  0  0  0  0  0  0  0  0  0
    5.4496   -0.9210   -2.3902 H   0  0  0  0  0  0  0  0  0  0  0  0
    6.6262   -0.2400    0.4429 H   0  0  0  0  0  0  0  0  0  0  0  0
    4.7203   -0.0221    2.9327 H   0  0  0  0  0  0  0  0  0  0  0  0
   -1.8352    1.8368    0.3054 H   0  0  0  0  0  0  0  0  0  0  0  0
   -5.3327   -0.5954   -0.2135 H   0  0  0  0  0  0  0  0  0  0  0  0
   -1.0200   -3.0146   -0.2306 H   0  0  0  0  0  0  0  0  0  0  0  0
   -4.1027   -3.2660   -0.7686 H   0  0  0  0  0  0  0  0  0  0  0  0
   -6.3012    2.6828   -0.5375 H   0  0  0  0  0  0  0  0  0  0  0  0
  1  2  2  0  0  0  0
  2  3  1  0  0  0  0
  3  4  2  0  0  0  0
  4  5  1  0  0  0  0
  5  6  2  0  0  0  0
  1  6  1  0  0  0  0
  6  7  1  0  0  0  0
  5  8  1  0  0  0  0
  4  9  1  0  0  0  0
  2 10  1  0  0  0  0
 10 11  2  0  0  0  0
 10 12  1  0  0  0  0
 12 13  1  0  0  0  0
 13 14  2  0  0  0  0
 14 15  1  0  0  0  0
 15 16  2  0  0  0  0
 16 17  1  0  0  0  0
 17 18  2  0  0  0  0
 13 18  1  0  0  0  0
 18 19  1  0  0  0  0
 17 20  1  0  0  0  0
 15 21  1  0  0  0  0
 21 22  2  0  0  0  0
 21 23  1  0  0  0  0
  1 24  1  0  0  0  0
  3 25  1  0  0  0  0
  7 26  1  0  0  0  0
  8 27  1  0  0  0  0
  9 28  1  0  0  0  0
 14 29  1  0  0  0  0
 16 30  1  0  0  0  0
 19 31  1  0  0  0  0
 20 32  1  0  0  0  0
 23 33  1  0  0  0  0
M  END
$$$$
