C20H22O4
APtclcactv06211806483D 0   0.00000     0.00000
 
 46 48  0  0  0  0  0  0  0  0999 V2000
    3.3158   -0.1751   -1.7273 C   0  0  0  0  0  0  0  0  0  0  0  0
    3.3942   -0.2422   -0.2008 C   0  0  0  0  0  0  0  0  0  0  0  0
    3.5088    1.1537    0.3523 C   0  0  0  0  0  0  0  0  0  0  0  0
    2.4096    1.8493    0.6380 C   0  0  0  0  0  0  0  0  0  0  0  0
    1.0993    1.2045    0.4074 C   0  0  0  0  0  0  0  0  0  0  0  0
   -0.0726    1.9491    0.3535 C   0  0  0  0  0  0  0  0  0  0  0  0
   -1.2950    1.2903    0.1318 C   0  0  0  0  0  0  0  0  0  0  0  0
   -1.3253   -0.1068   -0.0340 C   0  0  0  0  0  0  0  0  0  0  0  0
   -0.1423   -0.8346    0.0238 C   0  0  0  0  0  0  0  0  0  0  0  0
    1.0600   -0.1924    0.2423 C   0  0  0  0  0  0  0  0  0  0  0  0
    2.2243   -0.8876    0.3028 O   0  0  0  0  0  0  0  0  0  0  0  0
   -0.1725   -2.3309   -0.1525 C   0  0  0  0  0  0  0  0  0  0  0  0
   -0.8693   -2.6752   -1.4704 C   0  0  0  0  0  0  0  0  0  0  0  0
    1.2590   -2.8706   -0.1764 C   0  0  0  0  0  0  0  0  0  0  0  0
   -0.9262   -2.9565    0.9927 C   0  0  0  0  0  0  0  0  0  0  0  0
   -1.4303   -2.2001    1.9360 C   0  0  0  0  0  0  0  0  0  0  0  0
   -2.4938   -0.7469   -0.2482 O   0  0  0  0  0  0  0  0  0  0  0  0
   -3.6340   -0.0480   -0.3023 C   0  0  0  0  0  0  0  0  0  0  0  0
   -4.6801   -0.6415   -0.4957 O   0  0  0  0  0  0  0  0  0  0  0  0
   -3.6644    1.3501   -0.1427 C   0  0  0  0  0  0  0  0  0  0  0  0
   -2.5064    2.0278    0.0739 C   0  0  0  0  0  0  0  0  0  0  0  0
   -0.0380    3.2954    0.5132 O   0  0  0  0  0  0  0  0  0  0  0  0
    0.1286    4.0846   -0.6664 C   0  0  0  0  0  0  0  0  0  0  0  0
    4.6291   -1.0488    0.2058 C   0  0  0  0  0  0  0  0  0  0  0  0
    4.2164    0.2994   -2.1169 H   0  0  0  0  0  0  0  0  0  0  0  0
    3.2327   -1.1839   -2.1316 H   0  0  0  0  0  0  0  0  0  0  0  0
    2.4423    0.4071   -2.0210 H   0  0  0  0  0  0  0  0  0  0  0  0
    4.4825    1.5908    0.5176 H   0  0  0  0  0  0  0  0  0  0  0  0
    2.4735    2.8548    1.0270 H   0  0  0  0  0  0  0  0  0  0  0  0
   -0.3242   -2.2227   -2.2987 H   0  0  0  0  0  0  0  0  0  0  0  0
   -0.8912   -3.7575   -1.5979 H   0  0  0  0  0  0  0  0  0  0  0  0
   -1.8891   -2.2907   -1.4534 H   0  0  0  0  0  0  0  0  0  0  0  0
    1.7555   -2.6253    0.7625 H   0  0  0  0  0  0  0  0  0  0  0  0
    1.2372   -3.9529   -0.3039 H   0  0  0  0  0  0  0  0  0  0  0  0
    1.8042   -2.4181   -1.0047 H   0  0  0  0  0  0  0  0  0  0  0  0
   -1.0507   -4.0285    1.0357 H   0  0  0  0  0  0  0  0  0  0  0  0
   -1.3057   -1.1282    1.8930 H   0  0  0  0  0  0  0  0  0  0  0  0
   -1.9704   -2.6485    2.7568 H   0  0  0  0  0  0  0  0  0  0  0  0
   -4.6032    1.8817   -0.1917 H   0  0  0  0  0  0  0  0  0  0  0  0
   -2.5079    3.1005    0.1992 H   0  0  0  0  0  0  0  0  0  0  0  0
    1.0703    3.8226   -1.1488 H   0  0  0  0  0  0  0  0  0  0  0  0
   -0.6967    3.8921   -1.3519 H   0  0  0  0  0  0  0  0  0  0  0  0
    0.1393    5.1411   -0.3982 H   0  0  0  0  0  0  0  0  0  0  0  0
    5.5241   -0.5648   -0.1851 H   0  0  0  0  0  0  0  0  0  0  0  0
    4.6885   -1.0989    1.2930 H   0  0  0  0  0  0  0  0  0  0  0  0
    4.5543   -2.0573   -0.2008 H   0  0  0  0  0  0  0  0  0  0  0  0
  1  2  1  0  0  0  0
  2  3  1  0  0  0  0
  3  4  2  0  0  0  0
  4  5  1  0  0  0  0
  5  6  2  0  0  0  0
  6  7  1  0  0  0  0
  7  8  2  0  0  0  0
  8  9  1  0  0  0  0
  9 10  2  0  0  0  0
  5 10  1  0  0  0  0
 10 11  1  0  0  0  0
  2 11  1  0  0  0  0
  9 12  1  0  0  0  0
 12 13  1  0  0  0  0
 12 14  1  0  0  0  0
 12 15  1  0  0  0  0
 15 16  2  0  0  0  0
  8 17  1  0  0  0  0
 17 18  1  0  0  0  0
 18 19  2  0  0  0  0
 18 20  1  0  0  0  0
 20 21  2  0  0  0  0
  7 21  1  0  0  0  0
  6 22  1  0  0  0  0
 22 23  1  0  0  0  0
  2 24  1  0  0  0  0
  1 25  1  0  0  0  0
  1 26  1  0  0  0  0
  1 27  1  0  0  0  0
  3 28  1  0  0  0  0
  4 29  1  0  0  0  0
 13 30  1  0  0  0  0
 13 31  1  0  0  0  0
 13 32  1  0  0  0  0
 14 33  1  0  0  0  0
 14 34  1  0  0  0  0
 14 35  1  0  0  0  0
 15 36  1  0  0  0  0
 16 37  1  0  0  0  0
 16 38  1  0  0  0  0
 20 39  1  0  0  0  0
 21 40  1  0  0  0  0
 23 41  1  0  0  0  0
 23 42  1  0  0  0  0
 23 43  1  0  0  0  0
 24 44  1  0  0  0  0
 24 45  1  0  0  0  0
 24 46  1  0  0  0  0
M  END
$$$$
