C6H8S
APtclcactv06211806213D 0   0.00000     0.00000
 
 15 15  0  0  0  0  0  0  0  0999 V2000
    2.2973    1.2677    0.0006 C   0  0  0  0  0  0  0  0  0  0  0  0
    0.9856    0.5256    0.0016 C   0  0  0  0  0  0  0  0  0  0  0  0
   -0.2203    1.0956   -0.0006 C   0  0  0  0  0  0  0  0  0  0  0  0
   -1.2841    0.2099    0.0005 C   0  0  0  0  0  0  0  0  0  0  0  0
   -0.9420   -1.0794    0.0036 C   0  0  0  0  0  0  0  0  0  0  0  0
    0.8109   -1.2245   -0.0016 S   0  0  0  0  0  0  0  0  0  0  0  0
   -2.7199    0.6675   -0.0013 C   0  0  0  0  0  0  0  0  0  0  0  0
    2.6128    1.4493    1.0280 H   0  0  0  0  0  0  0  0  0  0  0  0
    3.0521    0.6707   -0.5112 H   0  0  0  0  0  0  0  0  0  0  0  0
    2.1756    2.2199   -0.5158 H   0  0  0  0  0  0  0  0  0  0  0  0
   -0.3565    2.1670   -0.0028 H   0  0  0  0  0  0  0  0  0  0  0  0
   -1.6353   -1.9075    0.0054 H   0  0  0  0  0  0  0  0  0  0  0  0
   -3.0655    0.7758   -1.0294 H   0  0  0  0  0  0  0  0  0  0  0  0
   -3.3367   -0.0691    0.5136 H   0  0  0  0  0  0  0  0  0  0  0  0
   -2.7961    1.6268    0.5106 H   0  0  0  0  0  0  0  0  0  0  0  0
  1  2  1  0  0  0  0
  2  3  2  0  0  0  0
  3  4  1  0  0  0  0
  4  5  2  0  0  0  0
  5  6  1  0  0  0  0
  2  6  1  0  0  0  0
  4  7  1  0  0  0  0
  1  8  1  0  0  0  0
  1  9  1  0  0  0  0
  1 10  1  0  0  0  0
  3 11  1  0  0  0  0
  5 12  1  0  0  0  0
  7 13  1  0  0  0  0
  7 14  1  0  0  0  0
  7 15  1  0  0  0  0
M  END
$$$$
