C15H28
APtclcactv06211806213D 0   0.00000     0.00000
 
 43 44  0  0  0  0  0  0  0  0999 V2000
    3.3990   -2.1616   -0.0384 C   0  0  0  0  0  0  0  0  0  0  0  0
    2.4550   -1.0074    0.3044 C   0  0  0  0  0  0  0  0  0  0  0  0
    3.0123    0.2957   -0.2718 C   0  0  0  0  0  0  0  0  0  0  0  0
    2.0683    1.4499    0.0710 C   0  0  0  0  0  0  0  0  0  0  0  0
    0.6882    1.1757   -0.5299 C   0  0  0  0  0  0  0  0  0  0  0  0
   -0.2558    2.3299   -0.1871 C   0  0  0  0  0  0  0  0  0  0  0  0
   -1.6359    2.0557   -0.7881 C   0  0  0  0  0  0  0  0  0  0  0  0
   -2.1932    0.7525   -0.2118 C   0  0  0  0  0  0  0  0  0  0  0  0
   -1.2492   -0.4017   -0.5546 C   0  0  0  0  0  0  0  0  0  0  0  0
    0.1309   -0.1274    0.0463 C   0  0  0  0  0  0  0  0  0  0  0  0
    1.0749   -1.2816   -0.2965 C   0  0  0  0  0  0  0  0  0  0  0  0
   -1.8066   -1.7048    0.0216 C   0  0  0  0  0  0  0  0  0  0  0  0
   -2.0159   -1.5475    1.5290 C   0  0  0  0  0  0  0  0  0  0  0  0
   -3.1439   -2.0277   -0.6480 C   0  0  0  0  0  0  0  0  0  0  0  0
   -0.3772    2.4552    1.3329 C   0  0  0  0  0  0  0  0  0  0  0  0
    4.3822   -1.9662    0.3897 H   0  0  0  0  0  0  0  0  0  0  0  0
    3.0019   -3.0900    0.3721 H   0  0  0  0  0  0  0  0  0  0  0  0
    3.4855   -2.2508   -1.1213 H   0  0  0  0  0  0  0  0  0  0  0  0
    2.3685   -0.9182    1.3873 H   0  0  0  0  0  0  0  0  0  0  0  0
    3.9955    0.4911    0.1563 H   0  0  0  0  0  0  0  0  0  0  0  0
    3.0988    0.2065   -1.3547 H   0  0  0  0  0  0  0  0  0  0  0  0
    1.9818    1.5392    1.1539 H   0  0  0  0  0  0  0  0  0  0  0  0
    2.4654    2.3783   -0.3395 H   0  0  0  0  0  0  0  0  0  0  0  0
    0.7747    1.0864   -1.6128 H   0  0  0  0  0  0  0  0  0  0  0  0
    0.1413    3.2583   -0.5976 H   0  0  0  0  0  0  0  0  0  0  0  0
   -2.3084    2.8779   -0.5438 H   0  0  0  0  0  0  0  0  0  0  0  0
   -1.5494    1.9664   -1.8709 H   0  0  0  0  0  0  0  0  0  0  0  0
   -2.2797    0.8418    0.8711 H   0  0  0  0  0  0  0  0  0  0  0  0
   -3.1764    0.5572   -0.6399 H   0  0  0  0  0  0  0  0  0  0  0  0
   -1.1627   -0.4909   -1.6375 H   0  0  0  0  0  0  0  0  0  0  0  0
    0.0444   -0.0382    1.1292 H   0  0  0  0  0  0  0  0  0  0  0  0
    1.1614   -1.3709   -1.3794 H   0  0  0  0  0  0  0  0  0  0  0  0
    0.6778   -2.2100    0.1140 H   0  0  0  0  0  0  0  0  0  0  0  0
   -1.1019   -2.5152   -0.1648 H   0  0  0  0  0  0  0  0  0  0  0  0
   -1.0632   -1.3175    2.0061 H   0  0  0  0  0  0  0  0  0  0  0  0
   -2.7206   -0.7371    1.7154 H   0  0  0  0  0  0  0  0  0  0  0  0
   -2.4130   -2.4759    1.9395 H   0  0  0  0  0  0  0  0  0  0  0  0
   -3.0151   -2.0382   -1.7303 H   0  0  0  0  0  0  0  0  0  0  0  0
   -3.4908   -3.0055   -0.3139 H   0  0  0  0  0  0  0  0  0  0  0  0
   -3.8784   -1.2694   -0.3769 H   0  0  0  0  0  0  0  0  0  0  0  0
    0.6060    2.6505    1.7611 H   0  0  0  0  0  0  0  0  0  0  0  0
   -1.0497    3.2774    1.5772 H   0  0  0  0  0  0  0  0  0  0  0  0
   -0.7743    1.5268    1.7434 H   0  0  0  0  0  0  0  0  0  0  0  0
  1  2  1  0  0  0  0
  2  3  1  0  0  0  0
  3  4  1  0  0  0  0
  4  5  1  0  0  0  0
  5  6  1  0  0  0  0
  6  7  1  0  0  0  0
  7  8  1  0  0  0  0
  8  9  1  0  0  0  0
  9 10  1  0  0  0  0
  5 10  1  0  0  0  0
 10 11  1  0  0  0  0
  2 11  1  0  0  0  0
  9 12  1  0  0  0  0
 12 13  1  0  0  0  0
 12 14  1  0  0  0  0
  6 15  1  0  0  0  0
  1 16  1  0  0  0  0
  1 17  1  0  0  0  0
  1 18  1  0  0  0  0
  2 19  1  0  0  0  0
  3 20  1  0  0  0  0
  3 21  1  0  0  0  0
  4 22  1  0  0  0  0
  4 23  1  0  0  0  0
  5 24  1  0  0  0  0
  6 25  1  0  0  0  0
  7 26  1  0  0  0  0
  7 27  1  0  0  0  0
  8 28  1  0  0  0  0
  8 29  1  0  0  0  0
  9 30  1  0  0  0  0
 10 31  1  0  0  0  0
 11 32  1  0  0  0  0
 11 33  1  0  0  0  0
 12 34  1  0  0  0  0
 13 35  1  0  0  0  0
 13 36  1  0  0  0  0
 13 37  1  0  0  0  0
 14 38  1  0  0  0  0
 14 39  1  0  0  0  0
 14 40  1  0  0  0  0
 15 41  1  0  0  0  0
 15 42  1  0  0  0  0
 15 43  1  0  0  0  0
M  END
$$$$
