C13H11NO
APtclcactv06281816313D 0   0.00000     0.00000
 
 26 28  0  0  0  0  0  0  0  0999 V2000
    3.5361   -1.8752    0.0094 C   0  0  0  0  0  0  0  0  0  0  0  0
    2.4210   -0.8615    0.0095 C   0  0  0  0  0  0  0  0  0  0  0  0
    2.7188    0.4972    0.0141 C   0  0  0  0  0  0  0  0  0  0  0  0
    1.7040    1.4375    0.0138 C   0  0  0  0  0  0  0  0  0  0  0  0
    0.3756    1.0266    0.0088 C   0  0  0  0  0  0  0  0  0  0  0  0
    0.0797   -0.3451    0.0042 C   0  0  0  0  0  0  0  0  0  0  0  0
    1.1096   -1.2830   -0.0007 C   0  0  0  0  0  0  0  0  0  0  0  0
   -1.3909   -0.4557   -0.0004 C   0  0  0  0  0  0  0  0  0  0  0  0
   -2.2698   -1.5358   -0.0059 C   0  0  0  0  0  0  0  0  0  0  0  0
   -3.6302   -1.3116   -0.0092 C   0  0  0  0  0  0  0  0  0  0  0  0
   -4.1240   -0.0165   -0.0070 C   0  0  0  0  0  0  0  0  0  0  0  0
   -3.2647    1.0617   -0.0020 C   0  0  0  0  0  0  0  0  0  0  0  0
   -1.8889    0.8558    0.0018 C   0  0  0  0  0  0  0  0  0  0  0  0
   -0.8159    1.7300    0.0073 N   0  0  0  0  0  0  0  0  0  0  0  0
    4.0155    0.9038    0.0194 O   0  0  0  0  0  0  0  0  0  0  0  0
    3.8024   -2.1226    1.0370 H   0  0  0  0  0  0  0  0  0  0  0  0
    3.2076   -2.7767   -0.5078 H   0  0  0  0  0  0  0  0  0  0  0  0
    4.4049   -1.4596   -0.5011 H   0  0  0  0  0  0  0  0  0  0  0  0
    1.9436    2.4905    0.0177 H   0  0  0  0  0  0  0  0  0  0  0  0
    0.8804   -2.3384   -0.0043 H   0  0  0  0  0  0  0  0  0  0  0  0
   -1.8872   -2.5457   -0.0079 H   0  0  0  0  0  0  0  0  0  0  0  0
   -4.3134   -2.1480   -0.0138 H   0  0  0  0  0  0  0  0  0  0  0  0
   -5.1911    0.1495   -0.0096 H   0  0  0  0  0  0  0  0  0  0  0  0
   -3.6599    2.0668   -0.0007 H   0  0  0  0  0  0  0  0  0  0  0  0
   -0.8888    2.6973    0.0097 H   0  0  0  0  0  0  0  0  0  0  0  0
    4.3937    1.0239   -0.8625 H   0  0  0  0  0  0  0  0  0  0  0  0
  1  2  1  0  0  0  0
  2  3  2  0  0  0  0
  3  4  1  0  0  0  0
  4  5  2  0  0  0  0
  5  6  1  0  0  0  0
  6  7  2  0  0  0  0
  2  7  1  0  0  0  0
  6  8  1  0  0  0  0
  8  9  2  0  0  0  0
  9 10  1  0  0  0  0
 10 11  2  0  0  0  0
 11 12  1  0  0  0  0
 12 13  2  0  0  0  0
  8 13  1  0  0  0  0
 13 14  1  0  0  0  0
  5 14  1  0  0  0  0
  3 15  1  0  0  0  0
  1 16  1  0  0  0  0
  1 17  1  0  0  0  0
  1 18  1  0  0  0  0
  4 19  1  0  0  0  0
  7 20  1  0  0  0  0
  9 21  1  0  0  0  0
 10 22  1  0  0  0  0
 11 23  1  0  0  0  0
 12 24  1  0  0  0  0
 14 25  1  0  0  0  0
 15 26  1  0  0  0  0
M  END
$$$$
