C10H16O
APtclcactv06211806213D 0   0.00000     0.00000
 
 27 27  0  0  0  0  0  0  0  0999 V2000
    3.6410    0.0562    0.0828 C   0  0  0  0  0  0  0  0  0  0  0  0
    2.1355    0.0579    0.3556 C   0  0  0  0  0  0  0  0  0  0  0  0
    1.5387    1.3954   -0.0856 C   0  0  0  0  0  0  0  0  0  0  0  0
    0.0504    1.4399    0.2649 C   0  0  0  0  0  0  0  0  0  0  0  0
   -0.6909    0.3550   -0.5234 C   0  0  0  0  0  0  0  0  0  0  0  0
   -0.0260   -0.9762   -0.2512 C   0  0  0  0  0  0  0  0  0  0  0  0
   -0.6751   -1.9325    0.0987 O   0  0  0  0  0  0  0  0  0  0  0  0
    1.4726   -1.0790   -0.4292 C   0  0  0  0  0  0  0  0  0  0  0  0
   -2.1303    0.3018   -0.0803 C   0  0  0  0  0  0  0  0  0  0  0  0
   -3.0902    0.5203   -0.9446 C   0  0  0  0  0  0  0  0  0  0  0  0
   -2.4656   -0.0027    1.3570 C   0  0  0  0  0  0  0  0  0  0  0  0
    4.1122    0.8658    0.6402 H   0  0  0  0  0  0  0  0  0  0  0  0
    4.0661   -0.8970    0.3973 H   0  0  0  0  0  0  0  0  0  0  0  0
    3.8172    0.1985   -0.9834 H   0  0  0  0  0  0  0  0  0  0  0  0
    1.9590   -0.0849    1.4217 H   0  0  0  0  0  0  0  0  0  0  0  0
    2.0554    2.2085    0.4241 H   0  0  0  0  0  0  0  0  0  0  0  0
    1.6607    1.5089   -1.1628 H   0  0  0  0  0  0  0  0  0  0  0  0
   -0.0769    1.2643    1.3331 H   0  0  0  0  0  0  0  0  0  0  0  0
   -0.3548    2.4182    0.0062 H   0  0  0  0  0  0  0  0  0  0  0  0
   -0.6410    0.5781   -1.5891 H   0  0  0  0  0  0  0  0  0  0  0  0
    1.7228   -0.9886   -1.4863 H   0  0  0  0  0  0  0  0  0  0  0  0
    1.8216   -2.0388   -0.0483 H   0  0  0  0  0  0  0  0  0  0  0  0
   -2.8499    0.7386   -1.9747 H   0  0  0  0  0  0  0  0  0  0  0  0
   -4.1218    0.4822   -0.6271 H   0  0  0  0  0  0  0  0  0  0  0  0
   -2.5158    0.9273    1.9233 H   0  0  0  0  0  0  0  0  0  0  0  0
   -3.4289   -0.5103    1.4057 H   0  0  0  0  0  0  0  0  0  0  0  0
   -1.6944   -0.6454    1.7816 H   0  0  0  0  0  0  0  0  0  0  0  0
  1  2  1  0  0  0  0
  2  3  1  0  0  0  0
  3  4  1  0  0  0  0
  4  5  1  0  0  0  0
  5  6  1  0  0  0  0
  6  7  2  0  0  0  0
  6  8  1  0  0  0  0
  2  8  1  0  0  0  0
  5  9  1  0  0  0  0
  9 10  2  0  0  0  0
  9 11  1  0  0  0  0
  1 12  1  0  0  0  0
  1 13  1  0  0  0  0
  1 14  1  0  0  0  0
  2 15  1  0  0  0  0
  3 16  1  0  0  0  0
  3 17  1  0  0  0  0
  4 18  1  0  0  0  0
  4 19  1  0  0  0  0
  5 20  1  0  0  0  0
  8 21  1  0  0  0  0
  8 22  1  0  0  0  0
 10 23  1  0  0  0  0
 10 24  1  0  0  0  0
 11 25  1  0  0  0  0
 11 26  1  0  0  0  0
 11 27  1  0  0  0  0
M  END
$$$$
