C17H26O4
APtclcactv06211804353D 0   0.00000     0.00000
 
 47 47  0  0  0  0  0  0  0  0999 V2000
    9.4008    0.1209   -0.9480 C   0  0  0  0  0  0  0  0  0  0  0  0
    8.2058    0.0664    0.0060 C   0  0  0  0  0  0  0  0  0  0  0  0
    6.9068    0.0835   -0.8022 C   0  0  0  0  0  0  0  0  0  0  0  0
    5.7119    0.0290    0.1517 C   0  0  0  0  0  0  0  0  0  0  0  0
    4.4129    0.0462   -0.6565 C   0  0  0  0  0  0  0  0  0  0  0  0
    3.2179   -0.0083    0.2975 C   0  0  0  0  0  0  0  0  0  0  0  0
    1.9208    0.1343   -0.5013 C   0  0  0  0  0  0  0  0  0  0  0  0
    0.7519    0.2040    0.4473 C   0  0  0  0  0  0  0  0  0  0  0  0
    0.9371    0.1457    1.6392 O   0  0  0  0  0  0  0  0  0  0  0  0
   -0.6483    0.3466   -0.0915 C   0  0  0  0  0  0  0  0  0  0  0  0
   -1.6403    0.3931    1.0723 C   0  0  0  0  0  0  0  0  0  0  0  0
   -3.0405    0.5356    0.5335 C   0  0  0  0  0  0  0  0  0  0  0  0
   -3.7865   -0.5919    0.2449 C   0  0  0  0  0  0  0  0  0  0  0  0
   -5.0741   -0.4626   -0.2506 C   0  0  0  0  0  0  0  0  0  0  0  0
   -5.6131    0.8037   -0.4565 C   0  0  0  0  0  0  0  0  0  0  0  0
   -4.8600    1.9297   -0.1651 C   0  0  0  0  0  0  0  0  0  0  0  0
   -3.5781    1.7937    0.3343 C   0  0  0  0  0  0  0  0  0  0  0  0
   -6.8762    0.9358   -0.9430 O   0  0  0  0  0  0  0  0  0  0  0  0
   -5.8091   -1.5707   -0.5354 O   0  0  0  0  0  0  0  0  0  0  0  0
   -5.1911   -2.8374   -0.2996 C   0  0  0  0  0  0  0  0  0  0  0  0
    3.2168   -1.2591    0.9885 O   0  0  0  0  0  0  0  0  0  0  0  0
   10.3262    0.1086   -0.3722 H   0  0  0  0  0  0  0  0  0  0  0  0
    9.3749   -0.7428   -1.6125 H   0  0  0  0  0  0  0  0  0  0  0  0
    9.3526    1.0355   -1.5389 H   0  0  0  0  0  0  0  0  0  0  0  0
    8.2541   -0.8483    0.5969 H   0  0  0  0  0  0  0  0  0  0  0  0
    8.2317    0.9300    0.6705 H   0  0  0  0  0  0  0  0  0  0  0  0
    6.8586    0.9982   -1.3931 H   0  0  0  0  0  0  0  0  0  0  0  0
    6.8809   -0.7801   -1.4667 H   0  0  0  0  0  0  0  0  0  0  0  0
    5.7601   -0.8856    0.7426 H   0  0  0  0  0  0  0  0  0  0  0  0
    5.7378    0.8927    0.8162 H   0  0  0  0  0  0  0  0  0  0  0  0
    4.3647    0.9608   -1.2474 H   0  0  0  0  0  0  0  0  0  0  0  0
    4.3870   -0.8175   -1.3210 H   0  0  0  0  0  0  0  0  0  0  0  0
    3.2917    0.8054    1.0190 H   0  0  0  0  0  0  0  0  0  0  0  0
    1.9597    1.0459   -1.0976 H   0  0  0  0  0  0  0  0  0  0  0  0
    1.8033   -0.7261   -1.1601 H   0  0  0  0  0  0  0  0  0  0  0  0
   -0.7231    1.2675   -0.6697 H   0  0  0  0  0  0  0  0  0  0  0  0
   -0.8794   -0.5044   -0.7322 H   0  0  0  0  0  0  0  0  0  0  0  0
   -1.5655   -0.5279    1.6506 H   0  0  0  0  0  0  0  0  0  0  0  0
   -1.4092    1.2441    1.7130 H   0  0  0  0  0  0  0  0  0  0  0  0
   -3.3657   -1.5735    0.4053 H   0  0  0  0  0  0  0  0  0  0  0  0
   -5.2760    2.9136   -0.3240 H   0  0  0  0  0  0  0  0  0  0  0  0
   -2.9921    2.6721    0.5610 H   0  0  0  0  0  0  0  0  0  0  0  0
   -7.5591    0.9728   -0.2594 H   0  0  0  0  0  0  0  0  0  0  0  0
   -5.8839   -3.6351   -0.5677 H   0  0  0  0  0  0  0  0  0  0  0  0
   -4.2893   -2.9202   -0.9063 H   0  0  0  0  0  0  0  0  0  0  0  0
   -4.9288   -2.9230    0.7549 H   0  0  0  0  0  0  0  0  0  0  0  0
    3.1533   -2.0294    0.4074 H   0  0  0  0  0  0  0  0  0  0  0  0
  1  2  1  0  0  0  0
  2  3  1  0  0  0  0
  3  4  1  0  0  0  0
  4  5  1  0  0  0  0
  5  6  1  0  0  0  0
  6  7  1  0  0  0  0
  7  8  1  0  0  0  0
  8  9  2  0  0  0  0
  8 10  1  0  0  0  0
 10 11  1  0  0  0  0
 11 12  1  0  0  0  0
 12 13  2  0  0  0  0
 13 14  1  0  0  0  0
 14 15  2  0  0  0  0
 15 16  1  0  0  0  0
 16 17  2  0  0  0  0
 12 17  1  0  0  0  0
 15 18  1  0  0  0  0
 14 19  1  0  0  0  0
 19 20  1  0  0  0  0
  6 21  1  0  0  0  0
  1 22  1  0  0  0  0
  1 23  1  0  0  0  0
  1 24  1  0  0  0  0
  2 25  1  0  0  0  0
  2 26  1  0  0  0  0
  3 27  1  0  0  0  0
  3 28  1  0  0  0  0
  4 29  1  0  0  0  0
  4 30  1  0  0  0  0
  5 31  1  0  0  0  0
  5 32  1  0  0  0  0
  6 33  1  0  0  0  0
  7 34  1  0  0  0  0
  7 35  1  0  0  0  0
 10 36  1  0  0  0  0
 10 37  1  0  0  0  0
 11 38  1  0  0  0  0
 11 39  1  0  0  0  0
 13 40  1  0  0  0  0
 16 41  1  0  0  0  0
 17 42  1  0  0  0  0
 18 43  1  0  0  0  0
 20 44  1  0  0  0  0
 20 45  1  0  0  0  0
 20 46  1  0  0  0  0
 21 47  1  0  0  0  0
M  END
$$$$
