C9H10O4
APtclcactv06211806483D 0   0.00000     0.00000
 
 23 23  0  0  0  0  0  0  0  0999 V2000
   -0.7158   -1.4898   -0.2218 C   0  0  0  0  0  0  0  0  0  0  0  0
   -2.0617   -1.5834    0.0798 C   0  0  0  0  0  0  0  0  0  0  0  0
   -2.8373   -0.4373    0.1497 C   0  0  0  0  0  0  0  0  0  0  0  0
   -2.2583    0.8063   -0.0843 C   0  0  0  0  0  0  0  0  0  0  0  0
   -0.9087    0.8930   -0.3862 C   0  0  0  0  0  0  0  0  0  0  0  0
   -0.1406   -0.2544   -0.4543 C   0  0  0  0  0  0  0  0  0  0  0  0
    1.3270   -0.1582   -0.7827 C   0  0  0  0  0  0  0  0  0  0  0  0
    2.1300   -0.0040    0.5105 C   0  0  0  0  0  0  0  0  0  0  0  0
    3.5976    0.0922    0.1821 C   0  0  0  0  0  0  0  0  0  0  0  0
    3.9638    0.0425   -0.9683 O   0  0  0  0  0  0  0  0  0  0  0  0
    4.4980    0.2330    1.1675 O   0  0  0  0  0  0  0  0  0  0  0  0
   -3.0155    1.9340   -0.0174 O   0  0  0  0  0  0  0  0  0  0  0  0
   -4.1615   -0.5276    0.4458 O   0  0  0  0  0  0  0  0  0  0  0  0
   -0.1114   -2.3835   -0.2715 H   0  0  0  0  0  0  0  0  0  0  0  0
   -2.5087   -2.5498    0.2607 H   0  0  0  0  0  0  0  0  0  0  0  0
   -0.4570    1.8569   -0.5686 H   0  0  0  0  0  0  0  0  0  0  0  0
    1.6434   -1.0633   -1.3011 H   0  0  0  0  0  0  0  0  0  0  0  0
    1.5001    0.7067   -1.4232 H   0  0  0  0  0  0  0  0  0  0  0  0
    1.8136    0.9011    1.0289 H   0  0  0  0  0  0  0  0  0  0  0  0
    1.9569   -0.8689    1.1509 H   0  0  0  0  0  0  0  0  0  0  0  0
    5.4277    0.2904    0.9078 H   0  0  0  0  0  0  0  0  0  0  0  0
   -3.0472    2.3348    0.8621 H   0  0  0  0  0  0  0  0  0  0  0  0
   -4.3572   -0.4794    1.3916 H   0  0  0  0  0  0  0  0  0  0  0  0
  1  2  2  0  0  0  0
  2  3  1  0  0  0  0
  3  4  2  0  0  0  0
  4  5  1  0  0  0  0
  5  6  2  0  0  0  0
  1  6  1  0  0  0  0
  6  7  1  0  0  0  0
  7  8  1  0  0  0  0
  8  9  1  0  0  0  0
  9 10  2  0  0  0  0
  9 11  1  0  0  0  0
  4 12  1  0  0  0  0
  3 13  1  0  0  0  0
  1 14  1  0  0  0  0
  2 15  1  0  0  0  0
  5 16  1  0  0  0  0
  7 17  1  0  0  0  0
  7 18  1  0  0  0  0
  8 19  1  0  0  0  0
  8 20  1  0  0  0  0
 11 21  1  0  0  0  0
 12 22  1  0  0  0  0
 13 23  1  0  0  0  0
M  END
$$$$
