C22H24O10
APtclcactv06211806483D 0   0.00000     0.00000
 
 56 59  0  0  0  0  0  0  0  0999 V2000
    2.1347   -4.3626   -0.8348 C   0  0  0  0  0  0  0  0  0  0  0  0
    0.7356   -4.1353   -0.6538 O   0  0  0  0  0  0  0  0  0  0  0  0
    0.3216   -2.8439   -0.6134 C   0  0  0  0  0  0  0  0  0  0  0  0
    1.2506   -1.8197   -0.7462 C   0  0  0  0  0  0  0  0  0  0  0  0
    0.8371   -0.4997   -0.7095 C   0  0  0  0  0  0  0  0  0  0  0  0
   -0.5248   -0.2064   -0.5395 C   0  0  0  0  0  0  0  0  0  0  0  0
   -0.9933    1.1835   -0.5100 C   0  0  0  0  0  0  0  0  0  0  0  0
   -0.2761    2.1056   -0.8396 O   0  0  0  0  0  0  0  0  0  0  0  0
   -2.4212    1.4094   -0.0465 C   0  0  0  0  0  0  0  0  0  0  0  0
   -3.2785    0.2894   -0.6541 C   0  0  0  0  0  0  0  0  0  0  0  0
   -2.7768   -0.9756   -0.2232 O   0  0  0  0  0  0  0  0  0  0  0  0
   -1.4621   -1.2469   -0.3986 C   0  0  0  0  0  0  0  0  0  0  0  0
   -1.0279   -2.5596   -0.4453 C   0  0  0  0  0  0  0  0  0  0  0  0
   -4.7065    0.4458   -0.1989 C   0  0  0  0  0  0  0  0  0  0  0  0
   -5.6383    1.0291   -1.0375 C   0  0  0  0  0  0  0  0  0  0  0  0
   -6.9480    1.1736   -0.6225 C   0  0  0  0  0  0  0  0  0  0  0  0
   -7.3280    0.7329    0.6368 C   0  0  0  0  0  0  0  0  0  0  0  0
   -6.3912    0.1479    1.4764 C   0  0  0  0  0  0  0  0  0  0  0  0
   -5.0840    0.0006    1.0545 C   0  0  0  0  0  0  0  0  0  0  0  0
   -8.6157    0.8743    1.0476 O   0  0  0  0  0  0  0  0  0  0  0  0
    1.7412    0.5031   -0.8363 O   0  0  0  0  0  0  0  0  0  0  0  0
    3.1091    0.1258   -1.0055 C   0  0  0  0  0  0  0  0  0  0  0  0
    3.9564    1.3762   -1.2550 C   0  0  0  0  0  0  0  0  0  0  0  0
    3.8749    2.2915   -0.0294 C   0  0  0  0  0  0  0  0  0  0  0  0
    4.3364    1.5136    1.2068 C   0  0  0  0  0  0  0  0  0  0  0  0
    3.4744    0.2579    1.3611 C   0  0  0  0  0  0  0  0  0  0  0  0
    3.5712   -0.5334    0.1751 O   0  0  0  0  0  0  0  0  0  0  0  0
    3.9679   -0.5557    2.5591 C   0  0  0  0  0  0  0  0  0  0  0  0
    3.0935   -1.6653    2.7741 O   0  0  0  0  0  0  0  0  0  0  0  0
    5.7058    1.1365    1.0499 O   0  0  0  0  0  0  0  0  0  0  0  0
    4.7211    3.4266   -0.2234 O   0  0  0  0  0  0  0  0  0  0  0  0
    5.3158    0.9954   -1.4770 O   0  0  0  0  0  0  0  0  0  0  0  0
    2.6865   -3.9037   -0.0144 H   0  0  0  0  0  0  0  0  0  0  0  0
    2.3297   -5.4349   -0.8488 H   0  0  0  0  0  0  0  0  0  0  0  0
    2.4551   -3.9227   -1.7792 H   0  0  0  0  0  0  0  0  0  0  0  0
    2.2967   -2.0539   -0.8779 H   0  0  0  0  0  0  0  0  0  0  0  0
   -2.4698    1.3653    1.0415 H   0  0  0  0  0  0  0  0  0  0  0  0
   -2.7758    2.3792   -0.3958 H   0  0  0  0  0  0  0  0  0  0  0  0
   -3.2345    0.3469   -1.7417 H   0  0  0  0  0  0  0  0  0  0  0  0
   -1.7397   -3.3658   -0.3465 H   0  0  0  0  0  0  0  0  0  0  0  0
   -5.3419    1.3724   -2.0176 H   0  0  0  0  0  0  0  0  0  0  0  0
   -7.6754    1.6297   -1.2778 H   0  0  0  0  0  0  0  0  0  0  0  0
   -6.6846   -0.1960    2.4572 H   0  0  0  0  0  0  0  0  0  0  0  0
   -4.3543   -0.4547    1.7077 H   0  0  0  0  0  0  0  0  0  0  0  0
   -9.1828    0.1218    0.8301 H   0  0  0  0  0  0  0  0  0  0  0  0
    3.1974   -0.5489   -1.8570 H   0  0  0  0  0  0  0  0  0  0  0  0
    3.5776    1.9044   -2.1299 H   0  0  0  0  0  0  0  0  0  0  0  0
    2.8458    2.6221    0.1110 H   0  0  0  0  0  0  0  0  0  0  0  0
    4.2293    2.1401    2.0923 H   0  0  0  0  0  0  0  0  0  0  0  0
    2.4358    0.5474    1.5211 H   0  0  0  0  0  0  0  0  0  0  0  0
    4.9756   -0.9205    2.3602 H   0  0  0  0  0  0  0  0  0  0  0  0
    3.9788    0.0757    3.4475 H   0  0  0  0  0  0  0  0  0  0  0  0
    3.3462   -2.2265    3.5200 H   0  0  0  0  0  0  0  0  0  0  0  0
    6.3097    1.8839    0.9418 H   0  0  0  0  0  0  0  0  0  0  0  0
    4.4901    3.9622   -0.9947 H   0  0  0  0  0  0  0  0  0  0  0  0
    5.4412    0.4101   -2.2365 H   0  0  0  0  0  0  0  0  0  0  0  0
  1  2  1  0  0  0  0
  2  3  1  0  0  0  0
  3  4  2  0  0  0  0
  4  5  1  0  0  0  0
  5  6  2  0  0  0  0
  6  7  1  0  0  0  0
  7  8  2  0  0  0  0
  7  9  1  0  0  0  0
  9 10  1  0  0  0  0
 10 11  1  0  0  0  0
 11 12  1  0  0  0  0
  6 12  1  0  0  0  0
 12 13  2  0  0  0  0
  3 13  1  0  0  0  0
 10 14  1  0  0  0  0
 14 15  2  0  0  0  0
 15 16  1  0  0  0  0
 16 17  2  0  0  0  0
 17 18  1  0  0  0  0
 18 19  2  0  0  0  0
 14 19  1  0  0  0  0
 17 20  1  0  0  0  0
  5 21  1  0  0  0  0
 21 22  1  0  0  0  0
 22 23  1  0  0  0  0
 23 24  1  0  0  0  0
 24 25  1  0  0  0  0
 25 26  1  0  0  0  0
 26 27  1  0  0  0  0
 22 27  1  0  0  0  0
 26 28  1  0  0  0  0
 28 29  1  0  0  0  0
 25 30  1  0  0  0  0
 24 31  1  0  0  0  0
 23 32  1  0  0  0  0
  1 33  1  0  0  0  0
  1 34  1  0  0  0  0
  1 35  1  0  0  0  0
  4 36  1  0  0  0  0
  9 37  1  0  0  0  0
  9 38  1  0  0  0  0
 10 39  1  0  0  0  0
 13 40  1  0  0  0  0
 15 41  1  0  0  0  0
 16 42  1  0  0  0  0
 18 43  1  0  0  0  0
 19 44  1  0  0  0  0
 20 45  1  0  0  0  0
 22 46  1  0  0  0  0
 23 47  1  0  0  0  0
 24 48  1  0  0  0  0
 25 49  1  0  0  0  0
 26 50  1  0  0  0  0
 28 51  1  0  0  0  0
 28 52  1  0  0  0  0
 29 53  1  0  0  0  0
 30 54  1  0  0  0  0
 31 55  1  0  0  0  0
 32 56  1  0  0  0  0
M  END
$$$$
