C18H16O6
APtclcactv06281816333D 0   0.00000     0.00000
 
 40 43  0  0  0  0  0  0  0  0999 V2000
    4.9920   -1.6973   -1.7899 C   0  0  0  0  0  0  0  0  0  0  0  0
    3.7989   -1.1260   -1.2494 O   0  0  0  0  0  0  0  0  0  0  0  0
    3.9485   -0.0883   -0.3847 C   0  0  0  0  0  0  0  0  0  0  0  0
    5.2174    0.3706   -0.0632 C   0  0  0  0  0  0  0  0  0  0  0  0
    5.3669    1.4258    0.8162 C   0  0  0  0  0  0  0  0  0  0  0  0
    4.2531    2.0241    1.3755 C   0  0  0  0  0  0  0  0  0  0  0  0
    2.9871    1.5681    1.0569 C   0  0  0  0  0  0  0  0  0  0  0  0
    2.8321    0.5177    0.1735 C   0  0  0  0  0  0  0  0  0  0  0  0
    1.4520    0.0217   -0.1737 C   0  0  0  0  0  0  0  0  0  0  0  0
    1.0919   -1.1662    0.7304 C   0  0  0  0  0  0  0  0  0  0  0  0
   -0.3150   -1.6011    0.3611 C   0  0  0  0  0  0  0  0  0  0  0  0
   -0.6246   -2.7730    0.2981 O   0  0  0  0  0  0  0  0  0  0  0  0
   -1.2812   -0.5323    0.0848 C   0  0  0  0  0  0  0  0  0  0  0  0
   -2.6524   -0.8142   -0.0120 C   0  0  0  0  0  0  0  0  0  0  0  0
   -3.5437    0.2121   -0.2840 C   0  0  0  0  0  0  0  0  0  0  0  0
   -3.0771    1.5137   -0.4580 C   0  0  0  0  0  0  0  0  0  0  0  0
   -1.7194    1.7942   -0.3575 C   0  0  0  0  0  0  0  0  0  0  0  0
   -0.8148    0.7847   -0.0841 C   0  0  0  0  0  0  0  0  0  0  0  0
    0.5049    1.0709    0.0247 O   0  0  0  0  0  0  0  0  0  0  0  0
   -4.1426    2.3258   -0.7155 O   0  0  0  0  0  0  0  0  0  0  0  0
   -5.3029    1.5878   -0.2899 C   0  0  0  0  0  0  0  0  0  0  0  0
   -4.9031    0.2116   -0.4295 O   0  0  0  0  0  0  0  0  0  0  0  0
   -3.1028   -2.0830    0.1589 O   0  0  0  0  0  0  0  0  0  0  0  0
   -3.4505   -2.4743    1.4886 C   0  0  0  0  0  0  0  0  0  0  0  0
    5.5430   -0.9346   -2.3402 H   0  0  0  0  0  0  0  0  0  0  0  0
    5.6118   -2.0791   -0.9787 H   0  0  0  0  0  0  0  0  0  0  0  0
    4.7311   -2.5139   -2.4631 H   0  0  0  0  0  0  0  0  0  0  0  0
    6.0878   -0.0967   -0.4996 H   0  0  0  0  0  0  0  0  0  0  0  0
    6.3546    1.7832    1.0672 H   0  0  0  0  0  0  0  0  0  0  0  0
    4.3721    2.8487    2.0627 H   0  0  0  0  0  0  0  0  0  0  0  0
    2.1185    2.0370    1.4954 H   0  0  0  0  0  0  0  0  0  0  0  0
    1.4311   -0.2954   -1.2164 H   0  0  0  0  0  0  0  0  0  0  0  0
    1.7901   -1.9861    0.5618 H   0  0  0  0  0  0  0  0  0  0  0  0
    1.1233   -0.8598    1.7760 H   0  0  0  0  0  0  0  0  0  0  0  0
   -1.3690    2.8067   -0.4938 H   0  0  0  0  0  0  0  0  0  0  0  0
   -5.5407    1.8140    0.7495 H   0  0  0  0  0  0  0  0  0  0  0  0
   -6.1539    1.8067   -0.9349 H   0  0  0  0  0  0  0  0  0  0  0  0
   -2.5768   -2.3843    2.1341 H   0  0  0  0  0  0  0  0  0  0  0  0
   -4.2457   -1.8286    1.8612 H   0  0  0  0  0  0  0  0  0  0  0  0
   -3.7943   -3.5087    1.4848 H   0  0  0  0  0  0  0  0  0  0  0  0
  1  2  1  0  0  0  0
  2  3  1  0  0  0  0
  3  4  2  0  0  0  0
  4  5  1  0  0  0  0
  5  6  2  0  0  0  0
  6  7  1  0  0  0  0
  7  8  2  0  0  0  0
  3  8  1  0  0  0  0
  8  9  1  0  0  0  0
  9 10  1  0  0  0  0
 10 11  1  0  0  0  0
 11 12  2  0  0  0  0
 11 13  1  0  0  0  0
 13 14  2  0  0  0  0
 14 15  1  0  0  0  0
 15 16  2  0  0  0  0
 16 17  1  0  0  0  0
 17 18  2  0  0  0  0
 13 18  1  0  0  0  0
 18 19  1  0  0  0  0
  9 19  1  0  0  0  0
 16 20  1  0  0  0  0
 20 21  1  0  0  0  0
 21 22  1  0  0  0  0
 15 22  1  0  0  0  0
 14 23  1  0  0  0  0
 23 24  1  0  0  0  0
  1 25  1  0  0  0  0
  1 26  1  0  0  0  0
  1 27  1  0  0  0  0
  4 28  1  0  0  0  0
  5 29  1  0  0  0  0
  6 30  1  0  0  0  0
  7 31  1  0  0  0  0
  9 32  1  0  0  0  0
 10 33  1  0  0  0  0
 10 34  1  0  0  0  0
 17 35  1  0  0  0  0
 21 36  1  0  0  0  0
 21 37  1  0  0  0  0
 24 38  1  0  0  0  0
 24 39  1  0  0  0  0
 24 40  1  0  0  0  0
M  END
$$$$
