C27H45NO
APtclcactv06211806483D 0   0.00000     0.00000
 
 74 79  0  0  0  0  0  0  0  0999 V2000
    6.6350   -2.4767    0.1273 C   0  0  0  0  0  0  0  0  0  0  0  0
    5.4962   -1.5668    0.5912 C   0  0  0  0  0  0  0  0  0  0  0  0
    6.0831   -0.2681    1.1469 C   0  0  0  0  0  0  0  0  0  0  0  0
    4.9389    0.6826    1.5505 C   0  0  0  0  0  0  0  0  0  0  0  0
    4.0858    0.9101    0.3228 C   0  0  0  0  0  0  0  0  0  0  0  0
    2.8024    1.7470    0.5576 C   0  0  0  0  0  0  0  0  0  0  0  0
    2.0599    1.4523   -0.7442 C   0  0  0  0  0  0  0  0  0  0  0  0
    2.5270    0.0142   -1.1646 C   0  0  0  0  0  0  0  0  0  0  0  0
    3.5066   -0.3786   -0.1396 N   0  0  0  0  0  0  0  0  0  0  0  0
    4.5668   -1.2697   -0.5934 C   0  0  0  0  0  0  0  0  0  0  0  0
    1.2784   -0.8976   -1.0696 C   0  0  0  0  0  0  0  0  0  0  0  0
    0.2734   -0.0716   -0.2551 C   0  0  0  0  0  0  0  0  0  0  0  0
    0.5425    1.3621   -0.7470 C   0  0  0  0  0  0  0  0  0  0  0  0
   -0.2530    2.3720    0.0282 C   0  0  0  0  0  0  0  0  0  0  0  0
   -1.7129    1.9324    0.2206 C   0  0  0  0  0  0  0  0  0  0  0  0
   -2.0900    0.7218   -0.6061 C   0  0  0  0  0  0  0  0  0  0  0  0
   -1.1703   -0.4668   -0.3530 C   0  0  0  0  0  0  0  0  0  0  0  0
   -1.4530   -1.5565   -1.3829 C   0  0  0  0  0  0  0  0  0  0  0  0
   -2.9191   -1.9916   -1.2468 C   0  0  0  0  0  0  0  0  0  0  0  0
   -3.5857   -1.2191   -0.1131 C   0  0  0  0  0  0  0  0  0  0  0  0
   -3.5422    0.2864   -0.3616 C   0  0  0  0  0  0  0  0  0  0  0  0
   -4.1328    1.0106    0.8456 C   0  0  0  0  0  0  0  0  0  0  0  0
   -5.5767    0.5628    1.0746 C   0  0  0  0  0  0  0  0  0  0  0  0
   -5.6537   -0.9500    1.2635 C   0  0  0  0  0  0  0  0  0  0  0  0
   -5.0315   -1.6792    0.0724 C   0  0  0  0  0  0  0  0  0  0  0  0
   -4.9712   -1.3207    2.4634 O   0  0  0  0  0  0  0  0  0  0  0  0
   -4.3480    0.6464   -1.6152 C   0  0  0  0  0  0  0  0  0  0  0  0
    0.1807    1.4937   -2.2478 C   0  0  0  0  0  0  0  0  0  0  0  0
    2.1280    1.3305    1.8529 C   0  0  0  0  0  0  0  0  0  0  0  0
    7.2869   -2.7020    0.9714 H   0  0  0  0  0  0  0  0  0  0  0  0
    6.2209   -3.4035   -0.2695 H   0  0  0  0  0  0  0  0  0  0  0  0
    7.2088   -1.9728   -0.6505 H   0  0  0  0  0  0  0  0  0  0  0  0
    4.9313   -2.0689    1.3766 H   0  0  0  0  0  0  0  0  0  0  0  0
    6.6904   -0.4893    2.0216 H   0  0  0  0  0  0  0  0  0  0  0  0
    6.6926    0.2097    0.3831 H   0  0  0  0  0  0  0  0  0  0  0  0
    4.3726    0.2126    2.3543 H   0  0  0  0  0  0  0  0  0  0  0  0
    5.3615    1.6255    1.9019 H   0  0  0  0  0  0  0  0  0  0  0  0
    4.6756    1.3675   -0.4805 H   0  0  0  0  0  0  0  0  0  0  0  0
    3.0833    2.8123    0.6111 H   0  0  0  0  0  0  0  0  0  0  0  0
    2.3726    2.1704   -1.5310 H   0  0  0  0  0  0  0  0  0  0  0  0
    2.9686    0.0108   -2.1610 H   0  0  0  0  0  0  0  0  0  0  0  0
    5.1297   -0.7905   -1.3948 H   0  0  0  0  0  0  0  0  0  0  0  0
    4.1283   -2.1991   -0.9601 H   0  0  0  0  0  0  0  0  0  0  0  0
    0.8877   -1.1379   -2.0565 H   0  0  0  0  0  0  0  0  0  0  0  0
    1.5220   -1.8222   -0.5356 H   0  0  0  0  0  0  0  0  0  0  0  0
    0.5510   -0.1764    0.8101 H   0  0  0  0  0  0  0  0  0  0  0  0
    0.1869    2.5973    0.9986 H   0  0  0  0  0  0  0  0  0  0  0  0
   -0.2547    3.3259   -0.5363 H   0  0  0  0  0  0  0  0  0  0  0  0
   -1.8715    1.7118    1.2854 H   0  0  0  0  0  0  0  0  0  0  0  0
   -2.3706    2.7727   -0.0387 H   0  0  0  0  0  0  0  0  0  0  0  0
   -2.0756    0.9838   -1.6714 H   0  0  0  0  0  0  0  0  0  0  0  0
   -1.4396   -0.8881    0.6403 H   0  0  0  0  0  0  0  0  0  0  0  0
   -1.2827   -1.1710   -2.3874 H   0  0  0  0  0  0  0  0  0  0  0  0
   -0.8036   -2.4126   -1.2026 H   0  0  0  0  0  0  0  0  0  0  0  0
   -3.4396   -1.8241   -2.1862 H   0  0  0  0  0  0  0  0  0  0  0  0
   -2.9472   -3.0615   -1.0168 H   0  0  0  0  0  0  0  0  0  0  0  0
   -3.0507   -1.4384    0.8218 H   0  0  0  0  0  0  0  0  0  0  0  0
   -3.5404    0.7837    1.7337 H   0  0  0  0  0  0  0  0  0  0  0  0
   -4.1162    2.0879    0.6700 H   0  0  0  0  0  0  0  0  0  0  0  0
   -5.9533    1.0497    1.9834 H   0  0  0  0  0  0  0  0  0  0  0  0
   -6.2095    0.8679    0.2444 H   0  0  0  0  0  0  0  0  0  0  0  0
   -6.7043   -1.2452    1.3500 H   0  0  0  0  0  0  0  0  0  0  0  0
   -5.6157   -1.5026   -0.8248 H   0  0  0  0  0  0  0  0  0  0  0  0
   -5.0333   -2.7563    0.2792 H   0  0  0  0  0  0  0  0  0  0  0  0
   -5.3341   -0.9164    3.2633 H   0  0  0  0  0  0  0  0  0  0  0  0
   -5.3852    0.3393   -1.4811 H   0  0  0  0  0  0  0  0  0  0  0  0
   -4.3061    1.7235   -1.7772 H   0  0  0  0  0  0  0  0  0  0  0  0
   -3.9257    0.1325   -2.4787 H   0  0  0  0  0  0  0  0  0  0  0  0
   -0.9021    1.4516   -2.3655 H   0  0  0  0  0  0  0  0  0  0  0  0
    0.5509    2.4455   -2.6287 H   0  0  0  0  0  0  0  0  0  0  0  0
    0.6388    0.6765   -2.8049 H   0  0  0  0  0  0  0  0  0  0  0  0
    2.8070    1.5035    2.6880 H   0  0  0  0  0  0  0  0  0  0  0  0
    1.2205    1.9172    1.9950 H   0  0  0  0  0  0  0  0  0  0  0  0
    1.8727    0.2719    1.8056 H   0  0  0  0  0  0  0  0  0  0  0  0
  1  2  1  0  0  0  0
  2  3  1  0  0  0  0
  3  4  1  0  0  0  0
  4  5  1  0  0  0  0
  5  6  1  0  0  0  0
  6  7  1  0  0  0  0
  7  8  1  0  0  0  0
  8  9  1  0  0  0  0
  5  9  1  0  0  0  0
  9 10  1  0  0  0  0
  2 10  1  0  0  0  0
  8 11  1  0  0  0  0
 11 12  1  0  0  0  0
 12 13  1  0  0  0  0
  7 13  1  0  0  0  0
 13 14  1  0  0  0  0
 14 15  1  0  0  0  0
 15 16  1  0  0  0  0
 16 17  1  0  0  0  0
 12 17  1  0  0  0  0
 17 18  1  0  0  0  0
 18 19  1  0  0  0  0
 19 20  1  0  0  0  0
 20 21  1  0  0  0  0
 16 21  1  0  0  0  0
 21 22  1  0  0  0  0
 22 23  1  0  0  0  0
 23 24  1  0  0  0  0
 24 25  1  0  0  0  0
 20 25  1  0  0  0  0
 24 26  1  0  0  0  0
 21 27  1  0  0  0  0
 13 28  1  0  0  0  0
  6 29  1  0  0  0  0
  1 30  1  0  0  0  0
  1 31  1  0  0  0  0
  1 32  1  0  0  0  0
  2 33  1  0  0  0  0
  3 34  1  0  0  0  0
  3 35  1  0  0  0  0
  4 36  1  0  0  0  0
  4 37  1  0  0  0  0
  5 38  1  0  0  0  0
  6 39  1  0  0  0  0
  7 40  1  0  0  0  0
  8 41  1  0  0  0  0
 10 42  1  0  0  0  0
 10 43  1  0  0  0  0
 11 44  1  0  0  0  0
 11 45  1  0  0  0  0
 12 46  1  0  0  0  0
 14 47  1  0  0  0  0
 14 48  1  0  0  0  0
 15 49  1  0  0  0  0
 15 50  1  0  0  0  0
 16 51  1  0  0  0  0
 17 52  1  0  0  0  0
 18 53  1  0  0  0  0
 18 54  1  0  0  0  0
 19 55  1  0  0  0  0
 19 56  1  0  0  0  0
 20 57  1  0  0  0  0
 22 58  1  0  0  0  0
 22 59  1  0  0  0  0
 23 60  1  0  0  0  0
 23 61  1  0  0  0  0
 24 62  1  0  0  0  0
 25 63  1  0  0  0  0
 25 64  1  0  0  0  0
 26 65  1  0  0  0  0
 27 66  1  0  0  0  0
 27 67  1  0  0  0  0
 27 68  1  0  0  0  0
 28 69  1  0  0  0  0
 28 70  1  0  0  0  0
 28 71  1  0  0  0  0
 29 72  1  0  0  0  0
 29 73  1  0  0  0  0
 29 74  1  0  0  0  0
M  END
$$$$
