C15H24O2
APtclcactv06281816333D 0   0.00000     0.00000
 
 41 42  0  0  0  0  0  0  0  0999 V2000
    2.0546    0.5651    2.2233 C   0  0  0  0  0  0  0  0  0  0  0  0
    1.1111    1.1070    1.1476 C   0  0  0  0  0  0  0  0  0  0  0  0
    1.9324    1.7034    0.0020 C   0  0  0  0  0  0  0  0  0  0  0  0
    2.8156    0.6150   -0.6114 C   0  0  0  0  0  0  0  0  0  0  0  0
    1.9353   -0.5114   -1.1565 C   0  0  0  0  0  0  0  0  0  0  0  0
    1.1137   -1.1140   -0.0143 C   0  0  0  0  0  0  0  0  0  0  0  0
    0.2421   -0.0292    0.6137 C   0  0  0  0  0  0  0  0  0  0  0  0
   -0.6010   -0.6247    1.7511 C   0  0  0  0  0  0  0  0  0  0  0  0
   -2.0786   -0.4200    1.3548 C   0  0  0  0  0  0  0  0  0  0  0  0
   -2.0455    0.7731    0.3672 C   0  0  0  0  0  0  0  0  0  0  0  0
   -0.7444    0.5184   -0.4346 C   0  0  0  0  0  0  0  0  0  0  0  0
   -3.2469    0.7468   -0.5422 C   0  0  0  0  0  0  0  0  0  0  0  0
   -4.0693    1.7662   -0.5706 C   0  0  0  0  0  0  0  0  0  0  0  0
   -3.5023   -0.4520   -1.4188 C   0  0  0  0  0  0  0  0  0  0  0  0
    0.2359   -2.2142   -0.5531 C   0  0  0  0  0  0  0  0  0  0  0  0
    0.3527   -3.3402   -0.1328 O   0  0  0  0  0  0  0  0  0  0  0  0
    3.5884    1.1729   -1.6762 O   0  0  0  0  0  0  0  0  0  0  0  0
    2.6748    1.3763    2.6047 H   0  0  0  0  0  0  0  0  0  0  0  0
    1.4697    0.1404    3.0391 H   0  0  0  0  0  0  0  0  0  0  0  0
    2.6915   -0.2074    1.7923 H   0  0  0  0  0  0  0  0  0  0  0  0
    0.4743    1.8796    1.5786 H   0  0  0  0  0  0  0  0  0  0  0  0
    1.2603    2.0983   -0.7599 H   0  0  0  0  0  0  0  0  0  0  0  0
    2.5602    2.5078    0.3852 H   0  0  0  0  0  0  0  0  0  0  0  0
    3.4839    0.2166    0.1519 H   0  0  0  0  0  0  0  0  0  0  0  0
    1.2634   -0.1123   -1.9163 H   0  0  0  0  0  0  0  0  0  0  0  0
    2.5653   -1.2838   -1.5978 H   0  0  0  0  0  0  0  0  0  0  0  0
    1.7857   -1.5223    0.7405 H   0  0  0  0  0  0  0  0  0  0  0  0
   -0.3866   -1.6881    1.8579 H   0  0  0  0  0  0  0  0  0  0  0  0
   -0.3891   -0.1046    2.6852 H   0  0  0  0  0  0  0  0  0  0  0  0
   -2.4687   -1.3113    0.8634 H   0  0  0  0  0  0  0  0  0  0  0  0
   -2.6779   -0.1732    2.2312 H   0  0  0  0  0  0  0  0  0  0  0  0
   -1.9882    1.7189    0.9060 H   0  0  0  0  0  0  0  0  0  0  0  0
   -0.3704    1.4491   -0.8611 H   0  0  0  0  0  0  0  0  0  0  0  0
   -0.9171   -0.2194   -1.2182 H   0  0  0  0  0  0  0  0  0  0  0  0
   -4.9302    1.7474   -1.2224 H   0  0  0  0  0  0  0  0  0  0  0  0
   -3.8862    2.6254    0.0576 H   0  0  0  0  0  0  0  0  0  0  0  0
   -2.7184   -1.1924   -1.2592 H   0  0  0  0  0  0  0  0  0  0  0  0
   -4.4696   -0.8869   -1.1669 H   0  0  0  0  0  0  0  0  0  0  0  0
   -3.5037   -0.1439   -2.4644 H   0  0  0  0  0  0  0  0  0  0  0  0
   -0.4975   -1.9955   -1.3151 H   0  0  0  0  0  0  0  0  0  0  0  0
    4.1731    0.5381   -2.1123 H   0  0  0  0  0  0  0  0  0  0  0  0
  1  2  1  0  0  0  0
  2  3  1  0  0  0  0
  3  4  1  0  0  0  0
  4  5  1  0  0  0  0
  5  6  1  0  0  0  0
  6  7  1  0  0  0  0
  2  7  1  0  0  0  0
  7  8  1  0  0  0  0
  8  9  1  0  0  0  0
  9 10  1  0  0  0  0
 10 11  1  0  0  0  0
  7 11  1  0  0  0  0
 10 12  1  0  0  0  0
 12 13  2  0  0  0  0
 12 14  1  0  0  0  0
  6 15  1  0  0  0  0
 15 16  2  0  0  0  0
  4 17  1  0  0  0  0
  1 18  1  0  0  0  0
  1 19  1  0  0  0  0
  1 20  1  0  0  0  0
  2 21  1  0  0  0  0
  3 22  1  0  0  0  0
  3 23  1  0  0  0  0
  4 24  1  0  0  0  0
  5 25  1  0  0  0  0
  5 26  1  0  0  0  0
  6 27  1  0  0  0  0
  8 28  1  0  0  0  0
  8 29  1  0  0  0  0
  9 30  1  0  0  0  0
  9 31  1  0  0  0  0
 10 32  1  0  0  0  0
 11 33  1  0  0  0  0
 11 34  1  0  0  0  0
 13 35  1  0  0  0  0
 13 36  1  0  0  0  0
 14 37  1  0  0  0  0
 14 38  1  0  0  0  0
 14 39  1  0  0  0  0
 15 40  1  0  0  0  0
 17 41  1  0  0  0  0
M  END
$$$$
