C20H34O6
APtclcactv06211804353D 0   0.00000     0.00000
 
 60 63  0  0  0  0  0  0  0  0999 V2000
    3.3590   -1.2326   -1.9825 C   0  0  0  0  0  0  0  0  0  0  0  0
    3.3089   -0.8618   -0.5047 C   0  0  0  0  0  0  0  0  0  0  0  0
    4.0439    0.4900   -0.2525 C   0  0  0  0  0  0  0  0  0  0  0  0
    2.9467    1.4997    0.2123 C   0  0  0  0  0  0  0  0  0  0  0  0
    1.6834    0.8825   -0.4615 C   0  0  0  0  0  0  0  0  0  0  0  0
    1.8888   -0.5551   -0.0498 C   0  0  0  0  0  0  0  0  0  0  0  0
    0.7928   -1.5504   -0.0492 C   0  0  0  0  0  0  0  0  0  0  0  0
   -0.2975   -1.1793    0.9730 C   0  0  0  0  0  0  0  0  0  0  0  0
   -1.3609   -0.3127    0.2970 C   0  0  0  0  0  0  0  0  0  0  0  0
   -2.2669   -1.1625   -0.6197 C   0  0  0  0  0  0  0  0  0  0  0  0
   -3.6993   -0.6278   -0.4160 C   0  0  0  0  0  0  0  0  0  0  0  0
   -3.5561    0.6031    0.4970 C   0  0  0  0  0  0  0  0  0  0  0  0
   -2.3347    0.2160    1.3845 C   0  0  0  0  0  0  0  0  0  0  0  0
   -2.6867   -0.8152    2.3119 O   0  0  0  0  0  0  0  0  0  0  0  0
   -3.1491    1.8525   -0.2764 C   0  0  0  0  0  0  0  0  0  0  0  0
   -1.9174    1.6573   -1.1460 C   0  0  0  0  0  0  0  0  0  0  0  0
   -0.8198    0.8436   -0.4884 C   0  0  0  0  0  0  0  0  0  0  0  0
    0.4090    1.5747   -0.0848 C   0  0  0  0  0  0  0  0  0  0  0  0
    0.3792    1.9361    1.4007 C   0  0  0  0  0  0  0  0  0  0  0  0
    0.4196    2.8396   -0.7990 O   0  0  0  0  0  0  0  0  0  0  0  0
   -4.3638   -0.2916   -1.7455 C   0  0  0  0  0  0  0  0  0  0  0  0
   -4.4813   -1.6290    0.2571 O   0  0  0  0  0  0  0  0  0  0  0  0
    0.2506   -1.7143   -1.3566 O   0  0  0  0  0  0  0  0  0  0  0  0
    2.1399   -0.4244    1.3672 O   0  0  0  0  0  0  0  0  0  0  0  0
    5.0199    0.3278    0.7751 O   0  0  0  0  0  0  0  0  0  0  0  0
    3.9306   -1.9615    0.3549 C   0  0  0  0  0  0  0  0  0  0  0  0
    4.3970   -1.3568   -2.2909 H   0  0  0  0  0  0  0  0  0  0  0  0
    2.8185   -2.1657   -2.1415 H   0  0  0  0  0  0  0  0  0  0  0  0
    2.8972   -0.4403   -2.5717 H   0  0  0  0  0  0  0  0  0  0  0  0
    4.5045    0.8401   -1.1708 H   0  0  0  0  0  0  0  0  0  0  0  0
    2.8873    1.5414    1.2830 H   0  0  0  0  0  0  0  0  0  0  0  0
    3.1418    2.4820   -0.2192 H   0  0  0  0  0  0  0  0  0  0  0  0
    1.8219    0.9623   -1.5470 H   0  0  0  0  0  0  0  0  0  0  0  0
    1.2137   -2.5268    0.2564 H   0  0  0  0  0  0  0  0  0  0  0  0
   -0.7789   -2.1078    1.3163 H   0  0  0  0  0  0  0  0  0  0  0  0
    0.1069   -0.6776    1.8403 H   0  0  0  0  0  0  0  0  0  0  0  0
   -1.9691   -1.0389   -1.6616 H   0  0  0  0  0  0  0  0  0  0  0  0
   -2.2093   -2.2123   -0.3327 H   0  0  0  0  0  0  0  0  0  0  0  0
   -4.4520    0.7671    1.1041 H   0  0  0  0  0  0  0  0  0  0  0  0
   -1.9550    1.0867    1.9089 H   0  0  0  0  0  0  0  0  0  0  0  0
   -3.3838   -0.5643    2.9333 H   0  0  0  0  0  0  0  0  0  0  0  0
   -3.9824    2.2023   -0.8921 H   0  0  0  0  0  0  0  0  0  0  0  0
   -2.9377    2.6565    0.4466 H   0  0  0  0  0  0  0  0  0  0  0  0
   -2.1999    1.1598   -2.0792 H   0  0  0  0  0  0  0  0  0  0  0  0
   -1.5386    2.6419   -1.4293 H   0  0  0  0  0  0  0  0  0  0  0  0
   -0.4450    0.3183   -1.3862 H   0  0  0  0  0  0  0  0  0  0  0  0
    0.3073    1.0251    1.9949 H   0  0  0  0  0  0  0  0  0  0  0  0
    1.2925    2.4700    1.6632 H   0  0  0  0  0  0  0  0  0  0  0  0
   -0.4836    2.5708    1.6029 H   0  0  0  0  0  0  0  0  0  0  0  0
    1.1866    3.3951   -0.6037 H   0  0  0  0  0  0  0  0  0  0  0  0
   -4.4380   -1.1935   -2.3529 H   0  0  0  0  0  0  0  0  0  0  0  0
   -5.3619    0.1064   -1.5625 H   0  0  0  0  0  0  0  0  0  0  0  0
   -3.7667    0.4530   -2.2720 H   0  0  0  0  0  0  0  0  0  0  0  0
   -4.5684   -2.4567   -0.2351 H   0  0  0  0  0  0  0  0  0  0  0  0
   -0.4704   -2.3568   -1.4056 H   0  0  0  0  0  0  0  0  0  0  0  0
    2.2989   -1.2652    1.8176 H   0  0  0  0  0  0  0  0  0  0  0  0
    5.5131    1.1340    0.9799 H   0  0  0  0  0  0  0  0  0  0  0  0
    4.9679   -2.1133    0.0563 H   0  0  0  0  0  0  0  0  0  0  0  0
    3.8938   -1.6673    1.4038 H   0  0  0  0  0  0  0  0  0  0  0  0
    3.3737   -2.8884    0.2177 H   0  0  0  0  0  0  0  0  0  0  0  0
  1  2  1  0  0  0  0
  2  3  1  0  0  0  0
  3  4  1  0  0  0  0
  4  5  1  0  0  0  0
  5  6  1  0  0  0  0
  2  6  1  0  0  0  0
  6  7  1  0  0  0  0
  7  8  1  0  0  0  0
  8  9  1  0  0  0  0
  9 10  1  0  0  0  0
 10 11  1  0  0  0  0
 11 12  1  0  0  0  0
 12 13  1  0  0  0  0
  9 13  1  0  0  0  0
 13 14  1  0  0  0  0
 12 15  1  0  0  0  0
 15 16  1  0  0  0  0
 16 17  1  0  0  0  0
  9 17  1  0  0  0  0
 17 18  1  0  0  0  0
  5 18  1  0  0  0  0
 18 19  1  0  0  0  0
 18 20  1  0  0  0  0
 11 21  1  0  0  0  0
 11 22  1  0  0  0  0
  7 23  1  0  0  0  0
  6 24  1  0  0  0  0
  3 25  1  0  0  0  0
  2 26  1  0  0  0  0
  1 27  1  0  0  0  0
  1 28  1  0  0  0  0
  1 29  1  0  0  0  0
  3 30  1  0  0  0  0
  4 31  1  0  0  0  0
  4 32  1  0  0  0  0
  5 33  1  0  0  0  0
  7 34  1  0  0  0  0
  8 35  1  0  0  0  0
  8 36  1  0  0  0  0
 10 37  1  0  0  0  0
 10 38  1  0  0  0  0
 12 39  1  0  0  0  0
 13 40  1  0  0  0  0
 14 41  1  0  0  0  0
 15 42  1  0  0  0  0
 15 43  1  0  0  0  0
 16 44  1  0  0  0  0
 16 45  1  0  0  0  0
 17 46  1  0  0  0  0
 19 47  1  0  0  0  0
 19 48  1  0  0  0  0
 19 49  1  0  0  0  0
 20 50  1  0  0  0  0
 21 51  1  0  0  0  0
 21 52  1  0  0  0  0
 21 53  1  0  0  0  0
 22 54  1  0  0  0  0
 23 55  1  0  0  0  0
 24 56  1  0  0  0  0
 25 57  1  0  0  0  0
 26 58  1  0  0  0  0
 26 59  1  0  0  0  0
 26 60  1  0  0  0  0
M  END
$$$$
