C15H12O5
APtclcactv06281816353D 0   0.00000     0.00000
 
 32 34  0  0  0  0  0  0  0  0999 V2000
   -2.2681    0.8387   -0.8398 C   0  0  0  0  0  0  0  0  0  0  0  0
   -3.5901    1.1981   -1.0178 C   0  0  0  0  0  0  0  0  0  0  0  0
   -4.5434    0.8148   -0.0857 C   0  0  0  0  0  0  0  0  0  0  0  0
   -4.1664    0.0711    1.0231 C   0  0  0  0  0  0  0  0  0  0  0  0
   -2.8432   -0.2858    1.1965 C   0  0  0  0  0  0  0  0  0  0  0  0
   -1.8949    0.0975    0.2662 C   0  0  0  0  0  0  0  0  0  0  0  0
   -0.4521   -0.2932    0.4578 C   0  0  0  0  0  0  0  0  0  0  0  0
   -0.1302   -1.5115   -0.4199 C   0  0  0  0  0  0  0  0  0  0  0  0
    1.3377   -1.8390   -0.2117 C   0  0  0  0  0  0  0  0  0  0  0  0
    1.7304   -2.9839   -0.1271 O   0  0  0  0  0  0  0  0  0  0  0  0
    2.2591   -0.6964   -0.1185 C   0  0  0  0  0  0  0  0  0  0  0  0
    1.7281    0.5967    0.0337 C   0  0  0  0  0  0  0  0  0  0  0  0
    0.3904    0.7960    0.0818 O   0  0  0  0  0  0  0  0  0  0  0  0
    2.5933    1.6746    0.1299 C   0  0  0  0  0  0  0  0  0  0  0  0
    3.9639    1.4688    0.0705 C   0  0  0  0  0  0  0  0  0  0  0  0
    4.4813    0.1851   -0.0856 C   0  0  0  0  0  0  0  0  0  0  0  0
    3.6424   -0.8886   -0.1788 C   0  0  0  0  0  0  0  0  0  0  0  0
    4.8076    2.5270    0.1649 O   0  0  0  0  0  0  0  0  0  0  0  0
   -0.9374   -2.6227   -0.0252 O   0  0  0  0  0  0  0  0  0  0  0  0
   -5.8445    1.1675   -0.2583 O   0  0  0  0  0  0  0  0  0  0  0  0
   -1.5263    1.1330   -1.5674 H   0  0  0  0  0  0  0  0  0  0  0  0
   -3.8810    1.7774   -1.8816 H   0  0  0  0  0  0  0  0  0  0  0  0
   -4.9067   -0.2282    1.7503 H   0  0  0  0  0  0  0  0  0  0  0  0
   -2.5491   -0.8644    2.0597 H   0  0  0  0  0  0  0  0  0  0  0  0
   -0.2789   -0.5431    1.5046 H   0  0  0  0  0  0  0  0  0  0  0  0
   -0.3123   -1.2727   -1.4677 H   0  0  0  0  0  0  0  0  0  0  0  0
    2.2013    2.6737    0.2507 H   0  0  0  0  0  0  0  0  0  0  0  0
    5.5502    0.0382   -0.1328 H   0  0  0  0  0  0  0  0  0  0  0  0
    4.0465   -1.8830   -0.2990 H   0  0  0  0  0  0  0  0  0  0  0  0
    5.0756    2.7368    1.0700 H   0  0  0  0  0  0  0  0  0  0  0  0
   -0.7818   -3.4251   -0.5420 H   0  0  0  0  0  0  0  0  0  0  0  0
   -6.3632    0.5241   -0.7603 H   0  0  0  0  0  0  0  0  0  0  0  0
  1  2  2  0  0  0  0
  2  3  1  0  0  0  0
  3  4  2  0  0  0  0
  4  5  1  0  0  0  0
  5  6  2  0  0  0  0
  1  6  1  0  0  0  0
  6  7  1  0  0  0  0
  7  8  1  0  0  0  0
  8  9  1  0  0  0  0
  9 10  2  0  0  0  0
  9 11  1  0  0  0  0
 11 12  2  0  0  0  0
 12 13  1  0  0  0  0
  7 13  1  0  0  0  0
 12 14  1  0  0  0  0
 14 15  2  0  0  0  0
 15 16  1  0  0  0  0
 16 17  2  0  0  0  0
 11 17  1  0  0  0  0
 15 18  1  0  0  0  0
  8 19  1  0  0  0  0
  3 20  1  0  0  0  0
  1 21  1  0  0  0  0
  2 22  1  0  0  0  0
  4 23  1  0  0  0  0
  5 24  1  0  0  0  0
  7 25  1  0  0  0  0
  8 26  1  0  0  0  0
 14 27  1  0  0  0  0
 16 28  1  0  0  0  0
 17 29  1  0  0  0  0
 18 30  1  0  0  0  0
 19 31  1  0  0  0  0
 20 32  1  0  0  0  0
M  END
$$$$
