C15H18
APtclcactv06201806303D 0   0.00000     0.00000
 
 33 34  0  0  0  0  0  0  0  0999 V2000
    1.8218    3.0638   -0.0004 C   0  0  0  0  0  0  0  0  0  0  0  0
    0.9136    1.8612   -0.0010 C   0  0  0  0  0  0  0  0  0  0  0  0
    1.5416    0.6129   -0.0009 C   0  0  0  0  0  0  0  0  0  0  0  0
    2.9200    0.3987   -0.0008 C   0  0  0  0  0  0  0  0  0  0  0  0
    3.1504   -0.9652   -0.0000 C   0  0  0  0  0  0  0  0  0  0  0  0
    1.9508   -1.6550    0.0004 C   0  0  0  0  0  0  0  0  0  0  0  0
    0.9092   -0.7279   -0.0001 C   0  0  0  0  0  0  0  0  0  0  0  0
   -0.4539   -1.0376    0.0008 C   0  0  0  0  0  0  0  0  0  0  0  0
   -1.5200   -0.1533   -0.0002 C   0  0  0  0  0  0  0  0  0  0  0  0
   -1.5083    1.2318   -0.0017 C   0  0  0  0  0  0  0  0  0  0  0  0
   -0.4474    2.1213    0.0040 C   0  0  0  0  0  0  0  0  0  0  0  0
   -2.8867   -0.7882    0.0001 C   0  0  0  0  0  0  0  0  0  0  0  0
   -3.6534   -0.3480    1.2488 C   0  0  0  0  0  0  0  0  0  0  0  0
   -3.6529   -0.3501   -1.2496 C   0  0  0  0  0  0  0  0  0  0  0  0
    1.7963   -3.1540    0.0009 C   0  0  0  0  0  0  0  0  0  0  0  0
    2.0412    3.3540   -1.0279 H   0  0  0  0  0  0  0  0  0  0  0  0
    1.3303    3.8900    0.5134 H   0  0  0  0  0  0  0  0  0  0  0  0
    2.7507    2.8174    0.5138 H   0  0  0  0  0  0  0  0  0  0  0  0
    3.6786    1.1674   -0.0018 H   0  0  0  0  0  0  0  0  0  0  0  0
    4.1271   -1.4260   -0.0003 H   0  0  0  0  0  0  0  0  0  0  0  0
   -0.7049   -2.0880    0.0020 H   0  0  0  0  0  0  0  0  0  0  0  0
   -2.4851    1.6925   -0.0026 H   0  0  0  0  0  0  0  0  0  0  0  0
   -0.7192    3.1666    0.0010 H   0  0  0  0  0  0  0  0  0  0  0  0
   -2.7832   -1.8733    0.0010 H   0  0  0  0  0  0  0  0  0  0  0  0
   -4.6419   -0.8073    1.2490 H   0  0  0  0  0  0  0  0  0  0  0  0
   -3.1075   -0.6602    2.1392 H   0  0  0  0  0  0  0  0  0  0  0  0
   -3.7569    0.7370    1.2479 H   0  0  0  0  0  0  0  0  0  0  0  0
   -3.1067   -0.6637   -2.1393 H   0  0  0  0  0  0  0  0  0  0  0  0
   -4.6414   -0.8094   -1.2494 H   0  0  0  0  0  0  0  0  0  0  0  0
   -3.7564    0.7350   -1.2505 H   0  0  0  0  0  0  0  0  0  0  0  0
    2.7813   -3.6208    0.0013 H   0  0  0  0  0  0  0  0  0  0  0  0
    1.2477   -3.4625    0.8908 H   0  0  0  0  0  0  0  0  0  0  0  0
    1.2481   -3.4631   -0.8891 H   0  0  0  0  0  0  0  0  0  0  0  0
  1  2  1  0  0  0  0
  2  3  2  0  0  0  0
  3  4  1  0  0  0  0
  4  5  2  0  0  0  0
  5  6  1  0  0  0  0
  6  7  2  0  0  0  0
  3  7  1  0  0  0  0
  7  8  1  0  0  0  0
  8  9  2  0  0  0  0
  9 10  1  0  0  0  0
 10 11  2  0  0  0  0
  2 11  1  0  0  0  0
  9 12  1  0  0  0  0
 12 13  1  0  0  0  0
 12 14  1  0  0  0  0
  6 15  1  0  0  0  0
  1 16  1  0  0  0  0
  1 17  1  0  0  0  0
  1 18  1  0  0  0  0
  4 19  1  0  0  0  0
  5 20  1  0  0  0  0
  8 21  1  0  0  0  0
 10 22  1  0  0  0  0
 11 23  1  0  0  0  0
 12 24  1  0  0  0  0
 13 25  1  0  0  0  0
 13 26  1  0  0  0  0
 13 27  1  0  0  0  0
 14 28  1  0  0  0  0
 14 29  1  0  0  0  0
 14 30  1  0  0  0  0
 15 31  1  0  0  0  0
 15 32  1  0  0  0  0
 15 33  1  0  0  0  0
M  END
$$$$
