C17H13NO3
APtclcactv06211806483D 0   0.00000     0.00000
 
 34 37  0  0  0  0  0  0  0  0999 V2000
    0.6316    2.1674    0.2647 C   0  0  0  0  0  0  0  0  0  0  0  0
    1.2005    0.8320    0.0666 N   0  0  0  0  0  0  0  0  0  0  0  0
    2.5659    0.6622    0.1514 C   0  0  0  0  0  0  0  0  0  0  0  0
    3.4034    1.7400    0.4220 C   0  0  0  0  0  0  0  0  0  0  0  0
    4.7655    1.5477    0.5027 C   0  0  0  0  0  0  0  0  0  0  0  0
    5.3145    0.2870    0.3161 C   0  0  0  0  0  0  0  0  0  0  0  0
    4.5033   -0.7931    0.0473 C   0  0  0  0  0  0  0  0  0  0  0  0
    3.1226   -0.6143   -0.0370 C   0  0  0  0  0  0  0  0  0  0  0  0
    2.2222   -1.7463   -0.3229 C   0  0  0  0  0  0  0  0  0  0  0  0
    2.6629   -2.8720   -0.4932 O   0  0  0  0  0  0  0  0  0  0  0  0
    0.8388   -1.4912   -0.3934 C   0  0  0  0  0  0  0  0  0  0  0  0
    0.3660   -0.2164   -0.1921 C   0  0  0  0  0  0  0  0  0  0  0  0
   -1.0877    0.0283   -0.2701 C   0  0  0  0  0  0  0  0  0  0  0  0
   -1.9729   -0.7755    0.4523 C   0  0  0  0  0  0  0  0  0  0  0  0
   -3.3328   -0.5433    0.3766 C   0  0  0  0  0  0  0  0  0  0  0  0
   -3.8197    0.4929   -0.4208 C   0  0  0  0  0  0  0  0  0  0  0  0
   -2.9391    1.2910   -1.1383 C   0  0  0  0  0  0  0  0  0  0  0  0
   -1.5814    1.0679   -1.0621 C   0  0  0  0  0  0  0  0  0  0  0  0
   -5.1804    0.5125   -0.3252 O   0  0  0  0  0  0  0  0  0  0  0  0
   -5.4950   -0.2536    0.8524 C   0  0  0  0  0  0  0  0  0  0  0  0
   -4.3906   -1.1699    0.9702 O   0  0  0  0  0  0  0  0  0  0  0  0
    0.5972    2.6929   -0.6896 H   0  0  0  0  0  0  0  0  0  0  0  0
   -0.3777    2.0765    0.6660 H   0  0  0  0  0  0  0  0  0  0  0  0
    1.2522    2.7264    0.9651 H   0  0  0  0  0  0  0  0  0  0  0  0
    2.9866    2.7256    0.5682 H   0  0  0  0  0  0  0  0  0  0  0  0
    5.4123    2.3867    0.7129 H   0  0  0  0  0  0  0  0  0  0  0  0
    6.3840    0.1521    0.3817 H   0  0  0  0  0  0  0  0  0  0  0  0
    4.9338   -1.7729   -0.0977 H   0  0  0  0  0  0  0  0  0  0  0  0
    0.1503   -2.2968   -0.6013 H   0  0  0  0  0  0  0  0  0  0  0  0
   -1.5948   -1.5776    1.0689 H   0  0  0  0  0  0  0  0  0  0  0  0
   -3.3191    2.0921   -1.7549 H   0  0  0  0  0  0  0  0  0  0  0  0
   -0.8995    1.6909   -1.6218 H   0  0  0  0  0  0  0  0  0  0  0  0
   -5.5501    0.3942    1.7272 H   0  0  0  0  0  0  0  0  0  0  0  0
   -6.4304   -0.7967    0.7173 H   0  0  0  0  0  0  0  0  0  0  0  0
  1  2  1  0  0  0  0
  2  3  1  0  0  0  0
  3  4  2  0  0  0  0
  4  5  1  0  0  0  0
  5  6  2  0  0  0  0
  6  7  1  0  0  0  0
  7  8  2  0  0  0  0
  3  8  1  0  0  0  0
  8  9  1  0  0  0  0
  9 10  2  0  0  0  0
  9 11  1  0  0  0  0
 11 12  2  0  0  0  0
  2 12  1  0  0  0  0
 12 13  1  0  0  0  0
 13 14  2  0  0  0  0
 14 15  1  0  0  0  0
 15 16  2  0  0  0  0
 16 17  1  0  0  0  0
 17 18  2  0  0  0  0
 13 18  1  0  0  0  0
 16 19  1  0  0  0  0
 19 20  1  0  0  0  0
 20 21  1  0  0  0  0
 15 21  1  0  0  0  0
  1 22  1  0  0  0  0
  1 23  1  0  0  0  0
  1 24  1  0  0  0  0
  4 25  1  0  0  0  0
  5 26  1  0  0  0  0
  6 27  1  0  0  0  0
  7 28  1  0  0  0  0
 11 29  1  0  0  0  0
 14 30  1  0  0  0  0
 17 31  1  0  0  0  0
 18 32  1  0  0  0  0
 20 33  1  0  0  0  0
 20 34  1  0  0  0  0
M  END
$$$$
