C17H14O3
APtclcactv06211806483D 0   0.00000     0.00000
 
 34 36  0  0  0  0  0  0  0  0999 V2000
    1.6729    2.5788    0.3142 C   0  0  0  0  0  0  0  0  0  0  0  0
    0.7105    1.4614    0.0039 C   0  0  0  0  0  0  0  0  0  0  0  0
    1.2014    0.2008   -0.1219 C   0  0  0  0  0  0  0  0  0  0  0  0
    0.2490   -0.8903   -0.4052 C   0  0  0  0  0  0  0  0  0  0  0  0
    0.6181   -1.9977   -0.7560 O   0  0  0  0  0  0  0  0  0  0  0  0
   -1.1784   -0.5561   -0.2364 C   0  0  0  0  0  0  0  0  0  0  0  0
   -1.5269    0.7988   -0.0964 C   0  0  0  0  0  0  0  0  0  0  0  0
   -0.5824    1.7558   -0.1289 O   0  0  0  0  0  0  0  0  0  0  0  0
   -2.8643    1.1345    0.0757 C   0  0  0  0  0  0  0  0  0  0  0  0
   -3.8268    0.1401    0.0995 C   0  0  0  0  0  0  0  0  0  0  0  0
   -3.4695   -1.1988   -0.0473 C   0  0  0  0  0  0  0  0  0  0  0  0
   -2.1591   -1.5472   -0.2134 C   0  0  0  0  0  0  0  0  0  0  0  0
   -5.1320    0.4724    0.2681 O   0  0  0  0  0  0  0  0  0  0  0  0
   -6.0775   -0.5990    0.2838 C   0  0  0  0  0  0  0  0  0  0  0  0
    2.6524   -0.0708    0.0208 C   0  0  0  0  0  0  0  0  0  0  0  0
    3.1170   -0.8539    1.0760 C   0  0  0  0  0  0  0  0  0  0  0  0
    4.4683   -1.1034    1.2039 C   0  0  0  0  0  0  0  0  0  0  0  0
    5.3611   -0.5774    0.2876 C   0  0  0  0  0  0  0  0  0  0  0  0
    4.9058    0.2009   -0.7614 C   0  0  0  0  0  0  0  0  0  0  0  0
    3.5560    0.4513   -0.9030 C   0  0  0  0  0  0  0  0  0  0  0  0
    2.0480    3.0043   -0.6166 H   0  0  0  0  0  0  0  0  0  0  0  0
    1.1598    3.3519    0.8863 H   0  0  0  0  0  0  0  0  0  0  0  0
    2.5069    2.1885    0.8974 H   0  0  0  0  0  0  0  0  0  0  0  0
   -3.1521    2.1690    0.1909 H   0  0  0  0  0  0  0  0  0  0  0  0
   -4.2314   -1.9640   -0.0293 H   0  0  0  0  0  0  0  0  0  0  0  0
   -1.8840   -2.5854   -0.3263 H   0  0  0  0  0  0  0  0  0  0  0  0
   -5.8408   -1.2804    1.1010 H   0  0  0  0  0  0  0  0  0  0  0  0
   -7.0805   -0.1964    0.4253 H   0  0  0  0  0  0  0  0  0  0  0  0
   -6.0322   -1.1374   -0.6628 H   0  0  0  0  0  0  0  0  0  0  0  0
    2.4208   -1.2645    1.7924 H   0  0  0  0  0  0  0  0  0  0  0  0
    4.8294   -1.7100    2.0212 H   0  0  0  0  0  0  0  0  0  0  0  0
    6.4178   -0.7749    0.3917 H   0  0  0  0  0  0  0  0  0  0  0  0
    5.6074    0.6095   -1.4735 H   0  0  0  0  0  0  0  0  0  0  0  0
    3.2015    1.0591   -1.7224 H   0  0  0  0  0  0  0  0  0  0  0  0
  1  2  1  0  0  0  0
  2  3  2  0  0  0  0
  3  4  1  0  0  0  0
  4  5  2  0  0  0  0
  4  6  1  0  0  0  0
  6  7  2  0  0  0  0
  7  8  1  0  0  0  0
  2  8  1  0  0  0  0
  7  9  1  0  0  0  0
  9 10  2  0  0  0  0
 10 11  1  0  0  0  0
 11 12  2  0  0  0  0
  6 12  1  0  0  0  0
 10 13  1  0  0  0  0
 13 14  1  0  0  0  0
  3 15  1  0  0  0  0
 15 16  2  0  0  0  0
 16 17  1  0  0  0  0
 17 18  2  0  0  0  0
 18 19  1  0  0  0  0
 19 20  2  0  0  0  0
 15 20  1  0  0  0  0
  1 21  1  0  0  0  0
  1 22  1  0  0  0  0
  1 23  1  0  0  0  0
  9 24  1  0  0  0  0
 11 25  1  0  0  0  0
 12 26  1  0  0  0  0
 14 27  1  0  0  0  0
 14 28  1  0  0  0  0
 14 29  1  0  0  0  0
 16 30  1  0  0  0  0
 17 31  1  0  0  0  0
 18 32  1  0  0  0  0
 19 33  1  0  0  0  0
 20 34  1  0  0  0  0
M  END
$$$$
