C10H12O2
APtclcactv06211804353D 0   0.00000     0.00000
 
 24 24  0  0  0  0  0  0  0  0999 V2000
    3.1898   -0.1084   -1.2500 C   0  0  0  0  0  0  0  0  0  0  0  0
    2.4710   -0.6206   -0.0002 C   0  0  0  0  0  0  0  0  0  0  0  0
    3.1902   -0.1065    1.2485 C   0  0  0  0  0  0  0  0  0  0  0  0
    1.0480   -0.1245   -0.0004 C   0  0  0  0  0  0  0  0  0  0  0  0
    0.0770   -1.1009    0.0005 C   0  0  0  0  0  0  0  0  0  0  0  0
   -1.3202   -0.9424    0.0002 C   0  0  0  0  0  0  0  0  0  0  0  0
   -1.9758   -1.9754    0.0008 O   0  0  0  0  0  0  0  0  0  0  0  0
   -2.0648    0.2646   -0.0002 C   0  0  0  0  0  0  0  0  0  0  0  0
   -1.5896    1.5624   -0.0008 C   0  0  0  0  0  0  0  0  0  0  0  0
   -0.2691    2.0031   -0.0017 C   0  0  0  0  0  0  0  0  0  0  0  0
    0.8927    1.2596    0.0041 C   0  0  0  0  0  0  0  0  0  0  0  0
   -3.4127    0.1281   -0.0004 O   0  0  0  0  0  0  0  0  0  0  0  0
    4.2190   -0.4672   -1.2499 H   0  0  0  0  0  0  0  0  0  0  0  0
    2.6774   -0.4746   -2.1396 H   0  0  0  0  0  0  0  0  0  0  0  0
    3.1850    0.9816   -1.2508 H   0  0  0  0  0  0  0  0  0  0  0  0
    2.4757   -1.7106    0.0006 H   0  0  0  0  0  0  0  0  0  0  0  0
    3.1854    0.9835    1.2477 H   0  0  0  0  0  0  0  0  0  0  0  0
    2.6781   -0.4714    2.1388 H   0  0  0  0  0  0  0  0  0  0  0  0
    4.2194   -0.4653    1.2486 H   0  0  0  0  0  0  0  0  0  0  0  0
    0.4347   -2.1199    0.0012 H   0  0  0  0  0  0  0  0  0  0  0  0
   -2.3422    2.3370   -0.0011 H   0  0  0  0  0  0  0  0  0  0  0  0
   -0.1360    3.0748   -0.0029 H   0  0  0  0  0  0  0  0  0  0  0  0
    1.8097    1.8302    0.0024 H   0  0  0  0  0  0  0  0  0  0  0  0
   -3.8930    0.9673   -0.0007 H   0  0  0  0  0  0  0  0  0  0  0  0
  1  2  1  0  0  0  0
  2  3  1  0  0  0  0
  2  4  1  0  0  0  0
  4  5  2  0  0  0  0
  5  6  1  0  0  0  0
  6  7  2  0  0  0  0
  6  8  1  0  0  0  0
  8  9  2  0  0  0  0
  9 10  1  0  0  0  0
 10 11  2  0  0  0  0
  4 11  1  0  0  0  0
  8 12  1  0  0  0  0
  1 13  1  0  0  0  0
  1 14  1  0  0  0  0
  1 15  1  0  0  0  0
  2 16  1  0  0  0  0
  3 17  1  0  0  0  0
  3 18  1  0  0  0  0
  3 19  1  0  0  0  0
  5 20  1  0  0  0  0
  9 21  1  0  0  0  0
 10 22  1  0  0  0  0
 11 23  1  0  0  0  0
 12 24  1  0  0  0  0
M  END
$$$$
