C9H14N2
APtclcactv06211806213D 0   0.00000     0.00000
 
 25 25  0  0  0  0  0  0  0  0999 V2000
   -3.7356   -0.0451   -0.6296 C   0  0  0  0  0  0  0  0  0  0  0  0
   -2.9126   -0.0086    0.6597 C   0  0  0  0  0  0  0  0  0  0  0  0
   -1.4485    0.0964    0.3182 C   0  0  0  0  0  0  0  0  0  0  0  0
   -0.8815    1.3352    0.0779 C   0  0  0  0  0  0  0  0  0  0  0  0
    0.4025    1.4274   -0.2212 N   0  0  0  0  0  0  0  0  0  0  0  0
    1.1446    0.3365   -0.2906 C   0  0  0  0  0  0  0  0  0  0  0  0
    0.5774   -0.9027   -0.0502 C   0  0  0  0  0  0  0  0  0  0  0  0
   -0.7052   -0.9943    0.2537 N   0  0  0  0  0  0  0  0  0  0  0  0
    1.4238   -2.1470   -0.1294 C   0  0  0  0  0  0  0  0  0  0  0  0
    2.6087    0.4416   -0.6321 C   0  0  0  0  0  0  0  0  0  0  0  0
    3.4219    0.6041    0.6537 C   0  0  0  0  0  0  0  0  0  0  0  0
   -3.4388   -0.9080   -1.2258 H   0  0  0  0  0  0  0  0  0  0  0  0
   -4.7945   -0.1211   -0.3826 H   0  0  0  0  0  0  0  0  0  0  0  0
   -3.5599    0.8677   -1.1988 H   0  0  0  0  0  0  0  0  0  0  0  0
   -3.2094    0.8542    1.2559 H   0  0  0  0  0  0  0  0  0  0  0  0
   -3.0883   -0.9214    1.2289 H   0  0  0  0  0  0  0  0  0  0  0  0
   -1.4882    2.2269    0.1343 H   0  0  0  0  0  0  0  0  0  0  0  0
    1.8539   -2.3568    0.8499 H   0  0  0  0  0  0  0  0  0  0  0  0
    0.8050   -2.9880   -0.4422 H   0  0  0  0  0  0  0  0  0  0  0  0
    2.2247   -1.9962   -0.8533 H   0  0  0  0  0  0  0  0  0  0  0  0
    2.9265   -0.4626   -1.1512 H   0  0  0  0  0  0  0  0  0  0  0  0
    2.7704    1.3061   -1.2760 H   0  0  0  0  0  0  0  0  0  0  0  0
    4.4808    0.6801    0.4067 H   0  0  0  0  0  0  0  0  0  0  0  0
    3.1040    1.5084    1.1728 H   0  0  0  0  0  0  0  0  0  0  0  0
    3.2601   -0.2603    1.2976 H   0  0  0  0  0  0  0  0  0  0  0  0
  1  2  1  0  0  0  0
  2  3  1  0  0  0  0
  3  4  2  0  0  0  0
  4  5  1  0  0  0  0
  5  6  2  0  0  0  0
  6  7  1  0  0  0  0
  7  8  2  0  0  0  0
  3  8  1  0  0  0  0
  7  9  1  0  0  0  0
  6 10  1  0  0  0  0
 10 11  1  0  0  0  0
  1 12  1  0  0  0  0
  1 13  1  0  0  0  0
  1 14  1  0  0  0  0
  2 15  1  0  0  0  0
  2 16  1  0  0  0  0
  4 17  1  0  0  0  0
  9 18  1  0  0  0  0
  9 19  1  0  0  0  0
  9 20  1  0  0  0  0
 10 21  1  0  0  0  0
 10 22  1  0  0  0  0
 11 23  1  0  0  0  0
 11 24  1  0  0  0  0
 11 25  1  0  0  0  0
M  END
$$$$
