C20H12O6
APtclcactv06211806493D 0   0.00000     0.00000
 
 38 43  0  0  0  0  0  0  0  0999 V2000
   -0.2757    3.3493    0.0061 C   0  0  0  0  0  0  0  0  0  0  0  0
    0.4991    2.0544   -0.0091 C   0  0  0  0  0  0  0  0  0  0  0  0
    1.8535    2.4054    0.1350 C   0  0  0  0  0  0  0  0  0  0  0  0
    2.8316    1.4205    0.1592 C   0  0  0  0  0  0  0  0  0  0  0  0
    2.4698    0.0714    0.0404 C   0  0  0  0  0  0  0  0  0  0  0  0
    3.4453   -0.9427    0.0661 C   0  0  0  0  0  0  0  0  0  0  0  0
    3.0705   -2.2491   -0.0520 C   0  0  0  0  0  0  0  0  0  0  0  0
    1.7165   -2.5955   -0.2005 C   0  0  0  0  0  0  0  0  0  0  0  0
    0.7491   -1.6304   -0.2280 C   0  0  0  0  0  0  0  0  0  0  0  0
    1.1044   -0.2810   -0.1073 C   0  0  0  0  0  0  0  0  0  0  0  0
    0.1184    0.7373   -0.1291 C   0  0  0  0  0  0  0  0  0  0  0  0
   -1.3128    0.3859   -0.2799 C   0  0  0  0  0  0  0  0  0  0  0  0
   -1.9614   -0.3451    0.7149 C   0  0  0  0  0  0  0  0  0  0  0  0
   -3.2975   -0.6716    0.5710 C   0  0  0  0  0  0  0  0  0  0  0  0
   -3.9936   -0.2696   -0.5681 C   0  0  0  0  0  0  0  0  0  0  0  0
   -3.3469    0.4572   -1.5567 C   0  0  0  0  0  0  0  0  0  0  0  0
   -2.0158    0.7903   -1.4146 C   0  0  0  0  0  0  0  0  0  0  0  0
   -5.2814   -0.7120   -0.4699 O   0  0  0  0  0  0  0  0  0  0  0  0
   -5.4733   -1.0323    0.9205 C   0  0  0  0  0  0  0  0  0  0  0  0
   -4.1503   -1.3649    1.3810 O   0  0  0  0  0  0  0  0  0  0  0  0
    1.6275   -3.9546   -0.2965 O   0  0  0  0  0  0  0  0  0  0  0  0
    2.8776   -4.4594    0.2074 C   0  0  0  0  0  0  0  0  0  0  0  0
    3.8118   -3.3965   -0.0558 O   0  0  0  0  0  0  0  0  0  0  0  0
    1.9314    3.8743    0.2366 C   0  0  0  0  0  0  0  0  0  0  0  0
    2.9598    4.5075    0.3689 O   0  0  0  0  0  0  0  0  0  0  0  0
    0.7033    4.4122    0.1620 O   0  0  0  0  0  0  0  0  0  0  0  0
   -0.8157    3.4730   -0.9325 H   0  0  0  0  0  0  0  0  0  0  0  0
   -0.9734    3.3578    0.8435 H   0  0  0  0  0  0  0  0  0  0  0  0
    3.8707    1.6936    0.2692 H   0  0  0  0  0  0  0  0  0  0  0  0
    4.4886   -0.6872    0.1788 H   0  0  0  0  0  0  0  0  0  0  0  0
   -0.2883   -1.9080   -0.3430 H   0  0  0  0  0  0  0  0  0  0  0  0
   -1.4208   -0.6562    1.5966 H   0  0  0  0  0  0  0  0  0  0  0  0
   -3.8884    0.7675   -2.4381 H   0  0  0  0  0  0  0  0  0  0  0  0
   -1.5156    1.3566   -2.1863 H   0  0  0  0  0  0  0  0  0  0  0  0
   -5.8617   -0.1697    1.4621 H   0  0  0  0  0  0  0  0  0  0  0  0
   -6.1422   -1.8862    1.0281 H   0  0  0  0  0  0  0  0  0  0  0  0
    2.8087   -4.6515    1.2781 H   0  0  0  0  0  0  0  0  0  0  0  0
    3.1677   -5.3643   -0.3266 H   0  0  0  0  0  0  0  0  0  0  0  0
  1  2  1  0  0  0  0
  2  3  2  0  0  0  0
  3  4  1  0  0  0  0
  4  5  2  0  0  0  0
  5  6  1  0  0  0  0
  6  7  2  0  0  0  0
  7  8  1  0  0  0  0
  8  9  2  0  0  0  0
  9 10  1  0  0  0  0
  5 10  1  0  0  0  0
 10 11  2  0  0  0  0
  2 11  1  0  0  0  0
 11 12  1  0  0  0  0
 12 13  2  0  0  0  0
 13 14  1  0  0  0  0
 14 15  2  0  0  0  0
 15 16  1  0  0  0  0
 16 17  2  0  0  0  0
 12 17  1  0  0  0  0
 15 18  1  0  0  0  0
 18 19  1  0  0  0  0
 19 20  1  0  0  0  0
 14 20  1  0  0  0  0
  8 21  1  0  0  0  0
 21 22  1  0  0  0  0
 22 23  1  0  0  0  0
  7 23  1  0  0  0  0
  3 24  1  0  0  0  0
 24 25  2  0  0  0  0
 24 26  1  0  0  0  0
  1 26  1  0  0  0  0
  1 27  1  0  0  0  0
  1 28  1  0  0  0  0
  4 29  1  0  0  0  0
  6 30  1  0  0  0  0
  9 31  1  0  0  0  0
 13 32  1  0  0  0  0
 16 33  1  0  0  0  0
 17 34  1  0  0  0  0
 19 35  1  0  0  0  0
 19 36  1  0  0  0  0
 22 37  1  0  0  0  0
 22 38  1  0  0  0  0
M  END
$$$$
