C12H10O4
APtclcactv06211802143D 0   0.00000     0.00000
 
 26 27  0  0  0  0  0  0  0  0999 V2000
    2.8218    2.6209   -0.1646 C   0  0  0  0  0  0  0  0  0  0  0  0
    2.4453    1.1638   -0.0862 C   0  0  0  0  0  0  0  0  0  0  0  0
    3.3862    0.1924   -0.2127 C   0  0  0  0  0  0  0  0  0  0  0  0
    3.0084   -1.1642   -0.1351 C   0  0  0  0  0  0  0  0  0  0  0  0
    3.8620   -2.0254   -0.2498 O   0  0  0  0  0  0  0  0  0  0  0  0
    1.7324   -1.5306    0.0624 O   0  0  0  0  0  0  0  0  0  0  0  0
    0.7489   -0.6151    0.1962 C   0  0  0  0  0  0  0  0  0  0  0  0
    1.0558    0.7567    0.1347 C   0  0  0  0  0  0  0  0  0  0  0  0
    0.0396    1.7089    0.2739 C   0  0  0  0  0  0  0  0  0  0  0  0
   -1.2485    1.3023    0.4691 C   0  0  0  0  0  0  0  0  0  0  0  0
   -1.5586   -0.0548    0.5309 C   0  0  0  0  0  0  0  0  0  0  0  0
   -0.5648   -1.0106    0.4003 C   0  0  0  0  0  0  0  0  0  0  0  0
   -2.8451   -0.4434    0.7262 O   0  0  0  0  0  0  0  0  0  0  0  0
   -3.7086   -0.2197   -0.2777 C   0  0  0  0  0  0  0  0  0  0  0  0
   -3.3088    0.2089   -1.3342 O   0  0  0  0  0  0  0  0  0  0  0  0
   -5.1762   -0.5034   -0.0864 C   0  0  0  0  0  0  0  0  0  0  0  0
    3.8959    2.7104   -0.3272 H   0  0  0  0  0  0  0  0  0  0  0  0
    2.2889    3.0898   -0.9918 H   0  0  0  0  0  0  0  0  0  0  0  0
    2.5530    3.1163    0.7683 H   0  0  0  0  0  0  0  0  0  0  0  0
    4.4207    0.4581   -0.3727 H   0  0  0  0  0  0  0  0  0  0  0  0
    0.2740    2.7621    0.2272 H   0  0  0  0  0  0  0  0  0  0  0  0
   -2.0326    2.0372    0.5768 H   0  0  0  0  0  0  0  0  0  0  0  0
   -0.8132   -2.0605    0.4489 H   0  0  0  0  0  0  0  0  0  0  0  0
   -5.6720    0.3889    0.2958 H   0  0  0  0  0  0  0  0  0  0  0  0
   -5.6195   -0.7843   -1.0417 H   0  0  0  0  0  0  0  0  0  0  0  0
   -5.2988   -1.3200    0.6251 H   0  0  0  0  0  0  0  0  0  0  0  0
  1  2  1  0  0  0  0
  2  3  2  0  0  0  0
  3  4  1  0  0  0  0
  4  5  2  0  0  0  0
  4  6  1  0  0  0  0
  6  7  1  0  0  0  0
  7  8  2  0  0  0  0
  2  8  1  0  0  0  0
  8  9  1  0  0  0  0
  9 10  2  0  0  0  0
 10 11  1  0  0  0  0
 11 12  2  0  0  0  0
  7 12  1  0  0  0  0
 11 13  1  0  0  0  0
 13 14  1  0  0  0  0
 14 15  2  0  0  0  0
 14 16  1  0  0  0  0
  1 17  1  0  0  0  0
  1 18  1  0  0  0  0
  1 19  1  0  0  0  0
  3 20  1  0  0  0  0
  9 21  1  0  0  0  0
 10 22  1  0  0  0  0
 12 23  1  0  0  0  0
 16 24  1  0  0  0  0
 16 25  1  0  0  0  0
 16 26  1  0  0  0  0
M  END
$$$$
