C17H14O4
APtclcactv06211806493D 0   0.00000     0.00000
 
 35 37  0  0  0  0  0  0  0  0999 V2000
    4.8447   -0.4783    0.0193 C   0  0  0  0  0  0  0  0  0  0  0  0
    3.3692   -0.1719    0.0045 C   0  0  0  0  0  0  0  0  0  0  0  0
    2.9354    1.1468   -0.0739 C   0  0  0  0  0  0  0  0  0  0  0  0
    1.5816    1.4458   -0.0882 C   0  0  0  0  0  0  0  0  0  0  0  0
    0.6452    0.4261   -0.0240 C   0  0  0  0  0  0  0  0  0  0  0  0
    1.0811   -0.9082    0.0549 C   0  0  0  0  0  0  0  0  0  0  0  0
    2.4500   -1.2034    0.0632 C   0  0  0  0  0  0  0  0  0  0  0  0
    2.8713   -2.4911    0.1393 O   0  0  0  0  0  0  0  0  0  0  0  0
    0.0683   -1.9749    0.1223 C   0  0  0  0  0  0  0  0  0  0  0  0
    0.3888   -3.1502    0.1923 O   0  0  0  0  0  0  0  0  0  0  0  0
   -1.2927   -1.5830    0.1030 C   0  0  0  0  0  0  0  0  0  0  0  0
   -1.6090   -0.2638    0.0246 C   0  0  0  0  0  0  0  0  0  0  0  0
   -0.6765    0.6998   -0.0359 O   0  0  0  0  0  0  0  0  0  0  0  0
   -3.0337    0.1247    0.0057 C   0  0  0  0  0  0  0  0  0  0  0  0
   -3.4633    1.2500    0.7125 C   0  0  0  0  0  0  0  0  0  0  0  0
   -4.7953    1.6074    0.6900 C   0  0  0  0  0  0  0  0  0  0  0  0
   -5.7051    0.8539   -0.0305 C   0  0  0  0  0  0  0  0  0  0  0  0
   -5.2864   -0.2622   -0.7331 C   0  0  0  0  0  0  0  0  0  0  0  0
   -3.9564   -0.6281   -0.7238 C   0  0  0  0  0  0  0  0  0  0  0  0
    3.8463    2.1513   -0.1367 O   0  0  0  0  0  0  0  0  0  0  0  0
    3.3376    3.4844   -0.2158 C   0  0  0  0  0  0  0  0  0  0  0  0
    5.2029   -0.4903    1.0487 H   0  0  0  0  0  0  0  0  0  0  0  0
    5.0180   -1.4528   -0.4372 H   0  0  0  0  0  0  0  0  0  0  0  0
    5.3802    0.2867   -0.5429 H   0  0  0  0  0  0  0  0  0  0  0  0
    1.2566    2.4740   -0.1490 H   0  0  0  0  0  0  0  0  0  0  0  0
    2.9871   -2.9185   -0.7204 H   0  0  0  0  0  0  0  0  0  0  0  0
   -2.0737   -2.3276    0.1499 H   0  0  0  0  0  0  0  0  0  0  0  0
   -2.7543    1.8387    1.2756 H   0  0  0  0  0  0  0  0  0  0  0  0
   -5.1290    2.4772    1.2365 H   0  0  0  0  0  0  0  0  0  0  0  0
   -6.7470    1.1381   -0.0444 H   0  0  0  0  0  0  0  0  0  0  0  0
   -6.0018   -0.8460   -1.2932 H   0  0  0  0  0  0  0  0  0  0  0  0
   -3.6309   -1.4994   -1.2725 H   0  0  0  0  0  0  0  0  0  0  0  0
    2.7259    3.5872   -1.1121 H   0  0  0  0  0  0  0  0  0  0  0  0
    2.7302    3.6943    0.6646 H   0  0  0  0  0  0  0  0  0  0  0  0
    4.1686    4.1883   -0.2603 H   0  0  0  0  0  0  0  0  0  0  0  0
  1  2  1  0  0  0  0
  2  3  2  0  0  0  0
  3  4  1  0  0  0  0
  4  5  2  0  0  0  0
  5  6  1  0  0  0  0
  6  7  2  0  0  0  0
  2  7  1  0  0  0  0
  7  8  1  0  0  0  0
  6  9  1  0  0  0  0
  9 10  2  0  0  0  0
  9 11  1  0  0  0  0
 11 12  2  0  0  0  0
 12 13  1  0  0  0  0
  5 13  1  0  0  0  0
 12 14  1  0  0  0  0
 14 15  2  0  0  0  0
 15 16  1  0  0  0  0
 16 17  2  0  0  0  0
 17 18  1  0  0  0  0
 18 19  2  0  0  0  0
 14 19  1  0  0  0  0
  3 20  1  0  0  0  0
 20 21  1  0  0  0  0
  1 22  1  0  0  0  0
  1 23  1  0  0  0  0
  1 24  1  0  0  0  0
  4 25  1  0  0  0  0
  8 26  1  0  0  0  0
 11 27  1  0  0  0  0
 15 28  1  0  0  0  0
 16 29  1  0  0  0  0
 17 30  1  0  0  0  0
 18 31  1  0  0  0  0
 19 32  1  0  0  0  0
 21 33  1  0  0  0  0
 21 34  1  0  0  0  0
 21 35  1  0  0  0  0
M  END
$$$$
