C18H16O4
APtclcactv06211806493D 0   0.00000     0.00000
 
 38 40  0  0  0  0  0  0  0  0999 V2000
    4.7287    0.6577    0.1885 C   0  0  0  0  0  0  0  0  0  0  0  0
    3.2592    0.3254    0.1532 C   0  0  0  0  0  0  0  0  0  0  0  0
    2.3230    1.3420    0.1207 C   0  0  0  0  0  0  0  0  0  0  0  0
    0.9594    1.0231    0.0876 C   0  0  0  0  0  0  0  0  0  0  0  0
    0.5468   -0.3206    0.0873 C   0  0  0  0  0  0  0  0  0  0  0  0
    1.5006   -1.3261    0.1197 C   0  0  0  0  0  0  0  0  0  0  0  0
    2.8484   -1.0034    0.1476 C   0  0  0  0  0  0  0  0  0  0  0  0
    3.7762   -1.9939    0.1791 O   0  0  0  0  0  0  0  0  0  0  0  0
    4.2490   -2.4803   -1.0786 C   0  0  0  0  0  0  0  0  0  0  0  0
    1.0721   -2.7709    0.1204 C   0  0  0  0  0  0  0  0  0  0  0  0
   -0.7695   -0.6176    0.0561 O   0  0  0  0  0  0  0  0  0  0  0  0
   -1.7183    0.3314    0.0248 C   0  0  0  0  0  0  0  0  0  0  0  0
   -1.4249    1.6582    0.0216 C   0  0  0  0  0  0  0  0  0  0  0  0
   -0.0713    2.0740    0.0528 C   0  0  0  0  0  0  0  0  0  0  0  0
    0.2290    3.2568    0.0507 O   0  0  0  0  0  0  0  0  0  0  0  0
   -3.1356   -0.0825   -0.0081 C   0  0  0  0  0  0  0  0  0  0  0  0
   -3.5695   -1.1611    0.7656 C   0  0  0  0  0  0  0  0  0  0  0  0
   -4.8947   -1.5422    0.7300 C   0  0  0  0  0  0  0  0  0  0  0  0
   -5.7932   -0.8589   -0.0702 C   0  0  0  0  0  0  0  0  0  0  0  0
   -5.3700    0.2105   -0.8397 C   0  0  0  0  0  0  0  0  0  0  0  0
   -4.0491    0.6066   -0.8087 C   0  0  0  0  0  0  0  0  0  0  0  0
    2.7219    2.6391    0.1214 O   0  0  0  0  0  0  0  0  0  0  0  0
    5.0564    0.7461    1.2243 H   0  0  0  0  0  0  0  0  0  0  0  0
    5.2923   -0.1344   -0.3045 H   0  0  0  0  0  0  0  0  0  0  0  0
    4.9003    1.6017   -0.3287 H   0  0  0  0  0  0  0  0  0  0  0  0
    3.4123   -2.8808   -1.6510 H   0  0  0  0  0  0  0  0  0  0  0  0
    4.7110   -1.6638   -1.6335 H   0  0  0  0  0  0  0  0  0  0  0  0
    4.9842   -3.2672   -0.9107 H   0  0  0  0  0  0  0  0  0  0  0  0
    0.9950   -3.1275   -0.9068 H   0  0  0  0  0  0  0  0  0  0  0  0
    1.8086   -3.3681    0.6580 H   0  0  0  0  0  0  0  0  0  0  0  0
    0.1027   -2.8621    0.6104 H   0  0  0  0  0  0  0  0  0  0  0  0
   -2.2183    2.3905   -0.0048 H   0  0  0  0  0  0  0  0  0  0  0  0
   -2.8690   -1.6957    1.3900 H   0  0  0  0  0  0  0  0  0  0  0  0
   -5.2316   -2.3762    1.3278 H   0  0  0  0  0  0  0  0  0  0  0  0
   -6.8296   -1.1617   -0.0945 H   0  0  0  0  0  0  0  0  0  0  0  0
   -6.0766    0.7392   -1.4623 H   0  0  0  0  0  0  0  0  0  0  0  0
   -3.7201    1.4414   -1.4097 H   0  0  0  0  0  0  0  0  0  0  0  0
    2.8609    3.0083   -0.7615 H   0  0  0  0  0  0  0  0  0  0  0  0
  1  2  1  0  0  0  0
  2  3  2  0  0  0  0
  3  4  1  0  0  0  0
  4  5  2  0  0  0  0
  5  6  1  0  0  0  0
  6  7  2  0  0  0  0
  2  7  1  0  0  0  0
  7  8  1  0  0  0  0
  8  9  1  0  0  0  0
  6 10  1  0  0  0  0
  5 11  1  0  0  0  0
 11 12  1  0  0  0  0
 12 13  2  0  0  0  0
 13 14  1  0  0  0  0
  4 14  1  0  0  0  0
 14 15  2  0  0  0  0
 12 16  1  0  0  0  0
 16 17  2  0  0  0  0
 17 18  1  0  0  0  0
 18 19  2  0  0  0  0
 19 20  1  0  0  0  0
 20 21  2  0  0  0  0
 16 21  1  0  0  0  0
  3 22  1  0  0  0  0
  1 23  1  0  0  0  0
  1 24  1  0  0  0  0
  1 25  1  0  0  0  0
  9 26  1  0  0  0  0
  9 27  1  0  0  0  0
  9 28  1  0  0  0  0
 10 29  1  0  0  0  0
 10 30  1  0  0  0  0
 10 31  1  0  0  0  0
 13 32  1  0  0  0  0
 17 33  1  0  0  0  0
 18 34  1  0  0  0  0
 19 35  1  0  0  0  0
 20 36  1  0  0  0  0
 21 37  1  0  0  0  0
 22 38  1  0  0  0  0
M  END
$$$$
