C2H4O3
APtclcactv06281816393D 0   0.00000     0.00000
 
  9  8  0  0  0  0  0  0  0  0999 V2000
    0.6903   -0.7878   -0.0042 C   0  0  0  0  0  0  0  0  0  0  0  0
   -0.5972   -0.0045   -0.0029 C   0  0  0  0  0  0  0  0  0  0  0  0
   -0.5693    1.2143   -0.0198 O   0  0  0  0  0  0  0  0  0  0  0  0
   -1.6667   -0.5896    0.0149 O   0  5  0  0  0  0  0  0  0  0  0  0
    1.7973    0.1156   -0.0267 O   0  3  0  0  0  0  0  0  0  0  0  0
    1.7251    0.8422    0.6072 H   0  0  0  0  0  0  0  0  0  0  0  0
    2.6606   -0.3202   -0.0288 H   0  0  0  0  0  0  0  0  0  0  0  0
    0.7419   -1.4034    0.8938 H   0  0  0  0  0  0  0  0  0  0  0  0
    0.7255   -1.4276   -0.8859 H   0  0  0  0  0  0  0  0  0  0  0  0
  1  2  1  0  0  0  0
  2  3  2  0  0  0  0
  2  4  1  0  0  0  0
  1  5  1  0  0  0  0
  5  6  1  0  0  0  0
  5  7  1  0  0  0  0
  1  8  1  0  0  0  0
  1  9  1  0  0  0  0
M  CHG  2   4  -1   5   1
M  END
$$$$
