C7H6O5
APtclcactv06211802143D 0   0.00000     0.00000
 
 18 18  0  0  0  0  0  0  0  0999 V2000
   -0.3089    1.2356    0.0122 C   0  0  0  0  0  0  0  0  0  0  0  0
   -1.0405    0.0447    0.0064 C   0  0  0  0  0  0  0  0  0  0  0  0
   -0.3724   -1.1828    0.0127 C   0  0  0  0  0  0  0  0  0  0  0  0
    1.0092   -1.2162    0.0246 C   0  0  0  0  0  0  0  0  0  0  0  0
    1.7356   -0.0282    0.0308 C   0  0  0  0  0  0  0  0  0  0  0  0
    1.0726    1.1963    0.0241 C   0  0  0  0  0  0  0  0  0  0  0  0
    1.7851    2.3547    0.0302 O   0  0  0  0  0  0  0  0  0  0  0  0
    3.0939   -0.0639    0.0430 O   0  0  0  0  0  0  0  0  0  0  0  0
    1.6600   -2.4104    0.0308 O   0  0  0  0  0  0  0  0  0  0  0  0
   -2.5147    0.0835   -0.0058 C   0  0  0  0  0  0  0  0  0  0  0  0
   -3.0944    1.1513   -0.0109 O   0  0  0  0  0  0  0  0  0  0  0  0
   -3.2188   -1.0654   -0.0114 O   0  0  0  0  0  0  0  0  0  0  0  0
   -0.8225    2.1855    0.0028 H   0  0  0  0  0  0  0  0  0  0  0  0
   -0.9353   -2.1046    0.0086 H   0  0  0  0  0  0  0  0  0  0  0  0
    1.9994    2.6893   -0.8514 H   0  0  0  0  0  0  0  0  0  0  0  0
    3.4949   -0.0744   -0.8368 H   0  0  0  0  0  0  0  0  0  0  0  0
    1.8558   -2.7562   -0.8508 H   0  0  0  0  0  0  0  0  0  0  0  0
   -4.1828   -0.9895   -0.0194 H   0  0  0  0  0  0  0  0  0  0  0  0
  1  2  2  0  0  0  0
  2  3  1  0  0  0  0
  3  4  2  0  0  0  0
  4  5  1  0  0  0  0
  5  6  2  0  0  0  0
  1  6  1  0  0  0  0
  6  7  1  0  0  0  0
  5  8  1  0  0  0  0
  4  9  1  0  0  0  0
  2 10  1  0  0  0  0
 10 11  2  0  0  0  0
 10 12  1  0  0  0  0
  1 13  1  0  0  0  0
  3 14  1  0  0  0  0
  7 15  1  0  0  0  0
  8 16  1  0  0  0  0
  9 17  1  0  0  0  0
 12 18  1  0  0  0  0
M  END
$$$$
