C14H25N11OP4S
APtclcactv06211806493D 0   0.00000     0.00000
 
 56 62  0  0  0  0  0  0  0  0999 V2000
    1.4370    3.1781    1.8786 C   0  0  0  0  0  0  0  0  0  0  0  0
    0.0890    2.8198    1.2497 C   0  0  0  0  0  0  0  0  0  0  0  0
    1.1584    1.8220    1.3873 N   0  0  0  0  0  0  0  0  0  0  0  0
    1.9199    1.5468   -0.0881 P   0  0  0  0  0  0  0  0  0  0  0  0
    3.1883    0.5914    0.1289 N   0  0  0  0  0  0  0  0  0  0  0  0
    2.9375   -0.9510    0.4825 P   0  0  0  0  0  0  0  0  0  0  0  0
    1.8645   -1.5390   -0.5534 N   0  0  0  0  0  0  0  0  0  0  0  0
    0.5215   -0.7114   -0.8196 P   0  0  0  0  0  0  0  0  0  0  0  0
    0.9049    0.8185   -1.0920 N   0  0  0  0  0  0  0  0  0  0  0  0
   -0.2740   -1.3409   -2.1611 N   0  0  0  0  0  0  0  0  0  0  0  0
   -1.5272   -0.6373   -2.3946 N   0  0  0  0  0  0  0  0  0  0  0  0
   -2.5304   -0.7438   -1.0460 P   0  0  0  0  0  0  0  0  0  0  0  0
   -2.9543   -2.5300   -0.7256 S   0  0  0  0  0  0  0  0  0  0  0  0
   -1.7321   -0.1065    0.2930 N   0  0  0  0  0  0  0  0  0  0  0  0
   -0.4793   -0.8101    0.5286 N   0  0  0  0  0  0  0  0  0  0  0  0
   -3.8816    0.0895   -1.3141 O   0  0  0  0  0  0  0  0  0  0  0  0
   -4.6092    0.3382   -0.1936 C   0  0  0  0  0  0  0  0  0  0  0  0
   -4.3801    1.4922    0.5417 C   0  0  0  0  0  0  0  0  0  0  0  0
   -5.1210    1.7427    1.6804 C   0  0  0  0  0  0  0  0  0  0  0  0
   -6.0902    0.8445    2.0876 C   0  0  0  0  0  0  0  0  0  0  0  0
   -6.3200   -0.3065    1.3568 C   0  0  0  0  0  0  0  0  0  0  0  0
   -5.5861   -0.5586    0.2139 C   0  0  0  0  0  0  0  0  0  0  0  0
    4.3815   -1.8052    0.3489 N   0  0  0  0  0  0  0  0  0  0  0  0
    4.9199   -1.7190   -1.0152 C   0  0  0  0  0  0  0  0  0  0  0  0
    5.5133   -0.8949    0.1292 C   0  0  0  0  0  0  0  0  0  0  0  0
    2.3427   -1.0835    2.0513 N   0  0  0  0  0  0  0  0  0  0  0  0
    2.2616   -2.4903    2.4665 C   0  0  0  0  0  0  0  0  0  0  0  0
    3.3802   -1.5748    2.9679 C   0  0  0  0  0  0  0  0  0  0  0  0
    2.4199    3.0113   -0.7498 N   0  0  0  0  0  0  0  0  0  0  0  0
    3.0896    2.8044   -2.0408 C   0  0  0  0  0  0  0  0  0  0  0  0
    1.6547    3.3296   -1.9627 C   0  0  0  0  0  0  0  0  0  0  0  0
    2.1185    3.7972    1.2952 H   0  0  0  0  0  0  0  0  0  0  0  0
    1.4674    3.3285    2.9578 H   0  0  0  0  0  0  0  0  0  0  0  0
   -0.7714    2.7334    1.9133 H   0  0  0  0  0  0  0  0  0  0  0  0
   -0.1203    3.2021    0.2507 H   0  0  0  0  0  0  0  0  0  0  0  0
    0.3161   -1.3097   -2.9790 H   0  0  0  0  0  0  0  0  0  0  0  0
   -1.3599    0.3256   -2.6457 H   0  0  0  0  0  0  0  0  0  0  0  0
   -1.5753    0.8841    0.1828 H   0  0  0  0  0  0  0  0  0  0  0  0
   -0.6472   -1.7716    0.7847 H   0  0  0  0  0  0  0  0  0  0  0  0
   -3.6230    2.1939    0.2243 H   0  0  0  0  0  0  0  0  0  0  0  0
   -4.9428    2.6407    2.2533 H   0  0  0  0  0  0  0  0  0  0  0  0
   -6.6683    1.0421    2.9781 H   0  0  0  0  0  0  0  0  0  0  0  0
   -7.0771   -1.0069    1.6772 H   0  0  0  0  0  0  0  0  0  0  0  0
   -5.7660   -1.4578   -0.3566 H   0  0  0  0  0  0  0  0  0  0  0  0
    5.5010   -2.5643   -1.3837 H   0  0  0  0  0  0  0  0  0  0  0  0
    4.3246   -1.1927   -1.7614 H   0  0  0  0  0  0  0  0  0  0  0  0
    5.3101    0.1760    0.1393 H   0  0  0  0  0  0  0  0  0  0  0  0
    6.4866   -1.1956    0.5170 H   0  0  0  0  0  0  0  0  0  0  0  0
    1.4780   -2.7646    3.1727 H   0  0  0  0  0  0  0  0  0  0  0  0
    2.5224   -3.2506    1.7302 H   0  0  0  0  0  0  0  0  0  0  0  0
    4.3802   -1.7300    2.5631 H   0  0  0  0  0  0  0  0  0  0  0  0
    3.3358   -1.2440    4.0056 H   0  0  0  0  0  0  0  0  0  0  0  0
    3.8713    3.5094   -2.3236 H   0  0  0  0  0  0  0  0  0  0  0  0
    3.2345    1.7775   -2.3763 H   0  0  0  0  0  0  0  0  0  0  0  0
    0.8513    2.6497   -2.2466 H   0  0  0  0  0  0  0  0  0  0  0  0
    1.4881    4.3817   -2.1939 H   0  0  0  0  0  0  0  0  0  0  0  0
  1  2  1  0  0  0  0
  2  3  1  0  0  0  0
  1  3  1  0  0  0  0
  3  4  1  0  0  0  0
  4  5  2  0  0  0  0
  5  6  1  0  0  0  0
  6  7  2  0  0  0  0
  7  8  1  0  0  0  0
  8  9  2  0  0  0  0
  4  9  1  0  0  0  0
  8 10  1  0  0  0  0
 10 11  1  0  0  0  0
 11 12  1  0  0  0  0
 12 13  2  0  0  0  0
 12 14  1  0  0  0  0
 14 15  1  0  0  0  0
  8 15  1  0  0  0  0
 12 16  1  0  0  0  0
 16 17  1  0  0  0  0
 17 18  2  0  0  0  0
 18 19  1  0  0  0  0
 19 20  2  0  0  0  0
 20 21  1  0  0  0  0
 21 22  2  0  0  0  0
 17 22  1  0  0  0  0
  6 23  1  0  0  0  0
 23 24  1  0  0  0  0
 24 25  1  0  0  0  0
 23 25  1  0  0  0  0
  6 26  1  0  0  0  0
 26 27  1  0  0  0  0
 27 28  1  0  0  0  0
 26 28  1  0  0  0  0
  4 29  1  0  0  0  0
 29 30  1  0  0  0  0
 30 31  1  0  0  0  0
 29 31  1  0  0  0  0
  1 32  1  0  0  0  0
  1 33  1  0  0  0  0
  2 34  1  0  0  0  0
  2 35  1  0  0  0  0
 10 36  1  0  0  0  0
 11 37  1  0  0  0  0
 14 38  1  0  0  0  0
 15 39  1  0  0  0  0
 18 40  1  0  0  0  0
 19 41  1  0  0  0  0
 20 42  1  0  0  0  0
 21 43  1  0  0  0  0
 22 44  1  0  0  0  0
 24 45  1  0  0  0  0
 24 46  1  0  0  0  0
 25 47  1  0  0  0  0
 25 48  1  0  0  0  0
 27 49  1  0  0  0  0
 27 50  1  0  0  0  0
 28 51  1  0  0  0  0
 28 52  1  0  0  0  0
 30 53  1  0  0  0  0
 30 54  1  0  0  0  0
 31 55  1  0  0  0  0
 31 56  1  0  0  0  0
M  END
$$$$
