C7H6O3
APtclcactv06281816393D 0   0.00000     0.00000
 
 16 16  0  0  0  0  0  0  0  0999 V2000
    0.0025   -1.2150   -0.0065 C   0  0  0  0  0  0  0  0  0  0  0  0
   -1.3737   -1.2169   -0.0084 C   0  0  0  0  0  0  0  0  0  0  0  0
   -2.0727   -0.0148   -0.0054 C   0  0  0  0  0  0  0  0  0  0  0  0
   -1.3855    1.1941   -0.0003 C   0  0  0  0  0  0  0  0  0  0  0  0
   -0.0093    1.2056    0.0017 C   0  0  0  0  0  0  0  0  0  0  0  0
    0.6983   -0.0013   -0.0009 C   0  0  0  0  0  0  0  0  0  0  0  0
    2.1707    0.0059    0.0017 C   0  0  0  0  0  0  0  0  0  0  0  0
    2.7772    1.0683    0.0061 O   0  0  0  0  0  0  0  0  0  0  0  0
    2.7875   -1.0506   -0.0006 O   0  5  0  0  0  0  0  0  0  0  0  0
   -3.4294   -0.0214   -0.0078 O   0  3  0  0  0  0  0  0  0  0  0  0
   -3.8242   -0.0264    0.8749 H   0  0  0  0  0  0  0  0  0  0  0  0
   -3.8248    0.6219   -0.6119 H   0  0  0  0  0  0  0  0  0  0  0  0
    0.5446   -2.1491   -0.0047 H   0  0  0  0  0  0  0  0  0  0  0  0
   -1.9117   -2.1534   -0.0127 H   0  0  0  0  0  0  0  0  0  0  0  0
   -1.9325    2.1253    0.0016 H   0  0  0  0  0  0  0  0  0  0  0  0
    0.5237    2.1450    0.0049 H   0  0  0  0  0  0  0  0  0  0  0  0
  1  2  2  0  0  0  0
  2  3  1  0  0  0  0
  3  4  2  0  0  0  0
  4  5  1  0  0  0  0
  5  6  2  0  0  0  0
  1  6  1  0  0  0  0
  6  7  1  0  0  0  0
  7  8  2  0  0  0  0
  7  9  1  0  0  0  0
  3 10  1  0  0  0  0
 10 11  1  0  0  0  0
 10 12  1  0  0  0  0
  1 13  1  0  0  0  0
  2 14  1  0  0  0  0
  4 15  1  0  0  0  0
  5 16  1  0  0  0  0
M  CHG  2   9  -1  10   1
M  END
$$$$
