C19H16ClNO4
APtclcactv06211804353D 0   0.00000     0.00000
 
 41 43  0  0  0  0  0  0  0  0999 V2000
    0.0476    2.8730    0.1190 C   0  0  0  0  0  0  0  0  0  0  0  0
    0.6595    1.4960    0.0990 C   0  0  0  0  0  0  0  0  0  0  0  0
    1.7957    1.1677   -0.5318 C   0  0  0  0  0  0  0  0  0  0  0  0
    2.0245   -0.2619   -0.2955 C   0  0  0  0  0  0  0  0  0  0  0  0
    0.9531   -0.7034    0.4996 C   0  0  0  0  0  0  0  0  0  0  0  0
    0.1389    0.3922    0.7296 N   0  0  0  0  0  0  0  0  0  0  0  0
   -0.9970    0.3763    1.4548 C   0  0  0  0  0  0  0  0  0  0  0  0
   -0.9491    0.5072    2.6620 O   0  0  0  0  0  0  0  0  0  0  0  0
   -2.2998    0.2000    0.7824 C   0  0  0  0  0  0  0  0  0  0  0  0
   -3.4851    0.2886    1.5159 C   0  0  0  0  0  0  0  0  0  0  0  0
   -4.6985    0.1235    0.8823 C   0  0  0  0  0  0  0  0  0  0  0  0
   -4.7435   -0.1297   -0.4789 C   0  0  0  0  0  0  0  0  0  0  0  0
   -3.5714   -0.2191   -1.2118 C   0  0  0  0  0  0  0  0  0  0  0  0
   -2.3520   -0.0502   -0.5907 C   0  0  0  0  0  0  0  0  0  0  0  0
   -6.2751   -0.3364   -1.2695 Cl  0  0  0  0  0  0  0  0  0  0  0  0
    0.8934   -2.0348    0.8922 C   0  0  0  0  0  0  0  0  0  0  0  0
    1.8810   -2.9130    0.5023 C   0  0  0  0  0  0  0  0  0  0  0  0
    2.9437   -2.4793   -0.2851 C   0  0  0  0  0  0  0  0  0  0  0  0
    3.0195   -1.1594   -0.6859 C   0  0  0  0  0  0  0  0  0  0  0  0
    3.9106   -3.3581   -0.6617 O   0  0  0  0  0  0  0  0  0  0  0  0
    3.7709   -4.7077   -0.2132 C   0  0  0  0  0  0  0  0  0  0  0  0
    2.6733    2.0936   -1.3340 C   0  0  0  0  0  0  0  0  0  0  0  0
    3.7070    2.7145   -0.4301 C   0  0  0  0  0  0  0  0  0  0  0  0
    3.7288    2.4339    0.7449 O   0  0  0  0  0  0  0  0  0  0  0  0
    4.6035    3.5792   -0.9304 O   0  0  0  0  0  0  0  0  0  0  0  0
   -0.6357    2.9792   -0.7236 H   0  0  0  0  0  0  0  0  0  0  0  0
   -0.5000    3.0138    1.0508 H   0  0  0  0  0  0  0  0  0  0  0  0
    0.8359    3.6221    0.0441 H   0  0  0  0  0  0  0  0  0  0  0  0
   -3.4513    0.4856    2.5773 H   0  0  0  0  0  0  0  0  0  0  0  0
   -5.6157    0.1913    1.4484 H   0  0  0  0  0  0  0  0  0  0  0  0
   -3.6129   -0.4175   -2.2726 H   0  0  0  0  0  0  0  0  0  0  0  0
   -1.4389   -0.1201   -1.1631 H   0  0  0  0  0  0  0  0  0  0  0  0
    0.0731   -2.3814    1.5032 H   0  0  0  0  0  0  0  0  0  0  0  0
    1.8303   -3.9468    0.8108 H   0  0  0  0  0  0  0  0  0  0  0  0
    3.8444   -0.8237   -1.2968 H   0  0  0  0  0  0  0  0  0  0  0  0
    3.7636   -4.7295    0.8766 H   0  0  0  0  0  0  0  0  0  0  0  0
    2.8360   -5.1213   -0.5911 H   0  0  0  0  0  0  0  0  0  0  0  0
    4.6067   -5.3017   -0.5829 H   0  0  0  0  0  0  0  0  0  0  0  0
    3.1718    1.5295   -2.1223 H   0  0  0  0  0  0  0  0  0  0  0  0
    2.0620    2.8783   -1.7796 H   0  0  0  0  0  0  0  0  0  0  0  0
    5.2469    3.9514   -0.3118 H   0  0  0  0  0  0  0  0  0  0  0  0
  1  2  1  0  0  0  0
  2  3  2  0  0  0  0
  3  4  1  0  0  0  0
  4  5  2  0  0  0  0
  5  6  1  0  0  0  0
  2  6  1  0  0  0  0
  6  7  1  0  0  0  0
  7  8  2  0  0  0  0
  7  9  1  0  0  0  0
  9 10  2  0  0  0  0
 10 11  1  0  0  0  0
 11 12  2  0  0  0  0
 12 13  1  0  0  0  0
 13 14  2  0  0  0  0
  9 14  1  0  0  0  0
 12 15  1  0  0  0  0
  5 16  1  0  0  0  0
 16 17  2  0  0  0  0
 17 18  1  0  0  0  0
 18 19  2  0  0  0  0
  4 19  1  0  0  0  0
 18 20  1  0  0  0  0
 20 21  1  0  0  0  0
  3 22  1  0  0  0  0
 22 23  1  0  0  0  0
 23 24  2  0  0  0  0
 23 25  1  0  0  0  0
  1 26  1  0  0  0  0
  1 27  1  0  0  0  0
  1 28  1  0  0  0  0
 10 29  1  0  0  0  0
 11 30  1  0  0  0  0
 13 31  1  0  0  0  0
 14 32  1  0  0  0  0
 16 33  1  0  0  0  0
 17 34  1  0  0  0  0
 19 35  1  0  0  0  0
 21 36  1  0  0  0  0
 21 37  1  0  0  0  0
 21 38  1  0  0  0  0
 22 39  1  0  0  0  0
 22 40  1  0  0  0  0
 25 41  1  0  0  0  0
M  END
$$$$
