C5H16N2
APtclcactv06281816393D 0   0.00000     0.00000
 
 23 22  0  0  0  0  0  0  0  0999 V2000
   -0.0000   -0.5142   -0.0000 C   0  0  0  0  0  0  0  0  0  0  0  0
   -1.2492    0.3691   -0.0000 C   0  0  0  0  0  0  0  0  0  0  0  0
   -2.4985   -0.5142    0.0000 C   0  0  0  0  0  0  0  0  0  0  0  0
   -3.6979    0.3339   -0.0000 N   0  3  0  0  0  0  0  0  0  0  0  0
   -3.6979    0.9165    0.8238 H   0  0  0  0  0  0  0  0  0  0  0  0
   -3.6979    0.9165   -0.8238 H   0  0  0  0  0  0  0  0  0  0  0  0
   -4.5218   -0.2486   -0.0000 H   0  0  0  0  0  0  0  0  0  0  0  0
    1.2492    0.3691    0.0000 C   0  0  0  0  0  0  0  0  0  0  0  0
    2.4985   -0.5142   -0.0000 C   0  0  0  0  0  0  0  0  0  0  0  0
    3.6979    0.3339    0.0000 N   0  3  0  0  0  0  0  0  0  0  0  0
    4.5218   -0.2486   -0.0000 H   0  0  0  0  0  0  0  0  0  0  0  0
    3.6979    0.9165   -0.8238 H   0  0  0  0  0  0  0  0  0  0  0  0
    3.6979    0.9165    0.8238 H   0  0  0  0  0  0  0  0  0  0  0  0
   -0.0000   -1.1435    0.8900 H   0  0  0  0  0  0  0  0  0  0  0  0
    0.0000   -1.1435   -0.8900 H   0  0  0  0  0  0  0  0  0  0  0  0
   -1.2492    0.9985    0.8900 H   0  0  0  0  0  0  0  0  0  0  0  0
   -1.2492    0.9985   -0.8900 H   0  0  0  0  0  0  0  0  0  0  0  0
   -2.4985   -1.1435   -0.8900 H   0  0  0  0  0  0  0  0  0  0  0  0
   -2.4985   -1.1435    0.8900 H   0  0  0  0  0  0  0  0  0  0  0  0
    1.2492    0.9985   -0.8900 H   0  0  0  0  0  0  0  0  0  0  0  0
    1.2492    0.9985    0.8900 H   0  0  0  0  0  0  0  0  0  0  0  0
    2.4985   -1.1435    0.8900 H   0  0  0  0  0  0  0  0  0  0  0  0
    2.4985   -1.1435   -0.8900 H   0  0  0  0  0  0  0  0  0  0  0  0
  1  2  1  0  0  0  0
  2  3  1  0  0  0  0
  3  4  1  0  0  0  0
  4  5  1  0  0  0  0
  4  6  1  0  0  0  0
  4  7  1  0  0  0  0
  1  8  1  0  0  0  0
  8  9  1  0  0  0  0
  9 10  1  0  0  0  0
 10 11  1  0  0  0  0
 10 12  1  0  0  0  0
 10 13  1  0  0  0  0
  1 14  1  0  0  0  0
  1 15  1  0  0  0  0
  2 16  1  0  0  0  0
  2 17  1  0  0  0  0
  3 18  1  0  0  0  0
  3 19  1  0  0  0  0
  8 20  1  0  0  0  0
  8 21  1  0  0  0  0
  9 22  1  0  0  0  0
  9 23  1  0  0  0  0
M  CHG  2   4   1  10   1
M  END
$$$$
