C9H12O3
APtclcactv06211806213D 0   0.00000     0.00000
 
 24 24  0  0  0  0  0  0  0  0999 V2000
    1.1236    2.5293    0.0940 C   0  0  0  0  0  0  0  0  0  0  0  0
    0.5865    1.1244   -0.0008 C   0  0  0  0  0  0  0  0  0  0  0  0
    1.4552    0.0828   -0.0779 C   0  0  0  0  0  0  0  0  0  0  0  0
    0.9037   -1.2909   -0.1866 C   0  0  0  0  0  0  0  0  0  0  0  0
    1.5426   -2.2549    0.1631 O   0  0  0  0  0  0  0  0  0  0  0  0
   -0.4940   -1.4343   -0.7539 C   0  0  0  0  0  0  0  0  0  0  0  0
   -1.4108   -0.4620   -0.0035 C   0  0  0  0  0  0  0  0  0  0  0  0
   -0.8090    0.9156   -0.0021 C   0  0  0  0  0  0  0  0  0  0  0  0
   -1.5468    1.8791   -0.0108 O   0  0  0  0  0  0  0  0  0  0  0  0
   -2.7782   -0.4217   -0.6885 C   0  0  0  0  0  0  0  0  0  0  0  0
   -1.5818   -0.9371    1.4408 C   0  0  0  0  0  0  0  0  0  0  0  0
    2.7911    0.2926   -0.0564 O   0  0  0  0  0  0  0  0  0  0  0  0
    2.2133    2.5030    0.0864 H   0  0  0  0  0  0  0  0  0  0  0  0
    0.7683    3.1122   -0.7557 H   0  0  0  0  0  0  0  0  0  0  0  0
    0.7777    2.9887    1.0200 H   0  0  0  0  0  0  0  0  0  0  0  0
   -0.4876   -1.1894   -1.8160 H   0  0  0  0  0  0  0  0  0  0  0  0
   -0.8461   -2.4561   -0.6128 H   0  0  0  0  0  0  0  0  0  0  0  0
   -3.2190   -1.4185   -0.6788 H   0  0  0  0  0  0  0  0  0  0  0  0
   -3.4313    0.2695   -0.1557 H   0  0  0  0  0  0  0  0  0  0  0  0
   -2.6586   -0.0872   -1.7190 H   0  0  0  0  0  0  0  0  0  0  0  0
   -0.6083   -0.9706    1.9300 H   0  0  0  0  0  0  0  0  0  0  0  0
   -2.2337   -0.2464    1.9757 H   0  0  0  0  0  0  0  0  0  0  0  0
   -2.0253   -1.9328    1.4456 H   0  0  0  0  0  0  0  0  0  0  0  0
    3.3173   -0.5164   -0.1168 H   0  0  0  0  0  0  0  0  0  0  0  0
  1  2  1  0  0  0  0
  2  3  2  0  0  0  0
  3  4  1  0  0  0  0
  4  5  2  0  0  0  0
  4  6  1  0  0  0  0
  6  7  1  0  0  0  0
  7  8  1  0  0  0  0
  2  8  1  0  0  0  0
  8  9  2  0  0  0  0
  7 10  1  0  0  0  0
  7 11  1  0  0  0  0
  3 12  1  0  0  0  0
  1 13  1  0  0  0  0
  1 14  1  0  0  0  0
  1 15  1  0  0  0  0
  6 16  1  0  0  0  0
  6 17  1  0  0  0  0
 10 18  1  0  0  0  0
 10 19  1  0  0  0  0
 10 20  1  0  0  0  0
 11 21  1  0  0  0  0
 11 22  1  0  0  0  0
 11 23  1  0  0  0  0
 12 24  1  0  0  0  0
M  END
$$$$
