C22H22O9
APtclcactv06281812133D 0   0.00000     0.00000
 
 53 56  0  0  0  0  0  0  0  0999 V2000
   -8.9341    2.1442   -0.2832 C   0  0  0  0  0  0  0  0  0  0  0  0
   -8.6651    0.7443   -0.1833 O   0  0  0  0  0  0  0  0  0  0  0  0
   -7.3599    0.3656   -0.1788 C   0  0  0  0  0  0  0  0  0  0  0  0
   -7.0292   -0.9792   -0.0841 C   0  0  0  0  0  0  0  0  0  0  0  0
   -5.7054   -1.3666   -0.0788 C   0  0  0  0  0  0  0  0  0  0  0  0
   -4.6993   -0.4062   -0.1690 C   0  0  0  0  0  0  0  0  0  0  0  0
   -5.0346    0.9433   -0.2644 C   0  0  0  0  0  0  0  0  0  0  0  0
   -6.3603    1.3240   -0.2745 C   0  0  0  0  0  0  0  0  0  0  0  0
   -3.2747   -0.8195   -0.1631 C   0  0  0  0  0  0  0  0  0  0  0  0
   -2.7591   -1.5649   -1.1749 C   0  0  0  0  0  0  0  0  0  0  0  0
   -1.4908   -1.9743   -1.2046 O   0  0  0  0  0  0  0  0  0  0  0  0
   -0.5584   -1.4240   -0.4046 C   0  0  0  0  0  0  0  0  0  0  0  0
   -0.9360   -0.6428    0.7018 C   0  0  0  0  0  0  0  0  0  0  0  0
   -2.3752   -0.4275    0.9390 C   0  0  0  0  0  0  0  0  0  0  0  0
   -2.7972    0.0373    1.9839 O   0  0  0  0  0  0  0  0  0  0  0  0
    0.0296   -0.0833    1.5381 C   0  0  0  0  0  0  0  0  0  0  0  0
    1.3541   -0.2902    1.2756 C   0  0  0  0  0  0  0  0  0  0  0  0
    1.7409   -1.0565    0.1779 C   0  0  0  0  0  0  0  0  0  0  0  0
    0.7935   -1.6211   -0.6583 C   0  0  0  0  0  0  0  0  0  0  0  0
    3.0606   -1.2508   -0.0741 O   0  0  0  0  0  0  0  0  0  0  0  0
    3.9893   -0.6417    0.8251 C   0  0  0  0  0  0  0  0  0  0  0  0
    5.4122   -1.0708    0.4574 C   0  0  0  0  0  0  0  0  0  0  0  0
    5.7381   -0.5741   -0.9545 C   0  0  0  0  0  0  0  0  0  0  0  0
    5.5585    0.9464   -1.0031 C   0  0  0  0  0  0  0  0  0  0  0  0
    4.1300    1.2975   -0.5790 C   0  0  0  0  0  0  0  0  0  0  0  0
    3.8823    0.7801    0.7298 O   0  0  0  0  0  0  0  0  0  0  0  0
    3.9605    2.8180   -0.5672 C   0  0  0  0  0  0  0  0  0  0  0  0
    2.5979    3.1432   -0.2851 O   0  0  0  0  0  0  0  0  0  0  0  0
    6.4874    1.5657   -0.1111 O   0  0  0  0  0  0  0  0  0  0  0  0
    7.0898   -0.9064   -1.2780 O   0  0  0  0  0  0  0  0  0  0  0  0
    6.3371   -0.5048    1.3881 O   0  0  0  0  0  0  0  0  0  0  0  0
   -8.5142    2.5295   -1.2123 H   0  0  0  0  0  0  0  0  0  0  0  0
  -10.0117    2.3086   -0.2759 H   0  0  0  0  0  0  0  0  0  0  0  0
   -8.4818    2.6624    0.5624 H   0  0  0  0  0  0  0  0  0  0  0  0
   -7.8092   -1.7228   -0.0142 H   0  0  0  0  0  0  0  0  0  0  0  0
   -5.4488   -2.4131   -0.0044 H   0  0  0  0  0  0  0  0  0  0  0  0
   -4.2573    1.6898   -0.3345 H   0  0  0  0  0  0  0  0  0  0  0  0
   -6.6208    2.3695   -0.3484 H   0  0  0  0  0  0  0  0  0  0  0  0
   -3.4074   -1.8392   -1.9939 H   0  0  0  0  0  0  0  0  0  0  0  0
   -0.2684    0.5111    2.3891 H   0  0  0  0  0  0  0  0  0  0  0  0
    2.1043    0.1421    1.9211 H   0  0  0  0  0  0  0  0  0  0  0  0
    1.1043   -2.2139   -1.5059 H   0  0  0  0  0  0  0  0  0  0  0  0
    3.7671   -0.9556    1.8449 H   0  0  0  0  0  0  0  0  0  0  0  0
    5.4838   -2.1580    0.4866 H   0  0  0  0  0  0  0  0  0  0  0  0
    5.0643   -1.0439   -1.6709 H   0  0  0  0  0  0  0  0  0  0  0  0
    5.7348    1.3017   -2.0184 H   0  0  0  0  0  0  0  0  0  0  0  0
    3.4234    0.8583   -1.2833 H   0  0  0  0  0  0  0  0  0  0  0  0
    4.6033    3.2493    0.2003 H   0  0  0  0  0  0  0  0  0  0  0  0
    4.2363    3.2220   -1.5412 H   0  0  0  0  0  0  0  0  0  0  0  0
    2.4168    4.0928   -0.2618 H   0  0  0  0  0  0  0  0  0  0  0  0
    7.4139    1.3815   -0.3179 H   0  0  0  0  0  0  0  0  0  0  0  0
    7.2768   -1.8549   -1.2597 H   0  0  0  0  0  0  0  0  0  0  0  0
    6.1866   -0.7733    2.3048 H   0  0  0  0  0  0  0  0  0  0  0  0
  1  2  1  0  0  0  0
  2  3  1  0  0  0  0
  3  4  2  0  0  0  0
  4  5  1  0  0  0  0
  5  6  2  0  0  0  0
  6  7  1  0  0  0  0
  7  8  2  0  0  0  0
  3  8  1  0  0  0  0
  6  9  1  0  0  0  0
  9 10  2  0  0  0  0
 10 11  1  0  0  0  0
 11 12  1  0  0  0  0
 12 13  2  0  0  0  0
 13 14  1  0  0  0  0
  9 14  1  0  0  0  0
 14 15  2  0  0  0  0
 13 16  1  0  0  0  0
 16 17  2  0  0  0  0
 17 18  1  0  0  0  0
 18 19  2  0  0  0  0
 12 19  1  0  0  0  0
 18 20  1  0  0  0  0
 20 21  1  0  0  0  0
 21 22  1  0  0  0  0
 22 23  1  0  0  0  0
 23 24  1  0  0  0  0
 24 25  1  0  0  0  0
 25 26  1  0  0  0  0
 21 26  1  0  0  0  0
 25 27  1  0  0  0  0
 27 28  1  0  0  0  0
 24 29  1  0  0  0  0
 23 30  1  0  0  0  0
 22 31  1  0  0  0  0
  1 32  1  0  0  0  0
  1 33  1  0  0  0  0
  1 34  1  0  0  0  0
  4 35  1  0  0  0  0
  5 36  1  0  0  0  0
  7 37  1  0  0  0  0
  8 38  1  0  0  0  0
 10 39  1  0  0  0  0
 16 40  1  0  0  0  0
 17 41  1  0  0  0  0
 19 42  1  0  0  0  0
 21 43  1  0  0  0  0
 22 44  1  0  0  0  0
 23 45  1  0  0  0  0
 24 46  1  0  0  0  0
 25 47  1  0  0  0  0
 27 48  1  0  0  0  0
 27 49  1  0  0  0  0
 28 50  1  0  0  0  0
 29 51  1  0  0  0  0
 30 52  1  0  0  0  0
 31 53  1  0  0  0  0
M  END
$$$$
