C16H18O3
APtclcactv06211806493D 0   0.00000     0.00000
 
 37 39  0  0  0  0  0  0  0  0999 V2000
    3.9641   -1.9463    0.1591 C   0  0  0  0  0  0  0  0  0  0  0  0
    2.8292   -0.9568    0.0963 C   0  0  0  0  0  0  0  0  0  0  0  0
    3.1312    0.4046    0.1273 C   0  0  0  0  0  0  0  0  0  0  0  0
    2.1190    1.3427    0.0716 C   0  0  0  0  0  0  0  0  0  0  0  0
    0.8190    0.8470   -0.0150 C   0  0  0  0  0  0  0  0  0  0  0  0
   -0.1267    1.8684   -0.0669 C   0  0  0  0  0  0  0  0  0  0  0  0
   -1.4350    1.5156   -0.1528 C   0  0  0  0  0  0  0  0  0  0  0  0
   -1.7954    0.1545   -0.1863 C   0  0  0  0  0  0  0  0  0  0  0  0
   -0.8685   -0.8524   -0.1351 C   0  0  0  0  0  0  0  0  0  0  0  0
    0.4923   -0.5142   -0.0469 C   0  0  0  0  0  0  0  0  0  0  0  0
    1.5521   -1.4348    0.0060 C   0  0  0  0  0  0  0  0  0  0  0  0
   -1.3000   -2.2958   -0.1729 C   0  0  0  0  0  0  0  0  0  0  0  0
   -0.6833   -2.9806   -1.3942 C   0  0  0  0  0  0  0  0  0  0  0  0
   -0.8293   -3.0023    1.0999 C   0  0  0  0  0  0  0  0  0  0  0  0
   -3.1122   -0.1719   -0.2723 O   0  0  0  0  0  0  0  0  0  0  0  0
   -3.8441   -0.2440    0.9529 C   0  0  0  0  0  0  0  0  0  0  0  0
   -2.3964    2.4755   -0.2060 O   0  0  0  0  0  0  0  0  0  0  0  0
    0.6962    3.1278   -0.0040 C   0  0  0  0  0  0  0  0  0  0  0  0
    2.0691    2.6978    0.0800 O   0  0  0  0  0  0  0  0  0  0  0  0
    4.1730   -2.1939    1.1999 H   0  0  0  0  0  0  0  0  0  0  0  0
    3.6872   -2.8516   -0.3812 H   0  0  0  0  0  0  0  0  0  0  0  0
    4.8529   -1.5092   -0.2959 H   0  0  0  0  0  0  0  0  0  0  0  0
    4.1600    0.7262    0.1956 H   0  0  0  0  0  0  0  0  0  0  0  0
    1.3614   -2.4975   -0.0200 H   0  0  0  0  0  0  0  0  0  0  0  0
   -2.3869   -2.3485   -0.2370 H   0  0  0  0  0  0  0  0  0  0  0  0
    0.4005   -3.0145   -1.2830 H   0  0  0  0  0  0  0  0  0  0  0  0
   -1.0720   -3.9956   -1.4765 H   0  0  0  0  0  0  0  0  0  0  0  0
   -0.9389   -2.4196   -2.2931 H   0  0  0  0  0  0  0  0  0  0  0  0
   -1.1844   -2.4539    1.9724 H   0  0  0  0  0  0  0  0  0  0  0  0
   -1.2282   -4.0165    1.1212 H   0  0  0  0  0  0  0  0  0  0  0  0
    0.2599   -3.0400    1.1129 H   0  0  0  0  0  0  0  0  0  0  0  0
   -3.3448   -0.9329    1.6344 H   0  0  0  0  0  0  0  0  0  0  0  0
   -3.8911    0.7459    1.4069 H   0  0  0  0  0  0  0  0  0  0  0  0
   -4.8545   -0.6000    0.7522 H   0  0  0  0  0  0  0  0  0  0  0  0
   -2.6186    2.7604   -1.1030 H   0  0  0  0  0  0  0  0  0  0  0  0
    0.5430    3.7223   -0.9047 H   0  0  0  0  0  0  0  0  0  0  0  0
    0.4292    3.7075    0.8796 H   0  0  0  0  0  0  0  0  0  0  0  0
  1  2  1  0  0  0  0
  2  3  2  0  0  0  0
  3  4  1  0  0  0  0
  4  5  2  0  0  0  0
  5  6  1  0  0  0  0
  6  7  2  0  0  0  0
  7  8  1  0  0  0  0
  8  9  2  0  0  0  0
  9 10  1  0  0  0  0
  5 10  1  0  0  0  0
 10 11  2  0  0  0  0
  2 11  1  0  0  0  0
  9 12  1  0  0  0  0
 12 13  1  0  0  0  0
 12 14  1  0  0  0  0
  8 15  1  0  0  0  0
 15 16  1  0  0  0  0
  7 17  1  0  0  0  0
  6 18  1  0  0  0  0
 18 19  1  0  0  0  0
  4 19  1  0  0  0  0
  1 20  1  0  0  0  0
  1 21  1  0  0  0  0
  1 22  1  0  0  0  0
  3 23  1  0  0  0  0
 11 24  1  0  0  0  0
 12 25  1  0  0  0  0
 13 26  1  0  0  0  0
 13 27  1  0  0  0  0
 13 28  1  0  0  0  0
 14 29  1  0  0  0  0
 14 30  1  0  0  0  0
 14 31  1  0  0  0  0
 16 32  1  0  0  0  0
 16 33  1  0  0  0  0
 16 34  1  0  0  0  0
 17 35  1  0  0  0  0
 18 36  1  0  0  0  0
 18 37  1  0  0  0  0
M  END
$$$$
