C14H13NO2
APtclcactv06211806493D 0   0.00000     0.00000
 
 30 32  0  0  0  0  0  0  0  0999 V2000
    3.1238    2.8580   -0.0126 C   0  0  0  0  0  0  0  0  0  0  0  0
    1.7295    2.5477   -0.0532 O   0  0  0  0  0  0  0  0  0  0  0  0
    1.3856    1.2363    0.0512 C   0  0  0  0  0  0  0  0  0  0  0  0
    0.0414    0.8621    0.0190 C   0  0  0  0  0  0  0  0  0  0  0  0
   -0.2954   -0.4936    0.1280 C   0  0  0  0  0  0  0  0  0  0  0  0
    0.7057   -1.4536    0.2675 C   0  0  0  0  0  0  0  0  0  0  0  0
    2.0281   -1.0671    0.2982 C   0  0  0  0  0  0  0  0  0  0  0  0
    2.3676    0.2720    0.1837 C   0  0  0  0  0  0  0  0  0  0  0  0
    3.1100   -2.1052    0.4496 C   0  0  0  0  0  0  0  0  0  0  0  0
    3.5195   -2.5582   -0.8424 O   0  0  0  0  0  0  0  0  0  0  0  0
   -1.7666   -0.5662    0.0615 C   0  0  0  0  0  0  0  0  0  0  0  0
   -2.6766   -1.6192    0.1142 C   0  0  0  0  0  0  0  0  0  0  0  0
   -4.0277   -1.3616    0.0235 C   0  0  0  0  0  0  0  0  0  0  0  0
   -4.4821   -0.0599   -0.1203 C   0  0  0  0  0  0  0  0  0  0  0  0
   -3.5924    0.9915   -0.1744 C   0  0  0  0  0  0  0  0  0  0  0  0
   -2.2246    0.7519   -0.0836 C   0  0  0  0  0  0  0  0  0  0  0  0
   -1.1280    1.5942   -0.1071 N   0  0  0  0  0  0  0  0  0  0  0  0
    3.5439    2.5196    0.9346 H   0  0  0  0  0  0  0  0  0  0  0  0
    3.6320    2.3555   -0.8356 H   0  0  0  0  0  0  0  0  0  0  0  0
    3.2591    3.9355   -0.1058 H   0  0  0  0  0  0  0  0  0  0  0  0
    0.4453   -2.4984    0.3518 H   0  0  0  0  0  0  0  0  0  0  0  0
    3.4067    0.5653    0.2089 H   0  0  0  0  0  0  0  0  0  0  0  0
    3.9630   -1.6679    0.9685 H   0  0  0  0  0  0  0  0  0  0  0  0
    2.7271   -2.9476    1.0255 H   0  0  0  0  0  0  0  0  0  0  0  0
    4.2154   -3.2293   -0.8215 H   0  0  0  0  0  0  0  0  0  0  0  0
   -2.3248   -2.6342    0.2255 H   0  0  0  0  0  0  0  0  0  0  0  0
   -4.7348   -2.1769    0.0642 H   0  0  0  0  0  0  0  0  0  0  0  0
   -5.5426    0.1322   -0.1909 H   0  0  0  0  0  0  0  0  0  0  0  0
   -3.9570    2.0018   -0.2873 H   0  0  0  0  0  0  0  0  0  0  0  0
   -1.1713    2.5589   -0.1985 H   0  0  0  0  0  0  0  0  0  0  0  0
  1  2  1  0  0  0  0
  2  3  1  0  0  0  0
  3  4  2  0  0  0  0
  4  5  1  0  0  0  0
  5  6  2  0  0  0  0
  6  7  1  0  0  0  0
  7  8  2  0  0  0  0
  3  8  1  0  0  0  0
  7  9  1  0  0  0  0
  9 10  1  0  0  0  0
  5 11  1  0  0  0  0
 11 12  2  0  0  0  0
 12 13  1  0  0  0  0
 13 14  2  0  0  0  0
 14 15  1  0  0  0  0
 15 16  2  0  0  0  0
 11 16  1  0  0  0  0
 16 17  1  0  0  0  0
  4 17  1  0  0  0  0
  1 18  1  0  0  0  0
  1 19  1  0  0  0  0
  1 20  1  0  0  0  0
  6 21  1  0  0  0  0
  8 22  1  0  0  0  0
  9 23  1  0  0  0  0
  9 24  1  0  0  0  0
 10 25  1  0  0  0  0
 12 26  1  0  0  0  0
 13 27  1  0  0  0  0
 14 28  1  0  0  0  0
 15 29  1  0  0  0  0
 17 30  1  0  0  0  0
M  END
$$$$
