C15H16O5
APtclcactv06281816393D 0   0.00000     0.00000
 
 36 38  0  0  0  0  0  0  0  0999 V2000
    1.8899    3.2800   -0.2063 C   0  0  0  0  0  0  0  0  0  0  0  0
    1.0720    2.1672    0.3968 C   0  0  0  0  0  0  0  0  0  0  0  0
    1.4580    0.9122    0.2433 C   0  0  0  0  0  0  0  0  0  0  0  0
    0.7260   -0.3304    0.7306 C   0  0  0  0  0  0  0  0  0  0  0  0
   -0.5904   -0.3713   -0.0320 C   0  0  0  0  0  0  0  0  0  0  0  0
   -1.6199    0.5494    0.6027 C   0  0  0  0  0  0  0  0  0  0  0  0
   -1.4093    2.0171    0.3758 C   0  0  0  0  0  0  0  0  0  0  0  0
   -0.1881    2.4973    1.1831 C   0  0  0  0  0  0  0  0  0  0  0  0
   -1.1859    2.2556   -1.0153 O   0  0  0  0  0  0  0  0  0  0  0  0
   -2.9127   -0.0169    0.0605 C   0  0  0  0  0  0  0  0  0  0  0  0
   -4.0876    0.5963   -0.0609 C   0  0  0  0  0  0  0  0  0  0  0  0
   -2.5698   -1.4147   -0.3061 C   0  0  0  0  0  0  0  0  0  0  0  0
   -3.3373   -2.2165   -0.8012 O   0  0  0  0  0  0  0  0  0  0  0  0
   -1.2633   -1.6623   -0.0035 O   0  0  0  0  0  0  0  0  0  0  0  0
    1.5953   -1.4939    0.3216 C   0  0  0  0  0  0  0  0  0  0  0  0
    2.6676   -1.0539   -0.3191 C   0  0  0  0  0  0  0  0  0  0  0  0
    2.6683    0.4101   -0.4234 C   0  0  0  0  0  0  0  0  0  0  0  0
    3.5201    1.0885   -0.9663 O   0  0  0  0  0  0  0  0  0  0  0  0
    1.2888   -2.9427    0.6012 C   0  0  0  0  0  0  0  0  0  0  0  0
    2.3317   -3.7616    0.0685 O   0  0  0  0  0  0  0  0  0  0  0  0
    1.5359    3.4846   -1.2167 H   0  0  0  0  0  0  0  0  0  0  0  0
    1.7875    4.1778    0.4033 H   0  0  0  0  0  0  0  0  0  0  0  0
    2.9379    2.9826   -0.2418 H   0  0  0  0  0  0  0  0  0  0  0  0
    0.5607   -0.3000    1.8075 H   0  0  0  0  0  0  0  0  0  0  0  0
   -0.4234   -0.0753   -1.0677 H   0  0  0  0  0  0  0  0  0  0  0  0
   -1.6152    0.3674    1.6774 H   0  0  0  0  0  0  0  0  0  0  0  0
   -2.2947    2.5645    0.6990 H   0  0  0  0  0  0  0  0  0  0  0  0
   -0.1655    1.9902    2.1476 H   0  0  0  0  0  0  0  0  0  0  0  0
   -0.2520    3.5746    1.3360 H   0  0  0  0  0  0  0  0  0  0  0  0
   -1.0416    3.1858   -1.2366 H   0  0  0  0  0  0  0  0  0  0  0  0
   -4.1941    1.6255    0.2487 H   0  0  0  0  0  0  0  0  0  0  0  0
   -4.9345    0.0647   -0.4690 H   0  0  0  0  0  0  0  0  0  0  0  0
    3.4442   -1.6919   -0.7144 H   0  0  0  0  0  0  0  0  0  0  0  0
    1.2189   -3.0980    1.6778 H   0  0  0  0  0  0  0  0  0  0  0  0
    0.3416   -3.2106    0.1332 H   0  0  0  0  0  0  0  0  0  0  0  0
    2.2003   -4.7088    0.2122 H   0  0  0  0  0  0  0  0  0  0  0  0
  1  2  1  0  0  0  0
  2  3  2  0  0  0  0
  3  4  1  0  0  0  0
  4  5  1  0  0  0  0
  5  6  1  0  0  0  0
  6  7  1  0  0  0  0
  7  8  1  0  0  0  0
  2  8  1  0  0  0  0
  7  9  1  0  0  0  0
  6 10  1  0  0  0  0
 10 11  2  0  0  0  0
 10 12  1  0  0  0  0
 12 13  2  0  0  0  0
 12 14  1  0  0  0  0
  5 14  1  0  0  0  0
  4 15  1  0  0  0  0
 15 16  2  0  0  0  0
 16 17  1  0  0  0  0
  3 17  1  0  0  0  0
 17 18  2  0  0  0  0
 15 19  1  0  0  0  0
 19 20  1  0  0  0  0
  1 21  1  0  0  0  0
  1 22  1  0  0  0  0
  1 23  1  0  0  0  0
  4 24  1  0  0  0  0
  5 25  1  0  0  0  0
  6 26  1  0  0  0  0
  7 27  1  0  0  0  0
  8 28  1  0  0  0  0
  8 29  1  0  0  0  0
  9 30  1  0  0  0  0
 11 31  1  0  0  0  0
 11 32  1  0  0  0  0
 16 33  1  0  0  0  0
 19 34  1  0  0  0  0
 19 35  1  0  0  0  0
 20 36  1  0  0  0  0
M  END
$$$$
