C10H18O21S4
APtclcactv06211806213D 0   0.00000     0.00000
 
 53 54  0  0  0  0  0  0  0  0999 V2000
   -3.0902   -0.6076   -2.7357 C   0  0  0  0  0  0  0  0  0  0  0  0
   -4.0866   -0.0057   -1.7414 C   0  0  0  0  0  0  0  0  0  0  0  0
   -3.7354   -0.4805   -0.3280 C   0  0  0  0  0  0  0  0  0  0  0  0
   -2.2894   -0.0855   -0.0131 C   0  0  0  0  0  0  0  0  0  0  0  0
   -1.3624   -0.6843   -1.0742 C   0  0  0  0  0  0  0  0  0  0  0  0
   -1.7629   -0.2270   -2.3675 O   0  0  0  0  0  0  0  0  0  0  0  0
   -0.0177   -0.2737   -0.8188 O   0  0  0  0  0  0  0  0  0  0  0  0
    0.9472   -0.8702   -1.6878 C   0  0  0  0  0  0  0  0  0  0  0  0
    1.1344    0.0107   -2.9258 C   0  0  0  0  0  0  0  0  0  0  0  0
    1.6412    1.2865   -2.5288 O   0  0  0  0  0  0  0  0  0  0  0  0
    2.9135    1.2329   -1.8805 C   0  0  0  0  0  0  0  0  0  0  0  0
    2.7978    0.4011   -0.6005 C   0  0  0  0  0  0  0  0  0  0  0  0
    2.2861   -0.9985   -0.9549 C   0  0  0  0  0  0  0  0  0  0  0  0
    2.1051   -1.7585    0.2417 O   0  0  0  0  0  0  0  0  0  0  0  0
    3.2945   -2.6366    0.6032 S   0  0  0  0  0  0  0  0  0  0  0  0
    2.8731   -3.4582    1.6832 O   0  0  0  0  0  0  0  0  0  0  0  0
    3.7953   -3.1576   -0.6204 O   0  0  0  0  0  0  0  0  0  0  0  0
    4.3781   -1.7220    1.1563 O   0  0  0  0  0  0  0  0  0  0  0  0
    4.0812    0.2975    0.0194 O   0  0  0  0  0  0  0  0  0  0  0  0
    4.3315    1.3376    1.1020 S   0  0  0  0  0  0  0  0  0  0  0  0
    5.7012    1.2205    1.4619 O   0  0  0  0  0  0  0  0  0  0  0  0
    3.7509    2.5484    0.6370 O   0  0  0  0  0  0  0  0  0  0  0  0
    3.5283    0.9176    2.3247 O   0  0  0  0  0  0  0  0  0  0  0  0
    3.8692    0.6304   -2.7556 O   0  0  0  0  0  0  0  0  0  0  0  0
   -2.1702    1.3385   -0.0236 O   0  0  0  0  0  0  0  0  0  0  0  0
   -1.1863    1.8849    1.0011 S   0  0  0  0  0  0  0  0  0  0  0  0
   -1.3411    3.2974    0.9924 O   0  0  0  0  0  0  0  0  0  0  0  0
   -1.3436    1.0930    2.1704 O   0  0  0  0  0  0  0  0  0  0  0  0
    0.2141    1.6027    0.4761 O   0  0  0  0  0  0  0  0  0  0  0  0
   -4.6152    0.1346    0.6153 O   0  0  0  0  0  0  0  0  0  0  0  0
   -5.8248   -0.7147    0.9787 S   0  0  0  0  0  0  0  0  0  0  0  0
   -6.6796    0.1152    1.7533 O   0  0  0  0  0  0  0  0  0  0  0  0
   -6.2405   -1.3547   -0.2200 O   0  0  0  0  0  0  0  0  0  0  0  0
   -5.3384   -1.8172    1.9083 O   0  0  0  0  0  0  0  0  0  0  0  0
   -4.0150    1.4204   -1.7976 O   0  0  0  0  0  0  0  0  0  0  0  0
   -3.1739   -1.6943   -2.7215 H   0  0  0  0  0  0  0  0  0  0  0  0
   -3.3092   -0.2391   -3.7379 H   0  0  0  0  0  0  0  0  0  0  0  0
   -5.0956   -0.3310   -1.9947 H   0  0  0  0  0  0  0  0  0  0  0  0
   -3.8380   -1.5642   -0.2714 H   0  0  0  0  0  0  0  0  0  0  0  0
   -2.0131   -0.4679    0.9696 H   0  0  0  0  0  0  0  0  0  0  0  0
   -1.4235   -1.7720   -1.0382 H   0  0  0  0  0  0  0  0  0  0  0  0
    0.6015   -1.8580   -1.9925 H   0  0  0  0  0  0  0  0  0  0  0  0
    1.8401   -0.4648   -3.6070 H   0  0  0  0  0  0  0  0  0  0  0  0
    0.1756    0.1406   -3.4279 H   0  0  0  0  0  0  0  0  0  0  0  0
    3.2365    2.2432   -1.6295 H   0  0  0  0  0  0  0  0  0  0  0  0
    2.0992    0.8818    0.0843 H   0  0  0  0  0  0  0  0  0  0  0  0
    3.0085   -1.4984   -1.6001 H   0  0  0  0  0  0  0  0  0  0  0  0
    5.1860   -2.1837    1.4194 H   0  0  0  0  0  0  0  0  0  0  0  0
    3.6174    1.5167    3.0785 H   0  0  0  0  0  0  0  0  0  0  0  0
    3.9935    1.1050   -3.5889 H   0  0  0  0  0  0  0  0  0  0  0  0
    0.9219    1.9126    1.0575 H   0  0  0  0  0  0  0  0  0  0  0  0
   -6.0352   -2.4199    2.2021 H   0  0  0  0  0  0  0  0  0  0  0  0
   -4.2211    1.7905   -2.6669 H   0  0  0  0  0  0  0  0  0  0  0  0
  1  2  1  0  0  0  0
  2  3  1  0  0  0  0
  3  4  1  0  0  0  0
  4  5  1  0  0  0  0
  5  6  1  0  0  0  0
  1  6  1  0  0  0  0
  5  7  1  0  0  0  0
  7  8  1  0  0  0  0
  8  9  1  0  0  0  0
  9 10  1  0  0  0  0
 10 11  1  0  0  0  0
 11 12  1  0  0  0  0
 12 13  1  0  0  0  0
  8 13  1  0  0  0  0
 13 14  1  0  0  0  0
 14 15  1  0  0  0  0
 15 16  2  0  0  0  0
 15 17  2  0  0  0  0
 15 18  1  0  0  0  0
 12 19  1  0  0  0  0
 19 20  1  0  0  0  0
 20 21  2  0  0  0  0
 20 22  2  0  0  0  0
 20 23  1  0  0  0  0
 11 24  1  0  0  0  0
  4 25  1  0  0  0  0
 25 26  1  0  0  0  0
 26 27  2  0  0  0  0
 26 28  2  0  0  0  0
 26 29  1  0  0  0  0
  3 30  1  0  0  0  0
 30 31  1  0  0  0  0
 31 32  2  0  0  0  0
 31 33  2  0  0  0  0
 31 34  1  0  0  0  0
  2 35  1  0  0  0  0
  1 36  1  0  0  0  0
  1 37  1  0  0  0  0
  2 38  1  0  0  0  0
  3 39  1  0  0  0  0
  4 40  1  0  0  0  0
  5 41  1  0  0  0  0
  8 42  1  0  0  0  0
  9 43  1  0  0  0  0
  9 44  1  0  0  0  0
 11 45  1  0  0  0  0
 12 46  1  0  0  0  0
 13 47  1  0  0  0  0
 18 48  1  0  0  0  0
 23 49  1  0  0  0  0
 24 50  1  0  0  0  0
 29 51  1  0  0  0  0
 34 52  1  0  0  0  0
 35 53  1  0  0  0  0
M  END
$$$$
