C10H14O
APtclcactv06211806493D 0   0.00000     0.00000
 
 25 25  0  0  0  0  0  0  0  0999 V2000
    3.5653   -0.1238   -0.4481 C   0  0  0  0  0  0  0  0  0  0  0  0
    2.0838   -0.1298   -0.1718 C   0  0  0  0  0  0  0  0  0  0  0  0
    1.4799    1.0392   -0.0454 C   0  0  0  0  0  0  0  0  0  0  0  0
    0.0328    1.1087    0.2494 C   0  0  0  0  0  0  0  0  0  0  0  0
   -0.5312    2.1630    0.4752 O   0  0  0  0  0  0  0  0  0  0  0  0
   -0.6900   -0.1907    0.2522 C   0  0  0  0  0  0  0  0  0  0  0  0
   -1.9508   -0.3084   -0.1592 C   0  0  0  0  0  0  0  0  0  0  0  0
   -2.6991    0.9035   -0.6516 C   0  0  0  0  0  0  0  0  0  0  0  0
   -2.6297   -1.6536   -0.1324 C   0  0  0  0  0  0  0  0  0  0  0  0
    0.1168   -1.3739    0.7586 C   0  0  0  0  0  0  0  0  0  0  0  0
    1.4036   -1.4587   -0.0666 C   0  0  0  0  0  0  0  0  0  0  0  0
    3.9206    0.9052   -0.5024 H   0  0  0  0  0  0  0  0  0  0  0  0
    4.0866   -0.6464    0.3538 H   0  0  0  0  0  0  0  0  0  0  0  0
    3.7601   -0.6259   -1.3958 H   0  0  0  0  0  0  0  0  0  0  0  0
    2.0480    1.9507   -0.1580 H   0  0  0  0  0  0  0  0  0  0  0  0
   -2.5504    1.0105   -1.7261 H   0  0  0  0  0  0  0  0  0  0  0  0
   -3.7621    0.7841   -0.4420 H   0  0  0  0  0  0  0  0  0  0  0  0
   -2.3260    1.7923   -0.1428 H   0  0  0  0  0  0  0  0  0  0  0  0
   -3.1224   -1.7928    0.8299 H   0  0  0  0  0  0  0  0  0  0  0  0
   -3.3705   -1.7028   -0.9304 H   0  0  0  0  0  0  0  0  0  0  0  0
   -1.8870   -2.4383   -0.2771 H   0  0  0  0  0  0  0  0  0  0  0  0
    0.3595   -1.2299    1.8115 H   0  0  0  0  0  0  0  0  0  0  0  0
   -0.4588   -2.2913    0.6354 H   0  0  0  0  0  0  0  0  0  0  0  0
    1.1610   -1.8205   -1.0659 H   0  0  0  0  0  0  0  0  0  0  0  0
    2.0843   -2.1646    0.4092 H   0  0  0  0  0  0  0  0  0  0  0  0
  1  2  1  0  0  0  0
  2  3  2  0  0  0  0
  3  4  1  0  0  0  0
  4  5  2  0  0  0  0
  4  6  1  0  0  0  0
  6  7  2  0  0  0  0
  7  8  1  0  0  0  0
  7  9  1  0  0  0  0
  6 10  1  0  0  0  0
 10 11  1  0  0  0  0
  2 11  1  0  0  0  0
  1 12  1  0  0  0  0
  1 13  1  0  0  0  0
  1 14  1  0  0  0  0
  3 15  1  0  0  0  0
  8 16  1  0  0  0  0
  8 17  1  0  0  0  0
  8 18  1  0  0  0  0
  9 19  1  0  0  0  0
  9 20  1  0  0  0  0
  9 21  1  0  0  0  0
 10 22  1  0  0  0  0
 10 23  1  0  0  0  0
 11 24  1  0  0  0  0
 11 25  1  0  0  0  0
M  END
$$$$
