C10H14O2
APtclcactv06211806493D 0   0.00000     0.00000
 
 26 27  0  0  0  0  0  0  0  0999 V2000
    2.2319   -0.5532    0.6812 C   0  0  0  0  0  0  0  0  0  0  0  0
    1.1360    0.4018    0.2037 C   0  0  0  0  0  0  0  0  0  0  0  0
    0.9116    0.3168   -1.3487 C   0  0  0  0  0  0  0  0  0  0  0  0
   -0.3943    1.1595   -1.4850 C   0  0  0  0  0  0  0  0  0  0  0  0
   -1.1741    0.8717   -0.2101 C   0  0  0  0  0  0  0  0  0  0  0  0
   -2.2517    1.3159    0.1058 O   0  0  0  0  0  0  0  0  0  0  0  0
   -0.2985   -0.1043    0.5883 C   0  0  0  0  0  0  0  0  0  0  0  0
   -0.3639   -1.4189   -0.2019 C   0  0  0  0  0  0  0  0  0  0  0  0
   -0.9229   -2.4400    0.1194 O   0  0  0  0  0  0  0  0  0  0  0  0
    0.4264   -1.1604   -1.4768 C   0  0  0  0  0  0  0  0  0  0  0  0
   -0.5997   -0.1961    2.0855 C   0  0  0  0  0  0  0  0  0  0  0  0
    1.3885    1.8361    0.6725 C   0  0  0  0  0  0  0  0  0  0  0  0
    3.1772   -0.2870    0.2084 H   0  0  0  0  0  0  0  0  0  0  0  0
    2.3332   -0.4777    1.7639 H   0  0  0  0  0  0  0  0  0  0  0  0
    1.9659   -1.5753    0.4116 H   0  0  0  0  0  0  0  0  0  0  0  0
    1.7479    0.6178   -1.9797 H   0  0  0  0  0  0  0  0  0  0  0  0
   -0.1560    2.2210   -1.5531 H   0  0  0  0  0  0  0  0  0  0  0  0
   -0.9629    0.8402   -2.3584 H   0  0  0  0  0  0  0  0  0  0  0  0
   -0.2146   -1.2752   -2.3509 H   0  0  0  0  0  0  0  0  0  0  0  0
    1.2793   -1.8363   -1.5386 H   0  0  0  0  0  0  0  0  0  0  0  0
   -1.6239   -0.5401    2.2296 H   0  0  0  0  0  0  0  0  0  0  0  0
    0.0891   -0.9002    2.5523 H   0  0  0  0  0  0  0  0  0  0  0  0
   -0.4790    0.7867    2.5413 H   0  0  0  0  0  0  0  0  0  0  0  0
    2.3482    2.1806    0.2874 H   0  0  0  0  0  0  0  0  0  0  0  0
    0.5945    2.4845    0.3020 H   0  0  0  0  0  0  0  0  0  0  0  0
    1.4026    1.8652    1.7620 H   0  0  0  0  0  0  0  0  0  0  0  0
  1  2  1  0  0  0  0
  2  3  1  0  0  0  0
  3  4  1  0  0  0  0
  4  5  1  0  0  0  0
  5  6  2  0  0  0  0
  5  7  1  0  0  0  0
  2  7  1  0  0  0  0
  7  8  1  0  0  0  0
  8  9  2  0  0  0  0
  8 10  1  0  0  0  0
  3 10  1  0  0  0  0
  7 11  1  0  0  0  0
  2 12  1  0  0  0  0
  1 13  1  0  0  0  0
  1 14  1  0  0  0  0
  1 15  1  0  0  0  0
  3 16  1  0  0  0  0
  4 17  1  0  0  0  0
  4 18  1  0  0  0  0
 10 19  1  0  0  0  0
 10 20  1  0  0  0  0
 11 21  1  0  0  0  0
 11 22  1  0  0  0  0
 11 23  1  0  0  0  0
 12 24  1  0  0  0  0
 12 25  1  0  0  0  0
 12 26  1  0  0  0  0
M  END
$$$$
