C37H47N3O7
APtclcactv06211806493D 0   0.00000     0.00000
 
 94 96  0  0  0  0  0  0  0  0999 V2000
   -5.1337    2.7420   -1.3933 C   0  0  0  0  0  0  0  0  0  0  0  0
   -5.6509    1.3630   -1.8079 C   0  0  0  0  0  0  0  0  0  0  0  0
   -6.1778    1.4263   -3.2429 C   0  0  0  0  0  0  0  0  0  0  0  0
   -4.5111    0.3455   -1.7275 C   0  0  0  0  0  0  0  0  0  0  0  0
   -4.0678    0.1904   -0.2714 C   0  0  0  0  0  0  0  0  0  0  0  0
   -5.1742   -0.4522    0.5248 C   0  0  0  0  0  0  0  0  0  0  0  0
   -4.9825   -1.5060    1.0841 O   0  0  0  0  0  0  0  0  0  0  0  0
   -6.3725    0.1461    0.6128 O   0  0  0  0  0  0  0  0  0  0  0  0
   -7.3909   -0.5300    1.3963 C   0  0  0  0  0  0  0  0  0  0  0  0
   -8.6591    0.2840    1.3812 C   0  0  0  0  0  0  0  0  0  0  0  0
   -9.6049    0.0717    0.3956 C   0  0  0  0  0  0  0  0  0  0  0  0
  -10.7682    0.8183    0.3817 C   0  0  0  0  0  0  0  0  0  0  0  0
  -10.9859    1.7770    1.3536 C   0  0  0  0  0  0  0  0  0  0  0  0
  -10.0405    1.9886    2.3397 C   0  0  0  0  0  0  0  0  0  0  0  0
   -8.8792    1.2390    2.3561 C   0  0  0  0  0  0  0  0  0  0  0  0
   -2.8708   -0.6523   -0.2125 N   0  0  0  0  0  0  0  0  0  0  0  0
   -1.6598   -0.1220   -0.4744 C   0  0  0  0  0  0  0  0  0  0  0  0
   -1.5490    1.0699   -0.6693 O   0  0  0  0  0  0  0  0  0  0  0  0
   -0.4433   -1.0101   -0.5249 C   0  0  0  0  0  0  0  0  0  0  0  0
   -0.6280   -2.0664   -1.6162 C   0  0  0  0  0  0  0  0  0  0  0  0
    0.5315   -3.0286   -1.5854 C   0  0  0  0  0  0  0  0  0  0  0  0
    0.4671   -4.1635   -0.7990 C   0  0  0  0  0  0  0  0  0  0  0  0
    1.5307   -5.0461   -0.7707 C   0  0  0  0  0  0  0  0  0  0  0  0
    2.6585   -4.7939   -1.5292 C   0  0  0  0  0  0  0  0  0  0  0  0
    2.7225   -3.6594   -2.3164 C   0  0  0  0  0  0  0  0  0  0  0  0
    1.6571   -2.7790   -2.3480 C   0  0  0  0  0  0  0  0  0  0  0  0
    0.7403   -0.2004   -0.8244 N   0  0  0  0  0  0  0  0  0  0  0  0
    1.9610   -0.6237   -0.4408 C   0  0  0  0  0  0  0  0  0  0  0  0
    2.0797   -1.6749    0.1523 O   0  0  0  0  0  0  0  0  0  0  0  0
    3.1786    0.2093   -0.7489 C   0  0  0  0  0  0  0  0  0  0  0  0
    3.2928    1.3428    0.2724 C   0  0  0  0  0  0  0  0  0  0  0  0
    4.3782    2.2000   -0.0868 O   0  0  0  0  0  0  0  0  0  0  0  0
    4.5725    3.2976    0.8074 C   0  0  0  0  0  0  0  0  0  0  0  0
    5.7361    4.1306    0.3350 C   0  0  0  0  0  0  0  0  0  0  0  0
    5.5249    5.1802   -0.5394 C   0  0  0  0  0  0  0  0  0  0  0  0
    6.5923    5.9442   -0.9728 C   0  0  0  0  0  0  0  0  0  0  0  0
    7.8709    5.6588   -0.5315 C   0  0  0  0  0  0  0  0  0  0  0  0
    8.0820    4.6098    0.3436 C   0  0  0  0  0  0  0  0  0  0  0  0
    7.0140    3.8485    0.7804 C   0  0  0  0  0  0  0  0  0  0  0  0
    4.3759   -0.6321   -0.6805 N   0  0  0  0  0  0  0  0  0  0  0  0
    4.6934   -1.2602    0.4690 C   0  0  0  0  0  0  0  0  0  0  0  0
    3.9865   -1.1286    1.4485 O   0  0  0  0  0  0  0  0  0  0  0  0
    5.7938   -2.0335    0.5318 O   0  0  0  0  0  0  0  0  0  0  0  0
    6.0740   -2.6793    1.8018 C   0  0  0  0  0  0  0  0  0  0  0  0
    4.9066   -3.5942    2.1772 C   0  0  0  0  0  0  0  0  0  0  0  0
    7.3537   -3.5090    1.6806 C   0  0  0  0  0  0  0  0  0  0  0  0
    6.2569   -1.6150    2.8857 C   0  0  0  0  0  0  0  0  0  0  0  0
   -5.9195    3.4834   -1.5379 H   0  0  0  0  0  0  0  0  0  0  0  0
   -4.8434    2.7204   -0.3429 H   0  0  0  0  0  0  0  0  0  0  0  0
   -4.2697    3.0046   -2.0038 H   0  0  0  0  0  0  0  0  0  0  0  0
   -6.4559    1.0605   -1.1383 H   0  0  0  0  0  0  0  0  0  0  0  0
   -5.3728    1.7288   -3.9126 H   0  0  0  0  0  0  0  0  0  0  0  0
   -6.5463    0.4439   -3.5383 H   0  0  0  0  0  0  0  0  0  0  0  0
   -6.9898    2.1512   -3.3002 H   0  0  0  0  0  0  0  0  0  0  0  0
   -4.8555   -0.6165   -2.1069 H   0  0  0  0  0  0  0  0  0  0  0  0
   -3.6706    0.6932   -2.3282 H   0  0  0  0  0  0  0  0  0  0  0  0
   -3.8422    1.1716    0.1462 H   0  0  0  0  0  0  0  0  0  0  0  0
   -7.5853   -1.5135    0.9684 H   0  0  0  0  0  0  0  0  0  0  0  0
   -7.0439   -0.6428    2.4234 H   0  0  0  0  0  0  0  0  0  0  0  0
   -9.4349   -0.6773   -0.3637 H   0  0  0  0  0  0  0  0  0  0  0  0
  -11.5068    0.6530   -0.3887 H   0  0  0  0  0  0  0  0  0  0  0  0
  -11.8944    2.3608    1.3423 H   0  0  0  0  0  0  0  0  0  0  0  0
  -10.2104    2.7378    3.0988 H   0  0  0  0  0  0  0  0  0  0  0  0
   -8.1405    1.4043    3.1265 H   0  0  0  0  0  0  0  0  0  0  0  0
   -2.9499   -1.5920    0.0149 H   0  0  0  0  0  0  0  0  0  0  0  0
   -0.3124   -1.5023    0.4387 H   0  0  0  0  0  0  0  0  0  0  0  0
   -1.5563   -2.6104   -1.4419 H   0  0  0  0  0  0  0  0  0  0  0  0
   -0.6699   -1.5790   -2.5903 H   0  0  0  0  0  0  0  0  0  0  0  0
   -0.4140   -4.3606   -0.2063 H   0  0  0  0  0  0  0  0  0  0  0  0
    1.4807   -5.9324   -0.1556 H   0  0  0  0  0  0  0  0  0  0  0  0
    3.4897   -5.4830   -1.5066 H   0  0  0  0  0  0  0  0  0  0  0  0
    3.6037   -3.4621   -2.9088 H   0  0  0  0  0  0  0  0  0  0  0  0
    1.7071   -1.8927   -2.9631 H   0  0  0  0  0  0  0  0  0  0  0  0
    0.6454    0.6404   -1.2987 H   0  0  0  0  0  0  0  0  0  0  0  0
    3.0870    0.6302   -1.7501 H   0  0  0  0  0  0  0  0  0  0  0  0
    2.3657    1.9160    0.2842 H   0  0  0  0  0  0  0  0  0  0  0  0
    3.4732    0.9233    1.2621 H   0  0  0  0  0  0  0  0  0  0  0  0
    3.6719    3.9114    0.8303 H   0  0  0  0  0  0  0  0  0  0  0  0
    4.7795    2.9187    1.8082 H   0  0  0  0  0  0  0  0  0  0  0  0
    4.5260    5.4031   -0.8842 H   0  0  0  0  0  0  0  0  0  0  0  0
    6.4274    6.7638   -1.6565 H   0  0  0  0  0  0  0  0  0  0  0  0
    8.7049    6.2553   -0.8706 H   0  0  0  0  0  0  0  0  0  0  0  0
    9.0809    4.3866    0.6882 H   0  0  0  0  0  0  0  0  0  0  0  0
    7.1789    3.0289    1.4641 H   0  0  0  0  0  0  0  0  0  0  0  0
    4.9402   -0.7372   -1.4624 H   0  0  0  0  0  0  0  0  0  0  0  0
    4.7763   -4.3524    1.4049 H   0  0  0  0  0  0  0  0  0  0  0  0
    5.1169   -4.0790    3.1305 H   0  0  0  0  0  0  0  0  0  0  0  0
    3.9949   -3.0031    2.2635 H   0  0  0  0  0  0  0  0  0  0  0  0
    8.1854   -2.8572    1.4131 H   0  0  0  0  0  0  0  0  0  0  0  0
    7.5641   -3.9938    2.6339 H   0  0  0  0  0  0  0  0  0  0  0  0
    7.2234   -4.2671    0.9083 H   0  0  0  0  0  0  0  0  0  0  0  0
    5.3452   -1.0239    2.9720 H   0  0  0  0  0  0  0  0  0  0  0  0
    6.4672   -2.0998    3.8390 H   0  0  0  0  0  0  0  0  0  0  0  0
    7.0886   -0.9632    2.6182 H   0  0  0  0  0  0  0  0  0  0  0  0
  1  2  1  0  0  0  0
  2  3  1  0  0  0  0
  2  4  1  0  0  0  0
  4  5  1  0  0  0  0
  5  6  1  0  0  0  0
  6  7  2  0  0  0  0
  6  8  1  0  0  0  0
  8  9  1  0  0  0  0
  9 10  1  0  0  0  0
 10 11  2  0  0  0  0
 11 12  1  0  0  0  0
 12 13  2  0  0  0  0
 13 14  1  0  0  0  0
 14 15  2  0  0  0  0
 10 15  1  0  0  0  0
  5 16  1  0  0  0  0
 16 17  1  0  0  0  0
 17 18  2  0  0  0  0
 17 19  1  0  0  0  0
 19 20  1  0  0  0  0
 20 21  1  0  0  0  0
 21 22  2  0  0  0  0
 22 23  1  0  0  0  0
 23 24  2  0  0  0  0
 24 25  1  0  0  0  0
 25 26  2  0  0  0  0
 21 26  1  0  0  0  0
 19 27  1  0  0  0  0
 27 28  1  0  0  0  0
 28 29  2  0  0  0  0
 28 30  1  0  0  0  0
 30 31  1  0  0  0  0
 31 32  1  0  0  0  0
 32 33  1  0  0  0  0
 33 34  1  0  0  0  0
 34 35  2  0  0  0  0
 35 36  1  0  0  0  0
 36 37  2  0  0  0  0
 37 38  1  0  0  0  0
 38 39  2  0  0  0  0
 34 39  1  0  0  0  0
 30 40  1  0  0  0  0
 40 41  1  0  0  0  0
 41 42  2  0  0  0  0
 41 43  1  0  0  0  0
 43 44  1  0  0  0  0
 44 45  1  0  0  0  0
 44 46  1  0  0  0  0
 44 47  1  0  0  0  0
  1 48  1  0  0  0  0
  1 49  1  0  0  0  0
  1 50  1  0  0  0  0
  2 51  1  0  0  0  0
  3 52  1  0  0  0  0
  3 53  1  0  0  0  0
  3 54  1  0  0  0  0
  4 55  1  0  0  0  0
  4 56  1  0  0  0  0
  5 57  1  0  0  0  0
  9 58  1  0  0  0  0
  9 59  1  0  0  0  0
 11 60  1  0  0  0  0
 12 61  1  0  0  0  0
 13 62  1  0  0  0  0
 14 63  1  0  0  0  0
 15 64  1  0  0  0  0
 16 65  1  0  0  0  0
 19 66  1  0  0  0  0
 20 67  1  0  0  0  0
 20 68  1  0  0  0  0
 22 69  1  0  0  0  0
 23 70  1  0  0  0  0
 24 71  1  0  0  0  0
 25 72  1  0  0  0  0
 26 73  1  0  0  0  0
 27 74  1  0  0  0  0
 30 75  1  0  0  0  0
 31 76  1  0  0  0  0
 31 77  1  0  0  0  0
 33 78  1  0  0  0  0
 33 79  1  0  0  0  0
 35 80  1  0  0  0  0
 36 81  1  0  0  0  0
 37 82  1  0  0  0  0
 38 83  1  0  0  0  0
 39 84  1  0  0  0  0
 40 85  1  0  0  0  0
 45 86  1  0  0  0  0
 45 87  1  0  0  0  0
 45 88  1  0  0  0  0
 46 89  1  0  0  0  0
 46 90  1  0  0  0  0
 46 91  1  0  0  0  0
 47 92  1  0  0  0  0
 47 93  1  0  0  0  0
 47 94  1  0  0  0  0
M  END
$$$$
