C29H35O17
APtclcactv06281816393D 0   0.00000     0.00000
 
 81 85  0  0  0  0  0  0  0  0999 V2000
    5.5180   -0.4917   -2.9423 C   0  0  0  0  0  0  0  0  0  0  0  0
    6.1444    0.2288   -1.8790 O   0  0  0  0  0  0  0  0  0  0  0  0
    5.3272    0.8844   -1.0119 C   0  0  0  0  0  0  0  0  0  0  0  0
    3.9555    0.8339   -1.1826 C   0  0  0  0  0  0  0  0  0  0  0  0
    3.1172    1.5065   -0.2922 C   0  0  0  0  0  0  0  0  0  0  0  0
    3.6654    2.2289    0.7689 C   0  0  0  0  0  0  0  0  0  0  0  0
    5.0376    2.2767    0.9358 C   0  0  0  0  0  0  0  0  0  0  0  0
    5.8713    1.6009    0.0498 C   0  0  0  0  0  0  0  0  0  0  0  0
    7.2201    1.6489    0.2160 O   0  0  0  0  0  0  0  0  0  0  0  0
    5.5723    2.9808    1.9692 O   0  0  0  0  0  0  0  0  0  0  0  0
    4.6579    3.5478    2.9097 C   0  0  0  0  0  0  0  0  0  0  0  0
    1.6500    1.4543   -0.4730 C   0  0  0  0  0  0  0  0  0  0  0  0
    1.0389    0.2023   -0.6671 C   0  0  0  0  0  0  0  0  0  0  0  0
   -0.3288    0.1720   -0.8338 C   0  0  0  0  0  0  0  0  0  0  0  0
   -0.9743    1.4254   -0.7901 C   0  0  0  0  0  0  0  0  0  0  0  0
   -2.3677    1.5412   -0.9453 C   0  0  0  0  0  0  0  0  0  0  0  0
   -2.9528    2.7757   -0.8958 C   0  0  0  0  0  0  0  0  0  0  0  0
   -2.1787    3.9200   -0.6932 C   0  0  0  0  0  0  0  0  0  0  0  0
   -0.8123    3.8345   -0.5387 C   0  0  0  0  0  0  0  0  0  0  0  0
   -0.1808    2.5821   -0.5834 C   0  0  0  0  0  0  0  0  0  0  0  0
    1.0252    2.4894   -0.4429 O   0  3  0  0  0  0  0  0  0  0  0  0
   -2.7820    5.1360   -0.6481 O   0  0  0  0  0  0  0  0  0  0  0  0
   -3.1270    0.4333   -1.1435 O   0  0  0  0  0  0  0  0  0  0  0  0
   -4.5346    0.6297   -1.2926 C   0  0  0  0  0  0  0  0  0  0  0  0
   -5.2035   -0.7055   -1.6294 C   0  0  0  0  0  0  0  0  0  0  0  0
   -4.9907   -1.6815   -0.4681 C   0  0  0  0  0  0  0  0  0  0  0  0
   -5.5483   -1.0596    0.8158 C   0  0  0  0  0  0  0  0  0  0  0  0
   -4.8660    0.2893    1.0582 C   0  0  0  0  0  0  0  0  0  0  0  0
   -5.0767    1.1381   -0.0720 O   0  0  0  0  0  0  0  0  0  0  0  0
   -5.4604    0.9448    2.3064 C   0  0  0  0  0  0  0  0  0  0  0  0
   -4.7455    2.1469    2.5994 O   0  0  0  0  0  0  0  0  0  0  0  0
   -6.9573   -0.8644    0.6791 O   0  0  0  0  0  0  0  0  0  0  0  0
   -5.6740   -2.9064   -0.7418 O   0  0  0  0  0  0  0  0  0  0  0  0
   -6.6033   -0.5010   -1.8308 O   0  0  0  0  0  0  0  0  0  0  0  0
    1.7739   -0.9409   -0.6899 O   0  0  0  0  0  0  0  0  0  0  0  0
    1.0566   -2.1710   -0.8109 C   0  0  0  0  0  0  0  0  0  0  0  0
    2.0391   -3.3082   -1.1028 C   0  0  0  0  0  0  0  0  0  0  0  0
    3.0088   -3.4495    0.0744 C   0  0  0  0  0  0  0  0  0  0  0  0
    2.2062   -3.6895    1.3569 C   0  0  0  0  0  0  0  0  0  0  0  0
    1.2174   -2.5375    1.5537 C   0  0  0  0  0  0  0  0  0  0  0  0
    0.3656   -2.4419    0.4102 O   0  0  0  0  0  0  0  0  0  0  0  0
    0.3701   -2.7997    2.8005 C   0  0  0  0  0  0  0  0  0  0  0  0
   -0.4712   -1.6721    3.0505 O   0  0  0  0  0  0  0  0  0  0  0  0
    1.4894   -4.9209    1.2482 O   0  0  0  0  0  0  0  0  0  0  0  0
    3.8830   -4.5561   -0.1565 O   0  0  0  0  0  0  0  0  0  0  0  0
    1.3178   -4.5295   -1.2766 O   0  0  0  0  0  0  0  0  0  0  0  0
    4.8602   -1.2547   -2.5260 H   0  0  0  0  0  0  0  0  0  0  0  0
    4.9345    0.1969   -3.5535 H   0  0  0  0  0  0  0  0  0  0  0  0
    6.2813   -0.9669   -3.5584 H   0  0  0  0  0  0  0  0  0  0  0  0
    3.5335    0.2746   -2.0045 H   0  0  0  0  0  0  0  0  0  0  0  0
    3.0186    2.7504    1.4588 H   0  0  0  0  0  0  0  0  0  0  0  0
    7.5726    0.9444    0.7767 H   0  0  0  0  0  0  0  0  0  0  0  0
    5.2137    4.0849    3.6783 H   0  0  0  0  0  0  0  0  0  0  0  0
    3.9892    4.2382    2.3956 H   0  0  0  0  0  0  0  0  0  0  0  0
    4.0734    2.7528    3.3727 H   0  0  0  0  0  0  0  0  0  0  0  0
   -0.8700   -0.7498   -0.9880 H   0  0  0  0  0  0  0  0  0  0  0  0
   -4.0223    2.8667   -1.0147 H   0  0  0  0  0  0  0  0  0  0  0  0
   -0.2283    4.7296   -0.3835 H   0  0  0  0  0  0  0  0  0  0  0  0
   -3.0609    5.4040    0.2381 H   0  0  0  0  0  0  0  0  0  0  0  0
   -4.7191    1.3418   -2.0969 H   0  0  0  0  0  0  0  0  0  0  0  0
   -4.7602   -1.1164   -2.5364 H   0  0  0  0  0  0  0  0  0  0  0  0
   -3.9252   -1.8763   -0.3461 H   0  0  0  0  0  0  0  0  0  0  0  0
   -5.3516   -1.7237    1.6575 H   0  0  0  0  0  0  0  0  0  0  0  0
   -3.7967    0.1351    1.2026 H   0  0  0  0  0  0  0  0  0  0  0  0
   -6.5097    1.1803    2.1284 H   0  0  0  0  0  0  0  0  0  0  0  0
   -5.3799    0.2594    3.1500 H   0  0  0  0  0  0  0  0  0  0  0  0
   -5.0691    2.6165    3.3804 H   0  0  0  0  0  0  0  0  0  0  0  0
   -7.4534   -1.6787    0.5183 H   0  0  0  0  0  0  0  0  0  0  0  0
   -5.3756   -3.3519   -1.5465 H   0  0  0  0  0  0  0  0  0  0  0  0
   -6.8119    0.1114   -2.5495 H   0  0  0  0  0  0  0  0  0  0  0  0
    0.3374   -2.0936   -1.6263 H   0  0  0  0  0  0  0  0  0  0  0  0
    2.5986   -3.0822   -2.0105 H   0  0  0  0  0  0  0  0  0  0  0  0
    3.5943   -2.5358    0.1763 H   0  0  0  0  0  0  0  0  0  0  0  0
    2.8853   -3.7361    2.2082 H   0  0  0  0  0  0  0  0  0  0  0  0
    1.7665   -1.6040    1.6770 H   0  0  0  0  0  0  0  0  0  0  0  0
   -0.2461   -3.6847    2.6414 H   0  0  0  0  0  0  0  0  0  0  0  0
    1.0246   -2.9618    3.6570 H   0  0  0  0  0  0  0  0  0  0  0  0
   -1.0377   -1.7688    3.8282 H   0  0  0  0  0  0  0  0  0  0  0  0
    2.0543   -5.6946    1.1168 H   0  0  0  0  0  0  0  0  0  0  0  0
    4.4180   -4.4742   -0.9578 H   0  0  0  0  0  0  0  0  0  0  0  0
    0.6805   -4.5099   -2.0037 H   0  0  0  0  0  0  0  0  0  0  0  0
  1  2  1  0  0  0  0
  2  3  1  0  0  0  0
  3  4  2  0  0  0  0
  4  5  1  0  0  0  0
  5  6  2  0  0  0  0
  6  7  1  0  0  0  0
  7  8  2  0  0  0  0
  3  8  1  0  0  0  0
  8  9  1  0  0  0  0
  7 10  1  0  0  0  0
 10 11  1  0  0  0  0
  5 12  1  0  0  0  0
 12 13  2  0  0  0  0
 13 14  1  0  0  0  0
 14 15  2  0  0  0  0
 15 16  1  0  0  0  0
 16 17  2  0  0  0  0
 17 18  1  0  0  0  0
 18 19  2  0  0  0  0
 19 20  1  0  0  0  0
 15 20  1  0  0  0  0
 20 21  2  0  0  0  0
 12 21  1  0  0  0  0
 18 22  1  0  0  0  0
 16 23  1  0  0  0  0
 23 24  1  0  0  0  0
 24 25  1  0  0  0  0
 25 26  1  0  0  0  0
 26 27  1  0  0  0  0
 27 28  1  0  0  0  0
 28 29  1  0  0  0  0
 24 29  1  0  0  0  0
 28 30  1  0  0  0  0
 30 31  1  0  0  0  0
 27 32  1  0  0  0  0
 26 33  1  0  0  0  0
 25 34  1  0  0  0  0
 13 35  1  0  0  0  0
 35 36  1  0  0  0  0
 36 37  1  0  0  0  0
 37 38  1  0  0  0  0
 38 39  1  0  0  0  0
 39 40  1  0  0  0  0
 40 41  1  0  0  0  0
 36 41  1  0  0  0  0
 40 42  1  0  0  0  0
 42 43  1  0  0  0  0
 39 44  1  0  0  0  0
 38 45  1  0  0  0  0
 37 46  1  0  0  0  0
  1 47  1  0  0  0  0
  1 48  1  0  0  0  0
  1 49  1  0  0  0  0
  4 50  1  0  0  0  0
  6 51  1  0  0  0  0
  9 52  1  0  0  0  0
 11 53  1  0  0  0  0
 11 54  1  0  0  0  0
 11 55  1  0  0  0  0
 14 56  1  0  0  0  0
 17 57  1  0  0  0  0
 19 58  1  0  0  0  0
 22 59  1  0  0  0  0
 24 60  1  0  0  0  0
 25 61  1  0  0  0  0
 26 62  1  0  0  0  0
 27 63  1  0  0  0  0
 28 64  1  0  0  0  0
 30 65  1  0  0  0  0
 30 66  1  0  0  0  0
 31 67  1  0  0  0  0
 32 68  1  0  0  0  0
 33 69  1  0  0  0  0
 34 70  1  0  0  0  0
 36 71  1  0  0  0  0
 37 72  1  0  0  0  0
 38 73  1  0  0  0  0
 39 74  1  0  0  0  0
 40 75  1  0  0  0  0
 42 76  1  0  0  0  0
 42 77  1  0  0  0  0
 43 78  1  0  0  0  0
 44 79  1  0  0  0  0
 45 80  1  0  0  0  0
 46 81  1  0  0  0  0
M  CHG  1  21   1
M  END
$$$$
