C30H48O4
APtclcactv06281816393D 0   0.00000     0.00000
 
 82 86  0  0  0  0  0  0  0  0999 V2000
    5.6796   -2.6396    0.3139 C   0  0  0  0  0  0  0  0  0  0  0  0
    4.7988   -1.5291    0.8970 C   0  0  0  0  0  0  0  0  0  0  0  0
    5.5250   -0.1957    0.7836 C   0  0  0  0  0  0  0  0  0  0  0  0
    4.6416    0.9239    1.3208 C   0  0  0  0  0  0  0  0  0  0  0  0
    3.3529    1.0152    0.4781 C   0  0  0  0  0  0  0  0  0  0  0  0
    2.5130    2.1429    1.0717 C   0  0  0  0  0  0  0  0  0  0  0  0
    1.0287    1.8616    1.1474 C   0  0  0  0  0  0  0  0  0  0  0  0
    0.5115    1.0497   -0.0240 C   0  0  0  0  0  0  0  0  0  0  0  0
    1.2642   -0.2475   -0.1281 C   0  0  0  0  0  0  0  0  0  0  0  0
    0.7299   -1.3233   -0.6555 C   0  0  0  0  0  0  0  0  0  0  0  0
   -0.7408   -1.2879   -1.0736 C   0  0  0  0  0  0  0  0  0  0  0  0
   -1.3984   -0.5504    0.0928 C   0  0  0  0  0  0  0  0  0  0  0  0
   -1.0088    0.9059    0.0345 C   0  0  0  0  0  0  0  0  0  0  0  0
   -1.6445    1.7115    1.1444 C   0  0  0  0  0  0  0  0  0  0  0  0
   -3.1498    1.4714    1.2777 C   0  0  0  0  0  0  0  0  0  0  0  0
   -3.6876    0.4470    0.2966 C   0  0  0  0  0  0  0  0  0  0  0  0
   -2.8722   -0.8330    0.3068 C   0  0  0  0  0  0  0  0  0  0  0  0
   -3.4002   -1.7895   -0.7662 C   0  0  0  0  0  0  0  0  0  0  0  0
   -4.8770   -2.0859   -0.5077 C   0  0  0  0  0  0  0  0  0  0  0  0
   -5.6976   -0.8053   -0.5656 C   0  0  0  0  0  0  0  0  0  0  0  0
   -5.1936    0.2564    0.4114 C   0  0  0  0  0  0  0  0  0  0  0  0
   -5.6695   -0.0463    1.8265 C   0  0  0  0  0  0  0  0  0  0  0  0
   -5.8628    1.5874   -0.0163 C   0  0  0  0  0  0  0  0  0  0  0  0
   -5.6538   -0.2743   -1.8972 O   0  0  0  0  0  0  0  0  0  0  0  0
   -2.9707   -1.5451    1.6716 C   0  0  0  0  0  0  0  0  0  0  0  0
   -1.4297    1.5243   -1.3037 C   0  0  0  0  0  0  0  0  0  0  0  0
    2.6262   -0.3117    0.5285 C   0  0  0  0  0  0  0  0  0  0  0  0
    3.4602   -1.5142    0.1462 C   0  0  0  0  0  0  0  0  0  0  0  0
    3.7254   -1.6389   -1.3517 C   0  0  0  0  0  0  0  0  0  0  0  0
    2.7712   -2.7129    0.5728 O   0  0  0  0  0  0  0  0  0  0  0  0
    0.7379    1.8467   -1.3151 C   0  0  0  0  0  0  0  0  0  0  0  0
    3.7650    1.4206   -0.9123 C   0  0  0  0  0  0  0  0  0  0  0  0
    3.3770    0.7881   -1.8659 O   0  0  0  0  0  0  0  0  0  0  0  0
    4.5632    2.4846   -1.0923 O   0  0  0  0  0  0  0  0  0  0  0  0
    6.6175   -2.6877    0.8672 H   0  0  0  0  0  0  0  0  0  0  0  0
    5.1608   -3.5948    0.3945 H   0  0  0  0  0  0  0  0  0  0  0  0
    5.8869   -2.4261   -0.7347 H   0  0  0  0  0  0  0  0  0  0  0  0
    4.6061   -1.7478    1.9493 H   0  0  0  0  0  0  0  0  0  0  0  0
    6.4399   -0.2394    1.3944 H   0  0  0  0  0  0  0  0  0  0  0  0
    5.8285   -0.0062   -0.2434 H   0  0  0  0  0  0  0  0  0  0  0  0
    4.3709    0.7174    2.3535 H   0  0  0  0  0  0  0  0  0  0  0  0
    5.1669    1.8743    1.2589 H   0  0  0  0  0  0  0  0  0  0  0  0
    2.8858    2.3406    2.0815 H   0  0  0  0  0  0  0  0  0  0  0  0
    2.6769    3.0427    0.4756 H   0  0  0  0  0  0  0  0  0  0  0  0
    0.8173    1.3302    2.0816 H   0  0  0  0  0  0  0  0  0  0  0  0
    0.4949    2.8195    1.1830 H   0  0  0  0  0  0  0  0  0  0  0  0
    1.2732   -2.2338   -0.8188 H   0  0  0  0  0  0  0  0  0  0  0  0
   -0.8528   -0.7887   -2.0201 H   0  0  0  0  0  0  0  0  0  0  0  0
   -1.1101   -2.3121   -1.1360 H   0  0  0  0  0  0  0  0  0  0  0  0
   -0.8950   -0.9595    1.0120 H   0  0  0  0  0  0  0  0  0  0  0  0
   -1.1633    1.4824    2.1008 H   0  0  0  0  0  0  0  0  0  0  0  0
   -1.4837    2.7818    0.9440 H   0  0  0  0  0  0  0  0  0  0  0  0
   -3.3658    1.1698    2.3071 H   0  0  0  0  0  0  0  0  0  0  0  0
   -3.6499    2.4387    1.1140 H   0  0  0  0  0  0  0  0  0  0  0  0
   -3.5960    0.8812   -0.7270 H   0  0  0  0  0  0  0  0  0  0  0  0
   -3.2832   -1.3269   -1.7459 H   0  0  0  0  0  0  0  0  0  0  0  0
   -2.8337   -2.7199   -0.7346 H   0  0  0  0  0  0  0  0  0  0  0  0
   -5.2306   -2.7639   -1.2993 H   0  0  0  0  0  0  0  0  0  0  0  0
   -5.0168   -2.5910    0.4422 H   0  0  0  0  0  0  0  0  0  0  0  0
   -6.7420   -1.0365   -0.3266 H   0  0  0  0  0  0  0  0  0  0  0  0
   -5.3410   -1.0449    2.1145 H   0  0  0  0  0  0  0  0  0  0  0  0
   -5.2500    0.6869    2.5155 H   0  0  0  0  0  0  0  0  0  0  0  0
   -6.7578    0.0026    1.8622 H   0  0  0  0  0  0  0  0  0  0  0  0
   -6.9464    1.4841    0.0407 H   0  0  0  0  0  0  0  0  0  0  0  0
   -5.5385    2.3874    0.6493 H   0  0  0  0  0  0  0  0  0  0  0  0
   -5.5740    1.8268   -1.0397 H   0  0  0  0  0  0  0  0  0  0  0  0
   -6.0064   -0.8719   -2.5707 H   0  0  0  0  0  0  0  0  0  0  0  0
   -3.9838   -1.9217    1.8125 H   0  0  0  0  0  0  0  0  0  0  0  0
   -2.2668   -2.3768    1.6991 H   0  0  0  0  0  0  0  0  0  0  0  0
   -2.7313   -0.8399    2.4675 H   0  0  0  0  0  0  0  0  0  0  0  0
   -2.5176    1.5542   -1.3640 H   0  0  0  0  0  0  0  0  0  0  0  0
   -1.0338    2.5373   -1.3763 H   0  0  0  0  0  0  0  0  0  0  0  0
   -1.0368    0.9211   -2.1222 H   0  0  0  0  0  0  0  0  0  0  0  0
    2.3911   -0.4669    1.6282 H   0  0  0  0  0  0  0  0  0  0  0  0
    4.4548   -0.8879   -1.6553 H   0  0  0  0  0  0  0  0  0  0  0  0
    4.1151   -2.6331   -1.5702 H   0  0  0  0  0  0  0  0  0  0  0  0
    2.7957   -1.4846   -1.8994 H   0  0  0  0  0  0  0  0  0  0  0  0
    3.2412   -3.5319    0.3645 H   0  0  0  0  0  0  0  0  0  0  0  0
    1.8076    1.9336   -1.5057 H   0  0  0  0  0  0  0  0  0  0  0  0
    0.2610    1.3311   -2.1487 H   0  0  0  0  0  0  0  0  0  0  0  0
    0.3059    2.8418   -1.2084 H   0  0  0  0  0  0  0  0  0  0  0  0
    4.8007    2.7061   -2.0032 H   0  0  0  0  0  0  0  0  0  0  0  0
  1  2  1  0  0  0  0
  2  3  1  0  0  0  0
  3  4  1  0  0  0  0
  4  5  1  0  0  0  0
  5  6  1  0  0  0  0
  6  7  1  0  0  0  0
  7  8  1  0  0  0  0
  8  9  1  0  0  0  0
  9 10  2  0  0  0  0
 10 11  1  0  0  0  0
 11 12  1  0  0  0  0
 12 13  1  0  0  0  0
  8 13  1  0  0  0  0
 13 14  1  0  0  0  0
 14 15  1  0  0  0  0
 15 16  1  0  0  0  0
 16 17  1  0  0  0  0
 12 17  1  0  0  0  0
 17 18  1  0  0  0  0
 18 19  1  0  0  0  0
 19 20  1  0  0  0  0
 20 21  1  0  0  0  0
 16 21  1  0  0  0  0
 21 22  1  0  0  0  0
 21 23  1  0  0  0  0
 20 24  1  0  0  0  0
 17 25  1  0  0  0  0
 13 26  1  0  0  0  0
  9 27  1  0  0  0  0
  5 27  1  0  0  0  0
 27 28  1  0  0  0  0
  2 28  1  0  0  0  0
 28 29  1  0  0  0  0
 28 30  1  0  0  0  0
  8 31  1  0  0  0  0
  5 32  1  0  0  0  0
 32 33  2  0  0  0  0
 32 34  1  0  0  0  0
  1 35  1  0  0  0  0
  1 36  1  0  0  0  0
  1 37  1  0  0  0  0
  2 38  1  0  0  0  0
  3 39  1  0  0  0  0
  3 40  1  0  0  0  0
  4 41  1  0  0  0  0
  4 42  1  0  0  0  0
  6 43  1  0  0  0  0
  6 44  1  0  0  0  0
  7 45  1  0  0  0  0
  7 46  1  0  0  0  0
 10 47  1  0  0  0  0
 11 48  1  0  0  0  0
 11 49  1  0  0  0  0
 12 50  1  0  0  0  0
 14 51  1  0  0  0  0
 14 52  1  0  0  0  0
 15 53  1  0  0  0  0
 15 54  1  0  0  0  0
 16 55  1  0  0  0  0
 18 56  1  0  0  0  0
 18 57  1  0  0  0  0
 19 58  1  0  0  0  0
 19 59  1  0  0  0  0
 20 60  1  0  0  0  0
 22 61  1  0  0  0  0
 22 62  1  0  0  0  0
 22 63  1  0  0  0  0
 23 64  1  0  0  0  0
 23 65  1  0  0  0  0
 23 66  1  0  0  0  0
 24 67  1  0  0  0  0
 25 68  1  0  0  0  0
 25 69  1  0  0  0  0
 25 70  1  0  0  0  0
 26 71  1  0  0  0  0
 26 72  1  0  0  0  0
 26 73  1  0  0  0  0
 27 74  1  0  0  0  0
 29 75  1  0  0  0  0
 29 76  1  0  0  0  0
 29 77  1  0  0  0  0
 30 78  1  0  0  0  0
 31 79  1  0  0  0  0
 31 80  1  0  0  0  0
 31 81  1  0  0  0  0
 34 82  1  0  0  0  0
M  END
$$$$
