C21H22O8
APtclcactv06211806493D 0   0.00000     0.00000
 
 51 53  0  0  0  0  0  0  0  0999 V2000
    7.0870    0.5148   -1.2506 C   0  0  0  0  0  0  0  0  0  0  0  0
    6.3562   -0.4044   -0.4363 O   0  0  0  0  0  0  0  0  0  0  0  0
    5.0105   -0.2298   -0.3644 C   0  0  0  0  0  0  0  0  0  0  0  0
    4.2384   -1.0917    0.4124 C   0  0  0  0  0  0  0  0  0  0  0  0
    2.8699   -0.9158    0.4869 C   0  0  0  0  0  0  0  0  0  0  0  0
    2.2633    0.1279   -0.2178 C   0  0  0  0  0  0  0  0  0  0  0  0
    3.0441    0.9886   -0.9943 C   0  0  0  0  0  0  0  0  0  0  0  0
    4.4092    0.8098   -1.0599 C   0  0  0  0  0  0  0  0  0  0  0  0
    0.8033    0.3200   -0.1424 C   0  0  0  0  0  0  0  0  0  0  0  0
    0.3176    1.5712    0.0933 C   0  0  0  0  0  0  0  0  0  0  0  0
   -1.0847    1.7729    0.1687 C   0  0  0  0  0  0  0  0  0  0  0  0
   -1.5558    2.8795    0.3780 O   0  0  0  0  0  0  0  0  0  0  0  0
   -1.9493    0.5963   -0.0157 C   0  0  0  0  0  0  0  0  0  0  0  0
   -3.3442    0.7044    0.0423 C   0  0  0  0  0  0  0  0  0  0  0  0
   -4.1239   -0.4269   -0.1369 C   0  0  0  0  0  0  0  0  0  0  0  0
   -3.5207   -1.6609   -0.3728 C   0  0  0  0  0  0  0  0  0  0  0  0
   -2.1407   -1.7723   -0.4305 C   0  0  0  0  0  0  0  0  0  0  0  0
   -1.3447   -0.6509   -0.2540 C   0  0  0  0  0  0  0  0  0  0  0  0
    0.0009   -0.7442   -0.3141 O   0  0  0  0  0  0  0  0  0  0  0  0
   -4.2928   -2.7649   -0.5473 O   0  0  0  0  0  0  0  0  0  0  0  0
   -3.6145   -3.9999   -0.7855 C   0  0  0  0  0  0  0  0  0  0  0  0
   -5.4810   -0.3329   -0.0819 O   0  0  0  0  0  0  0  0  0  0  0  0
   -6.1004   -0.6136    1.1749 C   0  0  0  0  0  0  0  0  0  0  0  0
   -3.9285    1.9088    0.2729 O   0  0  0  0  0  0  0  0  0  0  0  0
   -4.3510    2.6544   -0.8706 C   0  0  0  0  0  0  0  0  0  0  0  0
    1.1709    2.6189    0.2556 O   0  0  0  0  0  0  0  0  0  0  0  0
    1.2067    3.2327    1.5455 C   0  0  0  0  0  0  0  0  0  0  0  0
    4.8318   -2.1061    1.0967 O   0  0  0  0  0  0  0  0  0  0  0  0
    3.9796   -2.9509    1.8726 C   0  0  0  0  0  0  0  0  0  0  0  0
    6.7284    0.4545   -2.2782 H   0  0  0  0  0  0  0  0  0  0  0  0
    6.9427    1.5276   -0.8744 H   0  0  0  0  0  0  0  0  0  0  0  0
    8.1472    0.2636   -1.2204 H   0  0  0  0  0  0  0  0  0  0  0  0
    2.2703   -1.5835    1.0879 H   0  0  0  0  0  0  0  0  0  0  0  0
    2.5782    1.7959   -1.5399 H   0  0  0  0  0  0  0  0  0  0  0  0
    5.0115    1.4758   -1.6601 H   0  0  0  0  0  0  0  0  0  0  0  0
   -1.6845   -2.7340   -0.6133 H   0  0  0  0  0  0  0  0  0  0  0  0
   -4.3462   -4.7987   -0.9070 H   0  0  0  0  0  0  0  0  0  0  0  0
   -3.0144   -3.9160   -1.6915 H   0  0  0  0  0  0  0  0  0  0  0  0
   -2.9656   -4.2270    0.0604 H   0  0  0  0  0  0  0  0  0  0  0  0
   -5.7940   -1.6016    1.5184 H   0  0  0  0  0  0  0  0  0  0  0  0
   -5.7958    0.1358    1.9055 H   0  0  0  0  0  0  0  0  0  0  0  0
   -7.1840   -0.5890    1.0594 H   0  0  0  0  0  0  0  0  0  0  0  0
   -5.1488    2.1153   -1.3813 H   0  0  0  0  0  0  0  0  0  0  0  0
   -4.7177    3.6304   -0.5527 H   0  0  0  0  0  0  0  0  0  0  0  0
   -3.5088    2.7863   -1.5499 H   0  0  0  0  0  0  0  0  0  0  0  0
    1.8602    4.1045    1.5151 H   0  0  0  0  0  0  0  0  0  0  0  0
    0.2007    3.5425    1.8286 H   0  0  0  0  0  0  0  0  0  0  0  0
    1.5865    2.5193    2.2769 H   0  0  0  0  0  0  0  0  0  0  0  0
    4.5785   -3.7165    2.3660 H   0  0  0  0  0  0  0  0  0  0  0  0
    3.4626   -2.3539    2.6239 H   0  0  0  0  0  0  0  0  0  0  0  0
    3.2477   -3.4267    1.2199 H   0  0  0  0  0  0  0  0  0  0  0  0
  1  2  1  0  0  0  0
  2  3  1  0  0  0  0
  3  4  2  0  0  0  0
  4  5  1  0  0  0  0
  5  6  2  0  0  0  0
  6  7  1  0  0  0  0
  7  8  2  0  0  0  0
  3  8  1  0  0  0  0
  6  9  1  0  0  0  0
  9 10  2  0  0  0  0
 10 11  1  0  0  0  0
 11 12  2  0  0  0  0
 11 13  1  0  0  0  0
 13 14  2  0  0  0  0
 14 15  1  0  0  0  0
 15 16  2  0  0  0  0
 16 17  1  0  0  0  0
 17 18  2  0  0  0  0
 13 18  1  0  0  0  0
 18 19  1  0  0  0  0
  9 19  1  0  0  0  0
 16 20  1  0  0  0  0
 20 21  1  0  0  0  0
 15 22  1  0  0  0  0
 22 23  1  0  0  0  0
 14 24  1  0  0  0  0
 24 25  1  0  0  0  0
 10 26  1  0  0  0  0
 26 27  1  0  0  0  0
  4 28  1  0  0  0  0
 28 29  1  0  0  0  0
  1 30  1  0  0  0  0
  1 31  1  0  0  0  0
  1 32  1  0  0  0  0
  5 33  1  0  0  0  0
  7 34  1  0  0  0  0
  8 35  1  0  0  0  0
 17 36  1  0  0  0  0
 21 37  1  0  0  0  0
 21 38  1  0  0  0  0
 21 39  1  0  0  0  0
 23 40  1  0  0  0  0
 23 41  1  0  0  0  0
 23 42  1  0  0  0  0
 25 43  1  0  0  0  0
 25 44  1  0  0  0  0
 25 45  1  0  0  0  0
 27 46  1  0  0  0  0
 27 47  1  0  0  0  0
 27 48  1  0  0  0  0
 29 49  1  0  0  0  0
 29 50  1  0  0  0  0
 29 51  1  0  0  0  0
M  END
$$$$
