C20H18O8
APtclcactv06211806493D 0   0.00000     0.00000
 
 46 49  0  0  0  0  0  0  0  0999 V2000
    5.3615    2.1746   -0.1627 C   0  0  0  0  0  0  0  0  0  0  0  0
    3.9356    2.1274   -0.0807 O   0  0  0  0  0  0  0  0  0  0  0  0
    3.3590    0.8980   -0.0707 C   0  0  0  0  0  0  0  0  0  0  0  0
    4.1428   -0.2383   -0.1381 C   0  0  0  0  0  0  0  0  0  0  0  0
    3.5524   -1.4973   -0.1280 C   0  0  0  0  0  0  0  0  0  0  0  0
    2.1724   -1.6305   -0.0504 C   0  0  0  0  0  0  0  0  0  0  0  0
    1.3685   -0.4990    0.0181 C   0  0  0  0  0  0  0  0  0  0  0  0
    1.9663    0.7734    0.0137 C   0  0  0  0  0  0  0  0  0  0  0  0
    1.0970    1.9587    0.0870 C   0  0  0  0  0  0  0  0  0  0  0  0
    1.5622    3.0873    0.0862 O   0  0  0  0  0  0  0  0  0  0  0  0
   -0.3029    1.7387    0.1582 C   0  0  0  0  0  0  0  0  0  0  0  0
   -0.7821    0.4630    0.1560 C   0  0  0  0  0  0  0  0  0  0  0  0
    0.0249   -0.6100    0.0945 O   0  0  0  0  0  0  0  0  0  0  0  0
   -2.2395    0.2519    0.2305 C   0  0  0  0  0  0  0  0  0  0  0  0
   -2.8652   -0.6345   -0.6505 C   0  0  0  0  0  0  0  0  0  0  0  0
   -4.2310   -0.8296   -0.5769 C   0  0  0  0  0  0  0  0  0  0  0  0
   -4.9832   -0.1420    0.3759 C   0  0  0  0  0  0  0  0  0  0  0  0
   -4.3611    0.7383    1.2506 C   0  0  0  0  0  0  0  0  0  0  0  0
   -2.9984    0.9333    1.1862 C   0  0  0  0  0  0  0  0  0  0  0  0
   -6.2914   -0.5060    0.2424 O   0  0  0  0  0  0  0  0  0  0  0  0
   -6.2759   -1.7247   -0.5239 C   0  0  0  0  0  0  0  0  0  0  0  0
   -5.0705   -1.6232   -1.3047 O   0  0  0  0  0  0  0  0  0  0  0  0
   -1.1602    2.7933    0.2284 O   0  0  0  0  0  0  0  0  0  0  0  0
   -1.2299    3.6499   -0.9132 C   0  0  0  0  0  0  0  0  0  0  0  0
    1.6071   -2.8693   -0.0418 O   0  0  0  0  0  0  0  0  0  0  0  0
    1.4116   -3.4844    1.2332 C   0  0  0  0  0  0  0  0  0  0  0  0
    4.3330   -2.6073   -0.1952 O   0  0  0  0  0  0  0  0  0  0  0  0
    5.7452   -2.4035   -0.2738 C   0  0  0  0  0  0  0  0  0  0  0  0
    5.6913    3.2135   -0.1620 H   0  0  0  0  0  0  0  0  0  0  0  0
    5.7921    1.6561    0.6939 H   0  0  0  0  0  0  0  0  0  0  0  0
    5.6887    1.6902   -1.0827 H   0  0  0  0  0  0  0  0  0  0  0  0
    5.2173   -0.1482   -0.1992 H   0  0  0  0  0  0  0  0  0  0  0  0
   -2.2819   -1.1658   -1.3880 H   0  0  0  0  0  0  0  0  0  0  0  0
   -4.9464    1.2688    1.9870 H   0  0  0  0  0  0  0  0  0  0  0  0
   -2.5181    1.6189    1.8687 H   0  0  0  0  0  0  0  0  0  0  0  0
   -6.2329   -2.5913    0.1358 H   0  0  0  0  0  0  0  0  0  0  0  0
   -7.1494   -1.7797   -1.1736 H   0  0  0  0  0  0  0  0  0  0  0  0
   -2.0178    4.3885   -0.7657 H   0  0  0  0  0  0  0  0  0  0  0  0
   -0.2749    4.1586   -1.0446 H   0  0  0  0  0  0  0  0  0  0  0  0
   -1.4502    3.0559   -1.8002 H   0  0  0  0  0  0  0  0  0  0  0  0
    0.9547   -4.4647    1.0974 H   0  0  0  0  0  0  0  0  0  0  0  0
    2.3735   -3.5980    1.7330 H   0  0  0  0  0  0  0  0  0  0  0  0
    0.7575   -2.8597    1.8415 H   0  0  0  0  0  0  0  0  0  0  0  0
    6.2494   -3.3686   -0.3220 H   0  0  0  0  0  0  0  0  0  0  0  0
    5.9797   -1.8260   -1.1680 H   0  0  0  0  0  0  0  0  0  0  0  0
    6.0836   -1.8604    0.6086 H   0  0  0  0  0  0  0  0  0  0  0  0
  1  2  1  0  0  0  0
  2  3  1  0  0  0  0
  3  4  2  0  0  0  0
  4  5  1  0  0  0  0
  5  6  2  0  0  0  0
  6  7  1  0  0  0  0
  7  8  2  0  0  0  0
  3  8  1  0  0  0  0
  8  9  1  0  0  0  0
  9 10  2  0  0  0  0
  9 11  1  0  0  0  0
 11 12  2  0  0  0  0
 12 13  1  0  0  0  0
  7 13  1  0  0  0  0
 12 14  1  0  0  0  0
 14 15  2  0  0  0  0
 15 16  1  0  0  0  0
 16 17  2  0  0  0  0
 17 18  1  0  0  0  0
 18 19  2  0  0  0  0
 14 19  1  0  0  0  0
 17 20  1  0  0  0  0
 20 21  1  0  0  0  0
 21 22  1  0  0  0  0
 16 22  1  0  0  0  0
 11 23  1  0  0  0  0
 23 24  1  0  0  0  0
  6 25  1  0  0  0  0
 25 26  1  0  0  0  0
  5 27  1  0  0  0  0
 27 28  1  0  0  0  0
  1 29  1  0  0  0  0
  1 30  1  0  0  0  0
  1 31  1  0  0  0  0
  4 32  1  0  0  0  0
 15 33  1  0  0  0  0
 18 34  1  0  0  0  0
 19 35  1  0  0  0  0
 21 36  1  0  0  0  0
 21 37  1  0  0  0  0
 24 38  1  0  0  0  0
 24 39  1  0  0  0  0
 24 40  1  0  0  0  0
 26 41  1  0  0  0  0
 26 42  1  0  0  0  0
 26 43  1  0  0  0  0
 28 44  1  0  0  0  0
 28 45  1  0  0  0  0
 28 46  1  0  0  0  0
M  END
$$$$
