C15H8N2O
APtclcactv06211806493D 0   0.00000     0.00000
 
 26 29  0  0  0  0  0  0  0  0999 V2000
   -3.6762    1.2388    0.0007 C   0  0  0  0  0  0  0  0  0  0  0  0
   -4.0024   -0.1073    0.0006 C   0  0  0  0  0  0  0  0  0  0  0  0
   -3.0111   -1.0675    0.0001 C   0  0  0  0  0  0  0  0  0  0  0  0
   -1.6705   -0.6810   -0.0004 C   0  0  0  0  0  0  0  0  0  0  0  0
   -1.3396    0.6876   -0.0004 C   0  0  0  0  0  0  0  0  0  0  0  0
   -2.3546    1.6404    0.0002 C   0  0  0  0  0  0  0  0  0  0  0  0
    0.0775    1.1047   -0.0004 C   0  0  0  0  0  0  0  0  0  0  0  0
    0.4068    2.3858   -0.0003 N   0  0  0  0  0  0  0  0  0  0  0  0
    1.6630    2.7986    0.0002 C   0  0  0  0  0  0  0  0  0  0  0  0
    2.7163    1.9269    0.0000 C   0  0  0  0  0  0  0  0  0  0  0  0
    2.4486    0.5481   -0.0001 C   0  0  0  0  0  0  0  0  0  0  0  0
    1.0946    0.1278   -0.0002 C   0  0  0  0  0  0  0  0  0  0  0  0
    0.8096   -1.2522   -0.0001 C   0  0  0  0  0  0  0  0  0  0  0  0
    1.8002   -2.1273    0.0003 N   0  0  0  0  0  0  0  0  0  0  0  0
    3.0697   -1.7631    0.0005 C   0  0  0  0  0  0  0  0  0  0  0  0
    3.4494   -0.4365    0.0002 C   0  0  0  0  0  0  0  0  0  0  0  0
   -0.6016   -1.6977   -0.0003 C   0  0  0  0  0  0  0  0  0  0  0  0
   -0.8757   -2.8825   -0.0004 O   0  0  0  0  0  0  0  0  0  0  0  0
   -4.4615    1.9803   -0.0034 H   0  0  0  0  0  0  0  0  0  0  0  0
   -5.0398   -0.4077    0.0013 H   0  0  0  0  0  0  0  0  0  0  0  0
   -3.2724   -2.1154    0.0003 H   0  0  0  0  0  0  0  0  0  0  0  0
   -2.1090    2.6921   -0.0001 H   0  0  0  0  0  0  0  0  0  0  0  0
    1.8637    3.8598    0.0003 H   0  0  0  0  0  0  0  0  0  0  0  0
    3.7331    2.2910   -0.0003 H   0  0  0  0  0  0  0  0  0  0  0  0
    3.8336   -2.5265    0.0008 H   0  0  0  0  0  0  0  0  0  0  0  0
    4.4938   -0.1616    0.0004 H   0  0  0  0  0  0  0  0  0  0  0  0
  1  2  2  0  0  0  0
  2  3  1  0  0  0  0
  3  4  2  0  0  0  0
  4  5  1  0  0  0  0
  5  6  2  0  0  0  0
  1  6  1  0  0  0  0
  5  7  1  0  0  0  0
  7  8  2  0  0  0  0
  8  9  1  0  0  0  0
  9 10  2  0  0  0  0
 10 11  1  0  0  0  0
 11 12  2  0  0  0  0
  7 12  1  0  0  0  0
 12 13  1  0  0  0  0
 13 14  2  0  0  0  0
 14 15  1  0  0  0  0
 15 16  2  0  0  0  0
 11 16  1  0  0  0  0
 13 17  1  0  0  0  0
  4 17  1  0  0  0  0
 17 18  2  0  0  0  0
  1 19  1  0  0  0  0
  2 20  1  0  0  0  0
  3 21  1  0  0  0  0
  6 22  1  0  0  0  0
  9 23  1  0  0  0  0
 10 24  1  0  0  0  0
 15 25  1  0  0  0  0
 16 26  1  0  0  0  0
M  END
$$$$
