C12H24O2
APtclcactv06211804353D 0   0.00000     0.00000
 
 38 37  0  0  0  0  0  0  0  0999 V2000
    8.0044   -0.2467   -0.0000 C   0  0  0  0  0  0  0  0  0  0  0  0
    6.7222    0.5882    0.0000 C   0  0  0  0  0  0  0  0  0  0  0  0
    5.5077   -0.3424   -0.0000 C   0  0  0  0  0  0  0  0  0  0  0  0
    4.2256    0.4925    0.0000 C   0  0  0  0  0  0  0  0  0  0  0  0
    3.0111   -0.4381   -0.0000 C   0  0  0  0  0  0  0  0  0  0  0  0
    1.7289    0.3968    0.0000 C   0  0  0  0  0  0  0  0  0  0  0  0
    0.5144   -0.5338   -0.0000 C   0  0  0  0  0  0  0  0  0  0  0  0
   -0.7677    0.3011    0.0000 C   0  0  0  0  0  0  0  0  0  0  0  0
   -1.9822   -0.6294    0.0000 C   0  0  0  0  0  0  0  0  0  0  0  0
   -3.2644    0.2054    0.0000 C   0  0  0  0  0  0  0  0  0  0  0  0
   -4.4788   -0.7251    0.0000 C   0  0  0  0  0  0  0  0  0  0  0  0
   -5.7417    0.0972   -0.0000 C   0  0  0  0  0  0  0  0  0  0  0  0
   -5.6770    1.3037   -0.0000 O   0  0  0  0  0  0  0  0  0  0  0  0
   -6.9385   -0.5108    0.0000 O   0  0  0  0  0  0  0  0  0  0  0  0
    8.0285   -0.8755    0.8900 H   0  0  0  0  0  0  0  0  0  0  0  0
    8.0285   -0.8755   -0.8900 H   0  0  0  0  0  0  0  0  0  0  0  0
    8.8696    0.4162    0.0000 H   0  0  0  0  0  0  0  0  0  0  0  0
    6.6981    1.2170    0.8900 H   0  0  0  0  0  0  0  0  0  0  0  0
    6.6981    1.2170   -0.8900 H   0  0  0  0  0  0  0  0  0  0  0  0
    5.5318   -0.9712   -0.8900 H   0  0  0  0  0  0  0  0  0  0  0  0
    5.5318   -0.9712    0.8900 H   0  0  0  0  0  0  0  0  0  0  0  0
    4.2015    1.1213    0.8900 H   0  0  0  0  0  0  0  0  0  0  0  0
    4.2015    1.1213   -0.8900 H   0  0  0  0  0  0  0  0  0  0  0  0
    3.0352   -1.0669   -0.8900 H   0  0  0  0  0  0  0  0  0  0  0  0
    3.0352   -1.0669    0.8900 H   0  0  0  0  0  0  0  0  0  0  0  0
    1.7048    1.0256    0.8900 H   0  0  0  0  0  0  0  0  0  0  0  0
    1.7048    1.0256   -0.8900 H   0  0  0  0  0  0  0  0  0  0  0  0
    0.5386   -1.1626   -0.8900 H   0  0  0  0  0  0  0  0  0  0  0  0
    0.5386   -1.1626    0.8900 H   0  0  0  0  0  0  0  0  0  0  0  0
   -0.7918    0.9300    0.8900 H   0  0  0  0  0  0  0  0  0  0  0  0
   -0.7918    0.9300   -0.8900 H   0  0  0  0  0  0  0  0  0  0  0  0
   -1.9581   -1.2583   -0.8900 H   0  0  0  0  0  0  0  0  0  0  0  0
   -1.9581   -1.2583    0.8900 H   0  0  0  0  0  0  0  0  0  0  0  0
   -3.2885    0.8343    0.8900 H   0  0  0  0  0  0  0  0  0  0  0  0
   -3.2885    0.8343   -0.8900 H   0  0  0  0  0  0  0  0  0  0  0  0
   -4.4547   -1.3540   -0.8900 H   0  0  0  0  0  0  0  0  0  0  0  0
   -4.4547   -1.3540    0.8900 H   0  0  0  0  0  0  0  0  0  0  0  0
   -7.7201    0.0586   -0.0000 H   0  0  0  0  0  0  0  0  0  0  0  0
  1  2  1  0  0  0  0
  2  3  1  0  0  0  0
  3  4  1  0  0  0  0
  4  5  1  0  0  0  0
  5  6  1  0  0  0  0
  6  7  1  0  0  0  0
  7  8  1  0  0  0  0
  8  9  1  0  0  0  0
  9 10  1  0  0  0  0
 10 11  1  0  0  0  0
 11 12  1  0  0  0  0
 12 13  2  0  0  0  0
 12 14  1  0  0  0  0
  1 15  1  0  0  0  0
  1 16  1  0  0  0  0
  1 17  1  0  0  0  0
  2 18  1  0  0  0  0
  2 19  1  0  0  0  0
  3 20  1  0  0  0  0
  3 21  1  0  0  0  0
  4 22  1  0  0  0  0
  4 23  1  0  0  0  0
  5 24  1  0  0  0  0
  5 25  1  0  0  0  0
  6 26  1  0  0  0  0
  6 27  1  0  0  0  0
  7 28  1  0  0  0  0
  7 29  1  0  0  0  0
  8 30  1  0  0  0  0
  8 31  1  0  0  0  0
  9 32  1  0  0  0  0
  9 33  1  0  0  0  0
 10 34  1  0  0  0  0
 10 35  1  0  0  0  0
 11 36  1  0  0  0  0
 11 37  1  0  0  0  0
 14 38  1  0  0  0  0
M  END
$$$$
