C23H24O5
APtclcactv06211806493D 0   0.00000     0.00000
 
 52 54  0  0  0  0  0  0  0  0999 V2000
   -5.5772   -0.7930    0.2733 C   0  0  0  0  0  0  0  0  0  0  0  0
   -4.7519   -1.8771    0.9172 C   0  0  0  0  0  0  0  0  0  0  0  0
   -3.6267   -2.2587    0.3655 C   0  0  0  0  0  0  0  0  0  0  0  0
   -3.1170   -1.5591   -0.8681 C   0  0  0  0  0  0  0  0  0  0  0  0
   -1.7620   -0.9638   -0.5843 C   0  0  0  0  0  0  0  0  0  0  0  0
   -0.6185   -1.7064   -0.8145 C   0  0  0  0  0  0  0  0  0  0  0  0
    0.6356   -1.1435   -0.5433 C   0  0  0  0  0  0  0  0  0  0  0  0
    0.7381    0.1714   -0.0554 C   0  0  0  0  0  0  0  0  0  0  0  0
   -0.4230    0.8975    0.1705 C   0  0  0  0  0  0  0  0  0  0  0  0
   -1.6613    0.3345   -0.0963 C   0  0  0  0  0  0  0  0  0  0  0  0
   -2.7887    1.0550    0.1309 O   0  0  0  0  0  0  0  0  0  0  0  0
   -0.3370    2.3049    0.7023 C   0  0  0  0  0  0  0  0  0  0  0  0
   -0.2549    3.2730   -0.4498 C   0  0  0  0  0  0  0  0  0  0  0  0
   -1.1085    4.2630   -0.5355 C   0  0  0  0  0  0  0  0  0  0  0  0
   -2.2538    4.3569    0.4395 C   0  0  0  0  0  0  0  0  0  0  0  0
   -0.9452    5.3079   -1.6091 C   0  0  0  0  0  0  0  0  0  0  0  0
    1.9402    0.7317    0.1866 O   0  0  0  0  0  0  0  0  0  0  0  0
    3.0633   -0.0080    0.2902 C   0  0  0  0  0  0  0  0  0  0  0  0
    3.1022   -1.3336   -0.1640 C   0  0  0  0  0  0  0  0  0  0  0  0
    1.8746   -1.9131   -0.7529 C   0  0  0  0  0  0  0  0  0  0  0  0
    1.8876   -2.9610   -1.3730 O   0  0  0  0  0  0  0  0  0  0  0  0
    4.2718   -2.0851   -0.0572 C   0  0  0  0  0  0  0  0  0  0  0  0
    5.3969   -1.5205    0.5034 C   0  0  0  0  0  0  0  0  0  0  0  0
    5.3662   -0.2112    0.9589 C   0  0  0  0  0  0  0  0  0  0  0  0
    4.2136    0.5450    0.8567 C   0  0  0  0  0  0  0  0  0  0  0  0
    4.1999    1.8276    1.3081 O   0  0  0  0  0  0  0  0  0  0  0  0
   -0.7103   -2.9703   -1.2989 O   0  0  0  0  0  0  0  0  0  0  0  0
   -5.2211   -2.5223    2.1958 C   0  0  0  0  0  0  0  0  0  0  0  0
   -5.7920   -1.0652   -0.7600 H   0  0  0  0  0  0  0  0  0  0  0  0
   -6.5127   -0.6753    0.8201 H   0  0  0  0  0  0  0  0  0  0  0  0
   -5.0237    0.1458    0.2941 H   0  0  0  0  0  0  0  0  0  0  0  0
   -3.0643   -3.0747    0.7948 H   0  0  0  0  0  0  0  0  0  0  0  0
   -3.0350   -2.2763   -1.6848 H   0  0  0  0  0  0  0  0  0  0  0  0
   -3.8106   -0.7665   -1.1490 H   0  0  0  0  0  0  0  0  0  0  0  0
   -3.0807    1.5783   -0.6281 H   0  0  0  0  0  0  0  0  0  0  0  0
   -1.2234    2.5232    1.2978 H   0  0  0  0  0  0  0  0  0  0  0  0
    0.5524    2.4045    1.3245 H   0  0  0  0  0  0  0  0  0  0  0  0
    0.5076    3.1506   -1.2047 H   0  0  0  0  0  0  0  0  0  0  0  0
   -1.9158    4.8507    1.3505 H   0  0  0  0  0  0  0  0  0  0  0  0
   -3.0645    4.9330   -0.0067 H   0  0  0  0  0  0  0  0  0  0  0  0
   -2.6095    3.3550    0.6798 H   0  0  0  0  0  0  0  0  0  0  0  0
   -0.0683    5.0744   -2.2129 H   0  0  0  0  0  0  0  0  0  0  0  0
   -1.8313    5.3182   -2.2438 H   0  0  0  0  0  0  0  0  0  0  0  0
   -0.8180    6.2868   -1.1469 H   0  0  0  0  0  0  0  0  0  0  0  0
    4.2957   -3.1049   -0.4119 H   0  0  0  0  0  0  0  0  0  0  0  0
    6.3046   -2.0993    0.5886 H   0  0  0  0  0  0  0  0  0  0  0  0
    6.2523    0.2225    1.3983 H   0  0  0  0  0  0  0  0  0  0  0  0
    4.4522    2.4817    0.6421 H   0  0  0  0  0  0  0  0  0  0  0  0
   -0.6994   -3.0233   -2.2644 H   0  0  0  0  0  0  0  0  0  0  0  0
   -5.8414   -3.3870    1.9601 H   0  0  0  0  0  0  0  0  0  0  0  0
   -4.3579   -2.8426    2.7792 H   0  0  0  0  0  0  0  0  0  0  0  0
   -5.8033   -1.8039    2.7729 H   0  0  0  0  0  0  0  0  0  0  0  0
  1  2  1  0  0  0  0
  2  3  2  0  0  0  0
  3  4  1  0  0  0  0
  4  5  1  0  0  0  0
  5  6  2  0  0  0  0
  6  7  1  0  0  0  0
  7  8  2  0  0  0  0
  8  9  1  0  0  0  0
  9 10  2  0  0  0  0
  5 10  1  0  0  0  0
 10 11  1  0  0  0  0
  9 12  1  0  0  0  0
 12 13  1  0  0  0  0
 13 14  2  0  0  0  0
 14 15  1  0  0  0  0
 14 16  1  0  0  0  0
  8 17  1  0  0  0  0
 17 18  1  0  0  0  0
 18 19  2  0  0  0  0
 19 20  1  0  0  0  0
  7 20  1  0  0  0  0
 20 21  2  0  0  0  0
 19 22  1  0  0  0  0
 22 23  2  0  0  0  0
 23 24  1  0  0  0  0
 24 25  2  0  0  0  0
 18 25  1  0  0  0  0
 25 26  1  0  0  0  0
  6 27  1  0  0  0  0
  2 28  1  0  0  0  0
  1 29  1  0  0  0  0
  1 30  1  0  0  0  0
  1 31  1  0  0  0  0
  3 32  1  0  0  0  0
  4 33  1  0  0  0  0
  4 34  1  0  0  0  0
 11 35  1  0  0  0  0
 12 36  1  0  0  0  0
 12 37  1  0  0  0  0
 13 38  1  0  0  0  0
 15 39  1  0  0  0  0
 15 40  1  0  0  0  0
 15 41  1  0  0  0  0
 16 42  1  0  0  0  0
 16 43  1  0  0  0  0
 16 44  1  0  0  0  0
 22 45  1  0  0  0  0
 23 46  1  0  0  0  0
 24 47  1  0  0  0  0
 26 48  1  0  0  0  0
 27 49  1  0  0  0  0
 28 50  1  0  0  0  0
 28 51  1  0  0  0  0
 28 52  1  0  0  0  0
M  END
$$$$
