C30H48O4
APtclcactv06281816393D 0   0.00000     0.00000
 
 82 86  0  0  0  0  0  0  0  0999 V2000
    5.4442   -1.4704   -1.8045 C   0  0  0  0  0  0  0  0  0  0  0  0
    5.0108   -1.5035   -0.3370 C   0  0  0  0  0  0  0  0  0  0  0  0
    5.5040   -0.2511    0.3792 C   0  0  0  0  0  0  0  0  0  0  0  0
    4.7587    1.0009   -0.0688 C   0  0  0  0  0  0  0  0  0  0  0  0
    3.2493    0.8249    0.1170 C   0  0  0  0  0  0  0  0  0  0  0  0
    2.8013   -0.3747   -0.7199 C   0  0  0  0  0  0  0  0  0  0  0  0
    3.4917   -1.6430   -0.2437 C   0  0  0  0  0  0  0  0  0  0  0  0
    1.2914   -0.4915   -0.6013 C   0  0  0  0  0  0  0  0  0  0  0  0
    0.7703   -1.6058   -0.1833 C   0  0  0  0  0  0  0  0  0  0  0  0
   -0.7196   -1.7827   -0.0078 C   0  0  0  0  0  0  0  0  0  0  0  0
   -1.3037   -0.4007    0.2773 C   0  0  0  0  0  0  0  0  0  0  0  0
   -2.7640   -0.4655    0.7101 C   0  0  0  0  0  0  0  0  0  0  0  0
   -3.2579   -1.9153    0.6795 C   0  0  0  0  0  0  0  0  0  0  0  0
   -4.7123   -1.9718    1.1461 C   0  0  0  0  0  0  0  0  0  0  0  0
   -5.6037   -1.1452    0.2298 C   0  0  0  0  0  0  0  0  0  0  0  0
   -5.1361    0.3074    0.1220 C   0  0  0  0  0  0  0  0  0  0  0  0
   -3.6482    0.3861   -0.1821 C   0  0  0  0  0  0  0  0  0  0  0  0
   -3.1386    1.8141   -0.2536 C   0  0  0  0  0  0  0  0  0  0  0  0
   -1.6706    1.8957   -0.6586 C   0  0  0  0  0  0  0  0  0  0  0  0
   -1.0089    0.5427   -0.8692 C   0  0  0  0  0  0  0  0  0  0  0  0
    0.5064    0.7257   -1.0023 C   0  0  0  0  0  0  0  0  0  0  0  0
    1.0065    1.9427   -0.2403 C   0  0  0  0  0  0  0  0  0  0  0  0
    2.5236    2.0861   -0.3487 C   0  0  0  0  0  0  0  0  0  0  0  0
    2.9456    3.1873    0.4687 O   0  0  0  0  0  0  0  0  0  0  0  0
    0.7607    0.9652   -2.4952 C   0  0  0  0  0  0  0  0  0  0  0  0
   -1.4411   -0.0439   -2.2177 C   0  0  0  0  0  0  0  0  0  0  0  0
   -5.8936    0.9135   -1.0869 C   0  0  0  0  0  0  0  0  0  0  0  0
   -5.5581    1.0976    1.3538 C   0  0  0  0  0  0  0  0  0  0  0  0
   -5.6201   -1.7283   -1.0792 O   0  0  0  0  0  0  0  0  0  0  0  0
   -2.7937    0.0235    2.1701 C   0  0  0  0  0  0  0  0  0  0  0  0
    2.9481    0.5991    1.5743 C   0  0  0  0  0  0  0  0  0  0  0  0
    2.2278    1.3660    2.1683 O   0  0  0  0  0  0  0  0  0  0  0  0
    3.4797   -0.4544    2.2141 O   0  0  0  0  0  0  0  0  0  0  0  0
    5.6544   -2.7312    0.3288 C   0  0  0  0  0  0  0  0  0  0  0  0
    6.5319   -1.4291   -1.8612 H   0  0  0  0  0  0  0  0  0  0  0  0
    5.0879   -2.3686   -2.3089 H   0  0  0  0  0  0  0  0  0  0  0  0
    5.0214   -0.5900   -2.2884 H   0  0  0  0  0  0  0  0  0  0  0  0
    5.4195   -0.3830    1.4578 H   0  0  0  0  0  0  0  0  0  0  0  0
    6.5725   -0.1211    0.1500 H   0  0  0  0  0  0  0  0  0  0  0  0
    5.0924    1.8553    0.5274 H   0  0  0  0  0  0  0  0  0  0  0  0
    4.9689    1.2104   -1.1193 H   0  0  0  0  0  0  0  0  0  0  0  0
    3.0608   -0.1939   -1.7692 H   0  0  0  0  0  0  0  0  0  0  0  0
    3.1800   -2.4804   -0.8834 H   0  0  0  0  0  0  0  0  0  0  0  0
    3.2060   -1.8844    0.7793 H   0  0  0  0  0  0  0  0  0  0  0  0
    1.4097   -2.4421    0.0516 H   0  0  0  0  0  0  0  0  0  0  0  0
   -1.1533   -2.2432   -0.8835 H   0  0  0  0  0  0  0  0  0  0  0  0
   -0.8822   -2.4354    0.8584 H   0  0  0  0  0  0  0  0  0  0  0  0
   -0.7418   -0.0050    1.1620 H   0  0  0  0  0  0  0  0  0  0  0  0
   -3.1828   -2.3047   -0.3345 H   0  0  0  0  0  0  0  0  0  0  0  0
   -2.6460   -2.5218    1.3500 H   0  0  0  0  0  0  0  0  0  0  0  0
   -5.0453   -3.0201    1.1062 H   0  0  0  0  0  0  0  0  0  0  0  0
   -4.8041   -1.6387    2.1750 H   0  0  0  0  0  0  0  0  0  0  0  0
   -6.6271   -1.1547    0.6220 H   0  0  0  0  0  0  0  0  0  0  0  0
   -3.5882   -0.0428   -1.2104 H   0  0  0  0  0  0  0  0  0  0  0  0
   -3.7235    2.3869   -0.9851 H   0  0  0  0  0  0  0  0  0  0  0  0
   -3.2562    2.3138    0.7136 H   0  0  0  0  0  0  0  0  0  0  0  0
   -1.5927    2.4861   -1.5789 H   0  0  0  0  0  0  0  0  0  0  0  0
   -1.1346    2.4422    0.1297 H   0  0  0  0  0  0  0  0  0  0  0  0
    0.5458    2.8456   -0.6659 H   0  0  0  0  0  0  0  0  0  0  0  0
    0.7071    1.8795    0.8064 H   0  0  0  0  0  0  0  0  0  0  0  0
    2.8081    2.3015   -1.3805 H   0  0  0  0  0  0  0  0  0  0  0  0
    2.5548    4.0356    0.2181 H   0  0  0  0  0  0  0  0  0  0  0  0
    0.1098    1.7638   -2.8511 H   0  0  0  0  0  0  0  0  0  0  0  0
    1.8018    1.2510   -2.6451 H   0  0  0  0  0  0  0  0  0  0  0  0
    0.5512    0.0510   -3.0507 H   0  0  0  0  0  0  0  0  0  0  0  0
   -1.3295    0.7119   -2.9951 H   0  0  0  0  0  0  0  0  0  0  0  0
   -0.8170   -0.9051   -2.4560 H   0  0  0  0  0  0  0  0  0  0  0  0
   -2.4840   -0.3555   -2.1609 H   0  0  0  0  0  0  0  0  0  0  0  0
   -6.9673    0.8584   -0.9076 H   0  0  0  0  0  0  0  0  0  0  0  0
   -5.5995    1.9553   -1.2147 H   0  0  0  0  0  0  0  0  0  0  0  0
   -5.6466    0.3530   -1.9886 H   0  0  0  0  0  0  0  0  0  0  0  0
   -5.2361    0.5701    2.2517 H   0  0  0  0  0  0  0  0  0  0  0  0
   -5.0972    2.0850    1.3276 H   0  0  0  0  0  0  0  0  0  0  0  0
   -6.6429    1.2031    1.3638 H   0  0  0  0  0  0  0  0  0  0  0  0
   -5.9536   -2.6357   -1.1014 H   0  0  0  0  0  0  0  0  0  0  0  0
   -2.5734    1.0905    2.2004 H   0  0  0  0  0  0  0  0  0  0  0  0
   -3.7821   -0.1556    2.5932 H   0  0  0  0  0  0  0  0  0  0  0  0
   -2.0466   -0.5184    2.7500 H   0  0  0  0  0  0  0  0  0  0  0  0
    3.2575   -0.5579    3.1495 H   0  0  0  0  0  0  0  0  0  0  0  0
    6.7396   -2.6541    0.2611 H   0  0  0  0  0  0  0  0  0  0  0  0
    5.3578   -2.7734    1.3768 H   0  0  0  0  0  0  0  0  0  0  0  0
    5.3221   -3.6363   -0.1796 H   0  0  0  0  0  0  0  0  0  0  0  0
  1  2  1  0  0  0  0
  2  3  1  0  0  0  0
  3  4  1  0  0  0  0
  4  5  1  0  0  0  0
  5  6  1  0  0  0  0
  6  7  1  0  0  0  0
  2  7  1  0  0  0  0
  6  8  1  0  0  0  0
  8  9  2  0  0  0  0
  9 10  1  0  0  0  0
 10 11  1  0  0  0  0
 11 12  1  0  0  0  0
 12 13  1  0  0  0  0
 13 14  1  0  0  0  0
 14 15  1  0  0  0  0
 15 16  1  0  0  0  0
 16 17  1  0  0  0  0
 12 17  1  0  0  0  0
 17 18  1  0  0  0  0
 18 19  1  0  0  0  0
 19 20  1  0  0  0  0
 11 20  1  0  0  0  0
 20 21  1  0  0  0  0
  8 21  1  0  0  0  0
 21 22  1  0  0  0  0
 22 23  1  0  0  0  0
  5 23  1  0  0  0  0
 23 24  1  0  0  0  0
 21 25  1  0  0  0  0
 20 26  1  0  0  0  0
 16 27  1  0  0  0  0
 16 28  1  0  0  0  0
 15 29  1  0  0  0  0
 12 30  1  0  0  0  0
  5 31  1  0  0  0  0
 31 32  2  0  0  0  0
 31 33  1  0  0  0  0
  2 34  1  0  0  0  0
  1 35  1  0  0  0  0
  1 36  1  0  0  0  0
  1 37  1  0  0  0  0
  3 38  1  0  0  0  0
  3 39  1  0  0  0  0
  4 40  1  0  0  0  0
  4 41  1  0  0  0  0
  6 42  1  0  0  0  0
  7 43  1  0  0  0  0
  7 44  1  0  0  0  0
  9 45  1  0  0  0  0
 10 46  1  0  0  0  0
 10 47  1  0  0  0  0
 11 48  1  0  0  0  0
 13 49  1  0  0  0  0
 13 50  1  0  0  0  0
 14 51  1  0  0  0  0
 14 52  1  0  0  0  0
 15 53  1  0  0  0  0
 17 54  1  0  0  0  0
 18 55  1  0  0  0  0
 18 56  1  0  0  0  0
 19 57  1  0  0  0  0
 19 58  1  0  0  0  0
 22 59  1  0  0  0  0
 22 60  1  0  0  0  0
 23 61  1  0  0  0  0
 24 62  1  0  0  0  0
 25 63  1  0  0  0  0
 25 64  1  0  0  0  0
 25 65  1  0  0  0  0
 26 66  1  0  0  0  0
 26 67  1  0  0  0  0
 26 68  1  0  0  0  0
 27 69  1  0  0  0  0
 27 70  1  0  0  0  0
 27 71  1  0  0  0  0
 28 72  1  0  0  0  0
 28 73  1  0  0  0  0
 28 74  1  0  0  0  0
 29 75  1  0  0  0  0
 30 76  1  0  0  0  0
 30 77  1  0  0  0  0
 30 78  1  0  0  0  0
 33 79  1  0  0  0  0
 34 80  1  0  0  0  0
 34 81  1  0  0  0  0
 34 82  1  0  0  0  0
M  END
$$$$
