C20H18O6
APtclcactv06211806493D 0   0.00000     0.00000
 
 44 46  0  0  0  0  0  0  0  0999 V2000
   -6.3562   -1.2805    0.1698 C   0  0  0  0  0  0  0  0  0  0  0  0
   -5.9082   -0.3240   -0.9052 C   0  0  0  0  0  0  0  0  0  0  0  0
   -5.0312    0.6087   -0.6280 C   0  0  0  0  0  0  0  0  0  0  0  0
   -4.3826    0.6532    0.7316 C   0  0  0  0  0  0  0  0  0  0  0  0
   -2.8841    0.6665    0.5731 C   0  0  0  0  0  0  0  0  0  0  0  0
   -2.2086    1.8770    0.4676 C   0  0  0  0  0  0  0  0  0  0  0  0
   -0.8300    1.9066    0.3213 C   0  0  0  0  0  0  0  0  0  0  0  0
   -0.1114    0.7224    0.2790 C   0  0  0  0  0  0  0  0  0  0  0  0
   -0.7918   -0.5029    0.3854 C   0  0  0  0  0  0  0  0  0  0  0  0
   -2.1833   -0.5253    0.5386 C   0  0  0  0  0  0  0  0  0  0  0  0
   -2.8408   -1.7081    0.6415 O   0  0  0  0  0  0  0  0  0  0  0  0
   -0.0077   -1.7490    0.3379 C   0  0  0  0  0  0  0  0  0  0  0  0
   -0.5466   -2.8408    0.4252 O   0  0  0  0  0  0  0  0  0  0  0  0
    1.3927   -1.6315    0.1867 C   0  0  0  0  0  0  0  0  0  0  0  0
    1.9566   -0.3955    0.0923 C   0  0  0  0  0  0  0  0  0  0  0  0
    1.2311    0.7335    0.1366 O   0  0  0  0  0  0  0  0  0  0  0  0
    3.4173   -0.2932   -0.0649 C   0  0  0  0  0  0  0  0  0  0  0  0
    4.0179    0.9581   -0.2709 C   0  0  0  0  0  0  0  0  0  0  0  0
    5.3914    1.0453   -0.4171 C   0  0  0  0  0  0  0  0  0  0  0  0
    6.1700   -0.1014   -0.3604 C   0  0  0  0  0  0  0  0  0  0  0  0
    5.5762   -1.3430   -0.1562 C   0  0  0  0  0  0  0  0  0  0  0  0
    4.2122   -1.4422   -0.0036 C   0  0  0  0  0  0  0  0  0  0  0  0
    7.5168   -0.0118   -0.5052 O   0  0  0  0  0  0  0  0  0  0  0  0
    3.2546    2.0788   -0.3270 O   0  0  0  0  0  0  0  0  0  0  0  0
   -2.9054    3.0414    0.5077 O   0  0  0  0  0  0  0  0  0  0  0  0
   -6.4692   -0.4406   -2.2990 C   0  0  0  0  0  0  0  0  0  0  0  0
   -6.7332   -0.7171    1.0234 H   0  0  0  0  0  0  0  0  0  0  0  0
   -7.1468   -1.9213   -0.2205 H   0  0  0  0  0  0  0  0  0  0  0  0
   -5.5125   -1.8949    0.4841 H   0  0  0  0  0  0  0  0  0  0  0  0
   -4.7729    1.3459   -1.3738 H   0  0  0  0  0  0  0  0  0  0  0  0
   -4.7005    1.5540    1.2565 H   0  0  0  0  0  0  0  0  0  0  0  0
   -4.6796   -0.2252    1.3047 H   0  0  0  0  0  0  0  0  0  0  0  0
   -0.3161    2.8529    0.2399 H   0  0  0  0  0  0  0  0  0  0  0  0
   -2.9350   -2.0281    1.5492 H   0  0  0  0  0  0  0  0  0  0  0  0
    2.0114   -2.5158    0.1467 H   0  0  0  0  0  0  0  0  0  0  0  0
    5.8573    2.0066   -0.5758 H   0  0  0  0  0  0  0  0  0  0  0  0
    6.1885   -2.2316   -0.1131 H   0  0  0  0  0  0  0  0  0  0  0  0
    3.7550   -2.4078    0.1548 H   0  0  0  0  0  0  0  0  0  0  0  0
    7.9941    0.1165    0.3260 H   0  0  0  0  0  0  0  0  0  0  0  0
    3.1195    2.5060    0.5299 H   0  0  0  0  0  0  0  0  0  0  0  0
   -3.0150    3.4038    1.3975 H   0  0  0  0  0  0  0  0  0  0  0  0
   -7.1781   -1.2678   -2.3373 H   0  0  0  0  0  0  0  0  0  0  0  0
   -6.9777    0.4862   -2.5647 H   0  0  0  0  0  0  0  0  0  0  0  0
   -5.6577   -0.6246   -3.0030 H   0  0  0  0  0  0  0  0  0  0  0  0
  1  2  1  0  0  0  0
  2  3  2  0  0  0  0
  3  4  1  0  0  0  0
  4  5  1  0  0  0  0
  5  6  2  0  0  0  0
  6  7  1  0  0  0  0
  7  8  2  0  0  0  0
  8  9  1  0  0  0  0
  9 10  2  0  0  0  0
  5 10  1  0  0  0  0
 10 11  1  0  0  0  0
  9 12  1  0  0  0  0
 12 13  2  0  0  0  0
 12 14  1  0  0  0  0
 14 15  2  0  0  0  0
 15 16  1  0  0  0  0
  8 16  1  0  0  0  0
 15 17  1  0  0  0  0
 17 18  2  0  0  0  0
 18 19  1  0  0  0  0
 19 20  2  0  0  0  0
 20 21  1  0  0  0  0
 21 22  2  0  0  0  0
 17 22  1  0  0  0  0
 20 23  1  0  0  0  0
 18 24  1  0  0  0  0
  6 25  1  0  0  0  0
  2 26  1  0  0  0  0
  1 27  1  0  0  0  0
  1 28  1  0  0  0  0
  1 29  1  0  0  0  0
  3 30  1  0  0  0  0
  4 31  1  0  0  0  0
  4 32  1  0  0  0  0
  7 33  1  0  0  0  0
 11 34  1  0  0  0  0
 14 35  1  0  0  0  0
 19 36  1  0  0  0  0
 21 37  1  0  0  0  0
 22 38  1  0  0  0  0
 23 39  1  0  0  0  0
 24 40  1  0  0  0  0
 25 41  1  0  0  0  0
 26 42  1  0  0  0  0
 26 43  1  0  0  0  0
 26 44  1  0  0  0  0
M  END
$$$$
