C26H21N3O4
APtclcactv06211806493D 0   0.00000     0.00000
 
 54 58  0  0  0  0  0  0  0  0999 V2000
    8.1208   -1.5283   -1.9052 C   0  0  0  0  0  0  0  0  0  0  0  0
    7.4647   -1.8714   -0.5663 C   0  0  0  0  0  0  0  0  0  0  0  0
    6.0382   -1.6124   -0.6459 O   0  0  0  0  0  0  0  0  0  0  0  0
    5.3078   -1.8647    0.4586 C   0  0  0  0  0  0  0  0  0  0  0  0
    5.8486   -2.2895    1.4608 O   0  0  0  0  0  0  0  0  0  0  0  0
    3.8552   -1.6257    0.4510 C   0  0  0  0  0  0  0  0  0  0  0  0
    3.0967   -1.8878    1.5985 C   0  0  0  0  0  0  0  0  0  0  0  0
    1.7510   -1.6665    1.5918 C   0  0  0  0  0  0  0  0  0  0  0  0
    1.1275   -1.1764    0.4369 C   0  0  0  0  0  0  0  0  0  0  0  0
    1.8868   -0.9139   -0.7109 C   0  0  0  0  0  0  0  0  0  0  0  0
    3.2333   -1.1308   -0.7018 C   0  0  0  0  0  0  0  0  0  0  0  0
   -0.2158   -0.9558    0.4297 N   0  0  0  0  0  0  0  0  0  0  0  0
   -0.6983    0.1579   -0.0854 C   0  0  0  0  0  0  0  0  0  0  0  0
   -2.1498    0.4197   -0.1048 C   0  0  0  0  0  0  0  0  0  0  0  0
   -2.5527    1.7472   -0.1087 C   0  0  0  0  0  0  0  0  0  0  0  0
   -1.5029    2.7692   -0.0924 C   0  0  0  0  0  0  0  0  0  0  0  0
   -0.1707    2.3941   -0.3482 C   0  0  0  0  0  0  0  0  0  0  0  0
    0.1253    1.0999   -0.6083 O   0  0  0  0  0  0  0  0  0  0  0  0
    0.8286    3.3559   -0.3295 C   0  0  0  0  0  0  0  0  0  0  0  0
    0.5145    4.6727   -0.0634 C   0  0  0  0  0  0  0  0  0  0  0  0
   -0.8017    5.0504    0.1875 C   0  0  0  0  0  0  0  0  0  0  0  0
   -1.8112    4.1080    0.1748 C   0  0  0  0  0  0  0  0  0  0  0  0
   -1.0944    6.3525    0.4469 O   0  0  0  0  0  0  0  0  0  0  0  0
   -0.0035    7.2755    0.4454 C   0  0  0  0  0  0  0  0  0  0  0  0
   -3.1306   -0.6824   -0.1198 C   0  0  0  0  0  0  0  0  0  0  0  0
   -3.0278   -1.7939    0.5697 N   0  0  0  0  0  0  0  0  0  0  0  0
   -4.1000   -2.5844    0.3217 C   0  0  0  0  0  0  0  0  0  0  0  0
   -4.4879   -3.8477    0.7799 C   0  0  0  0  0  0  0  0  0  0  0  0
   -5.6644   -4.4049    0.3337 C   0  0  0  0  0  0  0  0  0  0  0  0
   -6.4695   -3.7238   -0.5680 C   0  0  0  0  0  0  0  0  0  0  0  0
   -6.1026   -2.4772   -1.0304 C   0  0  0  0  0  0  0  0  0  0  0  0
   -4.9205   -1.8984   -0.5921 C   0  0  0  0  0  0  0  0  0  0  0  0
   -4.2888   -0.6970   -0.8513 N   0  0  0  0  0  0  0  0  0  0  0  0
    9.1917   -1.7227   -1.8454 H   0  0  0  0  0  0  0  0  0  0  0  0
    7.6834   -2.1426   -2.6922 H   0  0  0  0  0  0  0  0  0  0  0  0
    7.9548   -0.4751   -2.1319 H   0  0  0  0  0  0  0  0  0  0  0  0
    7.6307   -2.9245   -0.3396 H   0  0  0  0  0  0  0  0  0  0  0  0
    7.9021   -1.2570    0.2207 H   0  0  0  0  0  0  0  0  0  0  0  0
    3.5774   -2.2655    2.4888 H   0  0  0  0  0  0  0  0  0  0  0  0
    1.1659   -1.8693    2.4767 H   0  0  0  0  0  0  0  0  0  0  0  0
    1.4066   -0.5364   -1.6015 H   0  0  0  0  0  0  0  0  0  0  0  0
    3.8188   -0.9281   -1.5864 H   0  0  0  0  0  0  0  0  0  0  0  0
   -3.5985    2.0166   -0.1235 H   0  0  0  0  0  0  0  0  0  0  0  0
    1.8530    3.0738   -0.5228 H   0  0  0  0  0  0  0  0  0  0  0  0
    1.2968    5.4171   -0.0495 H   0  0  0  0  0  0  0  0  0  0  0  0
   -2.8318    4.4022    0.3700 H   0  0  0  0  0  0  0  0  0  0  0  0
   -0.3742    8.2766    0.6657 H   0  0  0  0  0  0  0  0  0  0  0  0
    0.7220    6.9817    1.2040 H   0  0  0  0  0  0  0  0  0  0  0  0
    0.4739    7.2722   -0.5345 H   0  0  0  0  0  0  0  0  0  0  0  0
   -3.8660   -4.3841    1.4813 H   0  0  0  0  0  0  0  0  0  0  0  0
   -5.9633   -5.3804    0.6880 H   0  0  0  0  0  0  0  0  0  0  0  0
   -7.3900   -4.1731   -0.9105 H   0  0  0  0  0  0  0  0  0  0  0  0
   -6.7340   -1.9530   -1.7324 H   0  0  0  0  0  0  0  0  0  0  0  0
   -4.6051    0.0039   -1.4425 H   0  0  0  0  0  0  0  0  0  0  0  0
  1  2  1  0  0  0  0
  2  3  1  0  0  0  0
  3  4  1  0  0  0  0
  4  5  2  0  0  0  0
  4  6  1  0  0  0  0
  6  7  2  0  0  0  0
  7  8  1  0  0  0  0
  8  9  2  0  0  0  0
  9 10  1  0  0  0  0
 10 11  2  0  0  0  0
  6 11  1  0  0  0  0
  9 12  1  0  0  0  0
 12 13  2  0  0  0  0
 13 14  1  0  0  0  0
 14 15  2  0  0  0  0
 15 16  1  0  0  0  0
 16 17  2  0  0  0  0
 17 18  1  0  0  0  0
 13 18  1  0  0  0  0
 17 19  1  0  0  0  0
 19 20  2  0  0  0  0
 20 21  1  0  0  0  0
 21 22  2  0  0  0  0
 16 22  1  0  0  0  0
 21 23  1  0  0  0  0
 23 24  1  0  0  0  0
 14 25  1  0  0  0  0
 25 26  2  0  0  0  0
 26 27  1  0  0  0  0
 27 28  2  0  0  0  0
 28 29  1  0  0  0  0
 29 30  2  0  0  0  0
 30 31  1  0  0  0  0
 31 32  2  0  0  0  0
 27 32  1  0  0  0  0
 32 33  1  0  0  0  0
 25 33  1  0  0  0  0
  1 34  1  0  0  0  0
  1 35  1  0  0  0  0
  1 36  1  0  0  0  0
  2 37  1  0  0  0  0
  2 38  1  0  0  0  0
  7 39  1  0  0  0  0
  8 40  1  0  0  0  0
 10 41  1  0  0  0  0
 11 42  1  0  0  0  0
 15 43  1  0  0  0  0
 19 44  1  0  0  0  0
 20 45  1  0  0  0  0
 22 46  1  0  0  0  0
 24 47  1  0  0  0  0
 24 48  1  0  0  0  0
 24 49  1  0  0  0  0
 28 50  1  0  0  0  0
 29 51  1  0  0  0  0
 30 52  1  0  0  0  0
 31 53  1  0  0  0  0
 33 54  1  0  0  0  0
M  END
$$$$
