C6H9NO2
APtclcactv06291802483D 0   0.00000     0.00000
 
 18 18  0  0  0  0  0  0  0  0999 V2000
   -1.8102    1.3397    0.0772 C   0  0  0  0  0  0  0  0  0  0  0  0
   -2.4439    0.0288   -0.3953 C   0  0  0  0  0  0  0  0  0  0  0  0
   -1.8415   -1.0826    0.3576 N   0  3  0  0  0  0  0  0  0  0  0  0
   -1.8553   -0.8691    1.3436 H   0  0  0  0  0  0  0  0  0  0  0  0
   -2.3650   -1.9283    0.1879 H   0  0  0  0  0  0  0  0  0  0  0  0
   -0.4545   -1.2643   -0.0860 C   0  0  0  0  0  0  0  0  0  0  0  0
    0.2939    0.0354   -0.0097 C   0  0  0  0  0  0  0  0  0  0  0  0
   -0.3119    1.2091    0.0613 C   0  0  0  0  0  0  0  0  0  0  0  0
    1.7605    0.0018   -0.0142 C   0  0  0  0  0  0  0  0  0  0  0  0
    2.3966    1.0455    0.0470 O   0  0  0  0  0  0  0  0  0  0  0  0
    2.3478   -1.0698   -0.0791 O   0  5  0  0  0  0  0  0  0  0  0  0
   -2.1112    2.1490   -0.5881 H   0  0  0  0  0  0  0  0  0  0  0  0
   -2.1448    1.5600    1.0909 H   0  0  0  0  0  0  0  0  0  0  0  0
   -3.5181    0.0548   -0.2123 H   0  0  0  0  0  0  0  0  0  0  0  0
   -2.2549   -0.1059   -1.4603 H   0  0  0  0  0  0  0  0  0  0  0  0
    0.0348   -2.0000    0.5523 H   0  0  0  0  0  0  0  0  0  0  0  0
   -0.4491   -1.6235   -1.1151 H   0  0  0  0  0  0  0  0  0  0  0  0
    0.2901    2.1045    0.1088 H   0  0  0  0  0  0  0  0  0  0  0  0
  1  2  1  0  0  0  0
  2  3  1  0  0  0  0
  3  4  1  0  0  0  0
  3  5  1  0  0  0  0
  3  6  1  0  0  0  0
  6  7  1  0  0  0  0
  7  8  2  0  0  0  0
  1  8  1  0  0  0  0
  7  9  1  0  0  0  0
  9 10  2  0  0  0  0
  9 11  1  0  0  0  0
  1 12  1  0  0  0  0
  1 13  1  0  0  0  0
  2 14  1  0  0  0  0
  2 15  1  0  0  0  0
  6 16  1  0  0  0  0
  6 17  1  0  0  0  0
  8 18  1  0  0  0  0
M  CHG  2   3   1  11  -1
M  END
$$$$
