C2H7NO3S
APtclcactv06281816393D 0   0.00000     0.00000
 
 14 13  0  0  0  0  0  0  0  0999 V2000
    1.8175    0.4125    0.0000 C   0  0  0  0  0  0  0  0  0  0  0  0
    0.7884   -0.7197    0.0000 C   0  0  0  0  0  0  0  0  0  0  0  0
   -0.8839   -0.0168   -0.0000 S   0  0  0  0  0  0  0  0  0  0  0  0
   -1.8498   -1.1045    0.0000 O   0  0  0  0  0  0  0  0  0  0  0  0
   -1.0494    0.7996    1.1925 O   0  0  0  0  0  0  0  0  0  0  0  0
   -1.0495    0.7996   -1.1925 O   0  5  0  0  0  0  0  0  0  0  0  0
    3.1717   -0.1568   -0.0000 N   0  3  0  0  0  0  0  0  0  0  0  0
    3.8504    0.5899    0.0000 H   0  0  0  0  0  0  0  0  0  0  0  0
    3.2975   -0.7256    0.8238 H   0  0  0  0  0  0  0  0  0  0  0  0
    3.2975   -0.7256   -0.8238 H   0  0  0  0  0  0  0  0  0  0  0  0
    1.6817    1.0269   -0.8900 H   0  0  0  0  0  0  0  0  0  0  0  0
    1.6817    1.0269    0.8900 H   0  0  0  0  0  0  0  0  0  0  0  0
    0.9243   -1.3342   -0.8900 H   0  0  0  0  0  0  0  0  0  0  0  0
    0.9243   -1.3342    0.8900 H   0  0  0  0  0  0  0  0  0  0  0  0
  1  2  1  0  0  0  0
  2  3  1  0  0  0  0
  3  4  2  0  0  0  0
  3  5  2  0  0  0  0
  3  6  1  0  0  0  0
  1  7  1  0  0  0  0
  7  8  1  0  0  0  0
  7  9  1  0  0  0  0
  7 10  1  0  0  0  0
  1 11  1  0  0  0  0
  1 12  1  0  0  0  0
  2 13  1  0  0  0  0
  2 14  1  0  0  0  0
M  CHG  2   6  -1   7   1
M  END
$$$$
