C5H7N
APtclcactv06211806503D 0   0.00000     0.00000
 
 13 13  0  0  0  0  0  0  0  0999 V2000
   -0.7981    1.1507   -0.2405 C   0  0  0  0  0  0  0  0  0  0  0  0
   -1.4053   -0.1979    0.0564 C   0  0  0  0  0  0  0  0  0  0  0  0
   -0.6276   -1.2780    0.1100 C   0  0  0  0  0  0  0  0  0  0  0  0
    0.8186   -1.1535   -0.1124 C   0  0  0  0  0  0  0  0  0  0  0  0
    1.3935    0.0594   -0.0480 C   0  0  0  0  0  0  0  0  0  0  0  0
    0.5950    1.1594    0.2235 N   0  0  0  0  0  0  0  0  0  0  0  0
   -0.8261    1.3350   -1.3145 H   0  0  0  0  0  0  0  0  0  0  0  0
   -1.3606    1.9265    0.2791 H   0  0  0  0  0  0  0  0  0  0  0  0
   -2.4682   -0.2874    0.2256 H   0  0  0  0  0  0  0  0  0  0  0  0
   -1.0607   -2.2453    0.3173 H   0  0  0  0  0  0  0  0  0  0  0  0
    1.4147   -2.0287   -0.3253 H   0  0  0  0  0  0  0  0  0  0  0  0
    2.4559    0.1748   -0.2043 H   0  0  0  0  0  0  0  0  0  0  0  0
    0.9494    1.9199    0.7102 H   0  0  0  0  0  0  0  0  0  0  0  0
  1  2  1  0  0  0  0
  2  3  2  0  0  0  0
  3  4  1  0  0  0  0
  4  5  2  0  0  0  0
  5  6  1  0  0  0  0
  1  6  1  0  0  0  0
  1  7  1  0  0  0  0
  1  8  1  0  0  0  0
  2  9  1  0  0  0  0
  3 10  1  0  0  0  0
  4 11  1  0  0  0  0
  5 12  1  0  0  0  0
  6 13  1  0  0  0  0
M  END
$$$$
