C15H22O4
APtclcactv06211806223D 0   0.00000     0.00000
 
 41 41  0  0  0  0  0  0  0  0999 V2000
   -5.6832   -1.0585    0.9953 C   0  0  0  0  0  0  0  0  0  0  0  0
   -5.6678   -0.1984   -0.2699 C   0  0  0  0  0  0  0  0  0  0  0  0
   -7.0198    0.5002   -0.4282 C   0  0  0  0  0  0  0  0  0  0  0  0
   -4.5609    0.8520   -0.1592 C   0  0  0  0  0  0  0  0  0  0  0  0
   -3.2193    0.1665   -0.1269 C   0  0  0  0  0  0  0  0  0  0  0  0
   -3.1551   -1.0380   -0.1863 O   0  0  0  0  0  0  0  0  0  0  0  0
   -1.9578    0.9840   -0.0204 C   0  0  0  0  0  0  0  0  0  0  0  0
   -0.7451    0.0511   -0.0075 C   0  0  0  0  0  0  0  0  0  0  0  0
   -0.7160   -0.7655   -1.3010 C   0  0  0  0  0  0  0  0  0  0  0  0
    0.5357    0.8811    0.1006 C   0  0  0  0  0  0  0  0  0  0  0  0
    1.7517   -0.0406   -0.0117 C   0  0  0  0  0  0  0  0  0  0  0  0
    3.0132    0.7769    0.0947 C   0  0  0  0  0  0  0  0  0  0  0  0
    2.9462    1.9789    0.2457 O   0  0  0  0  0  0  0  0  0  0  0  0
    4.3212    0.1198    0.0159 C   0  0  0  0  0  0  0  0  0  0  0  0
    4.5683   -1.2156   -0.1518 C   0  0  0  0  0  0  0  0  0  0  0  0
    5.8910   -1.3988   -0.1713 O   0  0  0  0  0  0  0  0  0  0  0  0
    6.5399   -0.2331   -0.0226 C   0  0  0  0  0  0  0  0  0  0  0  0
    5.6451    0.7586    0.0940 C   0  0  0  0  0  0  0  0  0  0  0  0
   -0.8359   -0.8326    1.1118 O   0  0  0  0  0  0  0  0  0  0  0  0
   -5.8687   -0.4252    1.8629 H   0  0  0  0  0  0  0  0  0  0  0  0
   -6.4718   -1.8068    0.9164 H   0  0  0  0  0  0  0  0  0  0  0  0
   -4.7200   -1.5561    1.1081 H   0  0  0  0  0  0  0  0  0  0  0  0
   -5.4823   -0.8316   -1.1375 H   0  0  0  0  0  0  0  0  0  0  0  0
   -7.2054    1.1334    0.4394 H   0  0  0  0  0  0  0  0  0  0  0  0
   -7.0089    1.1129   -1.3296 H   0  0  0  0  0  0  0  0  0  0  0  0
   -7.8084   -0.2482   -0.5071 H   0  0  0  0  0  0  0  0  0  0  0  0
   -4.6068    1.5203   -1.0191 H   0  0  0  0  0  0  0  0  0  0  0  0
   -4.6968    1.4279    0.7562 H   0  0  0  0  0  0  0  0  0  0  0  0
   -1.8885    1.6581   -0.8741 H   0  0  0  0  0  0  0  0  0  0  0  0
   -1.9785    1.5657    0.9011 H   0  0  0  0  0  0  0  0  0  0  0  0
   -0.6468   -0.0914   -2.1547 H   0  0  0  0  0  0  0  0  0  0  0  0
    0.1479   -1.4300   -1.2918 H   0  0  0  0  0  0  0  0  0  0  0  0
   -1.6285   -1.3568   -1.3780 H   0  0  0  0  0  0  0  0  0  0  0  0
    0.5613    1.6161   -0.7039 H   0  0  0  0  0  0  0  0  0  0  0  0
    0.5562    1.3940    1.0622 H   0  0  0  0  0  0  0  0  0  0  0  0
    1.7261   -0.7756    0.7927 H   0  0  0  0  0  0  0  0  0  0  0  0
    1.7312   -0.5536   -0.9733 H   0  0  0  0  0  0  0  0  0  0  0  0
    3.8213   -1.9893   -0.2508 H   0  0  0  0  0  0  0  0  0  0  0  0
    7.6130   -0.1126   -0.0041 H   0  0  0  0  0  0  0  0  0  0  0  0
    5.8531    1.8102    0.2256 H   0  0  0  0  0  0  0  0  0  0  0  0
   -0.8589   -0.3826    1.9674 H   0  0  0  0  0  0  0  0  0  0  0  0
  1  2  1  0  0  0  0
  2  3  1  0  0  0  0
  2  4  1  0  0  0  0
  4  5  1  0  0  0  0
  5  6  2  0  0  0  0
  5  7  1  0  0  0  0
  7  8  1  0  0  0  0
  8  9  1  0  0  0  0
  8 10  1  0  0  0  0
 10 11  1  0  0  0  0
 11 12  1  0  0  0  0
 12 13  2  0  0  0  0
 12 14  1  0  0  0  0
 14 15  2  0  0  0  0
 15 16  1  0  0  0  0
 16 17  1  0  0  0  0
 17 18  2  0  0  0  0
 14 18  1  0  0  0  0
  8 19  1  0  0  0  0
  1 20  1  0  0  0  0
  1 21  1  0  0  0  0
  1 22  1  0  0  0  0
  2 23  1  0  0  0  0
  3 24  1  0  0  0  0
  3 25  1  0  0  0  0
  3 26  1  0  0  0  0
  4 27  1  0  0  0  0
  4 28  1  0  0  0  0
  7 29  1  0  0  0  0
  7 30  1  0  0  0  0
  9 31  1  0  0  0  0
  9 32  1  0  0  0  0
  9 33  1  0  0  0  0
 10 34  1  0  0  0  0
 10 35  1  0  0  0  0
 11 36  1  0  0  0  0
 11 37  1  0  0  0  0
 15 38  1  0  0  0  0
 17 39  1  0  0  0  0
 18 40  1  0  0  0  0
 19 41  1  0  0  0  0
M  END
$$$$
