C29H58O2
APtclcactv06211806223D 0   0.00000     0.00000
 
 89 88  0  0  0  0  0  0  0  0999 V2000
   18.6800   -0.2888   -0.0000 C   0  0  0  0  0  0  0  0  0  0  0  0
   17.4200    0.5791    0.0000 C   0  0  0  0  0  0  0  0  0  0  0  0
   16.1817   -0.3196   -0.0000 C   0  0  0  0  0  0  0  0  0  0  0  0
   14.9217    0.5483    0.0000 C   0  0  0  0  0  0  0  0  0  0  0  0
   13.6834   -0.3504   -0.0000 C   0  0  0  0  0  0  0  0  0  0  0  0
   12.4234    0.5174    0.0000 C   0  0  0  0  0  0  0  0  0  0  0  0
   11.1851   -0.3813   -0.0000 C   0  0  0  0  0  0  0  0  0  0  0  0
    9.9251    0.4866    0.0000 C   0  0  0  0  0  0  0  0  0  0  0  0
    8.6869   -0.4121   -0.0000 C   0  0  0  0  0  0  0  0  0  0  0  0
    7.4268    0.4558    0.0000 C   0  0  0  0  0  0  0  0  0  0  0  0
    6.1886   -0.4429   -0.0000 C   0  0  0  0  0  0  0  0  0  0  0  0
    4.9285    0.4249    0.0000 C   0  0  0  0  0  0  0  0  0  0  0  0
    3.6903   -0.4738   -0.0000 C   0  0  0  0  0  0  0  0  0  0  0  0
    2.4302    0.3941    0.0000 C   0  0  0  0  0  0  0  0  0  0  0  0
    1.1920   -0.5046   -0.0000 C   0  0  0  0  0  0  0  0  0  0  0  0
   -0.0681    0.3633    0.0000 C   0  0  0  0  0  0  0  0  0  0  0  0
   -1.3063   -0.5354    0.0000 C   0  0  0  0  0  0  0  0  0  0  0  0
   -2.5663    0.3324    0.0000 C   0  0  0  0  0  0  0  0  0  0  0  0
   -3.8046   -0.5662    0.0000 C   0  0  0  0  0  0  0  0  0  0  0  0
   -5.0646    0.3016    0.0000 C   0  0  0  0  0  0  0  0  0  0  0  0
   -6.3029   -0.5971    0.0000 C   0  0  0  0  0  0  0  0  0  0  0  0
   -7.5629    0.2708    0.0000 C   0  0  0  0  0  0  0  0  0  0  0  0
   -8.8012   -0.6279    0.0000 C   0  0  0  0  0  0  0  0  0  0  0  0
  -10.0612    0.2400   -0.0000 C   0  0  0  0  0  0  0  0  0  0  0  0
  -11.2995   -0.6587    0.0000 C   0  0  0  0  0  0  0  0  0  0  0  0
  -12.5595    0.2091   -0.0000 C   0  0  0  0  0  0  0  0  0  0  0  0
  -13.7977   -0.6896    0.0000 C   0  0  0  0  0  0  0  0  0  0  0  0
  -15.0388    0.1652   -0.0000 C   0  0  0  0  0  0  0  0  0  0  0  0
  -14.9428    1.3697   -0.0000 O   0  0  0  0  0  0  0  0  0  0  0  0
  -16.2510   -0.4114    0.0000 O   0  0  0  0  0  0  0  0  0  0  0  0
  -17.4020    0.4737   -0.0000 C   0  0  0  0  0  0  0  0  0  0  0  0
   19.5622    0.3515    0.0000 H   0  0  0  0  0  0  0  0  0  0  0  0
   18.6878   -0.9180    0.8900 H   0  0  0  0  0  0  0  0  0  0  0  0
   18.6878   -0.9180   -0.8900 H   0  0  0  0  0  0  0  0  0  0  0  0
   17.4122    1.2084    0.8900 H   0  0  0  0  0  0  0  0  0  0  0  0
   17.4122    1.2084   -0.8900 H   0  0  0  0  0  0  0  0  0  0  0  0
   16.1895   -0.9489   -0.8900 H   0  0  0  0  0  0  0  0  0  0  0  0
   16.1895   -0.9489    0.8900 H   0  0  0  0  0  0  0  0  0  0  0  0
   14.9139    1.1775    0.8900 H   0  0  0  0  0  0  0  0  0  0  0  0
   14.9139    1.1775   -0.8900 H   0  0  0  0  0  0  0  0  0  0  0  0
   13.6912   -0.9797   -0.8900 H   0  0  0  0  0  0  0  0  0  0  0  0
   13.6912   -0.9797    0.8900 H   0  0  0  0  0  0  0  0  0  0  0  0
   12.4156    1.1467    0.8900 H   0  0  0  0  0  0  0  0  0  0  0  0
   12.4156    1.1467   -0.8900 H   0  0  0  0  0  0  0  0  0  0  0  0
   11.1929   -1.0105   -0.8900 H   0  0  0  0  0  0  0  0  0  0  0  0
   11.1929   -1.0105    0.8900 H   0  0  0  0  0  0  0  0  0  0  0  0
    9.9173    1.1159    0.8900 H   0  0  0  0  0  0  0  0  0  0  0  0
    9.9173    1.1159   -0.8900 H   0  0  0  0  0  0  0  0  0  0  0  0
    8.6946   -1.0414   -0.8900 H   0  0  0  0  0  0  0  0  0  0  0  0
    8.6946   -1.0414    0.8900 H   0  0  0  0  0  0  0  0  0  0  0  0
    7.4190    1.0850    0.8900 H   0  0  0  0  0  0  0  0  0  0  0  0
    7.4190    1.0850   -0.8900 H   0  0  0  0  0  0  0  0  0  0  0  0
    6.1963   -1.0722   -0.8900 H   0  0  0  0  0  0  0  0  0  0  0  0
    6.1963   -1.0722    0.8900 H   0  0  0  0  0  0  0  0  0  0  0  0
    4.9208    1.0542    0.8900 H   0  0  0  0  0  0  0  0  0  0  0  0
    4.9208    1.0542   -0.8900 H   0  0  0  0  0  0  0  0  0  0  0  0
    3.6980   -1.1030   -0.8900 H   0  0  0  0  0  0  0  0  0  0  0  0
    3.6980   -1.1030    0.8900 H   0  0  0  0  0  0  0  0  0  0  0  0
    2.4225    1.0234    0.8900 H   0  0  0  0  0  0  0  0  0  0  0  0
    2.4225    1.0234   -0.8900 H   0  0  0  0  0  0  0  0  0  0  0  0
    1.1998   -1.1338   -0.8900 H   0  0  0  0  0  0  0  0  0  0  0  0
    1.1998   -1.1338    0.8900 H   0  0  0  0  0  0  0  0  0  0  0  0
   -0.0758    0.9925    0.8900 H   0  0  0  0  0  0  0  0  0  0  0  0
   -0.0758    0.9925   -0.8900 H   0  0  0  0  0  0  0  0  0  0  0  0
   -1.2985   -1.1647   -0.8900 H   0  0  0  0  0  0  0  0  0  0  0  0
   -1.2985   -1.1647    0.8900 H   0  0  0  0  0  0  0  0  0  0  0  0
   -2.5741    0.9617    0.8900 H   0  0  0  0  0  0  0  0  0  0  0  0
   -2.5741    0.9617   -0.8900 H   0  0  0  0  0  0  0  0  0  0  0  0
   -3.7968   -1.1955   -0.8900 H   0  0  0  0  0  0  0  0  0  0  0  0
   -3.7968   -1.1955    0.8900 H   0  0  0  0  0  0  0  0  0  0  0  0
   -5.0724    0.9309    0.8900 H   0  0  0  0  0  0  0  0  0  0  0  0
   -5.0724    0.9309   -0.8900 H   0  0  0  0  0  0  0  0  0  0  0  0
   -6.2951   -1.2263   -0.8900 H   0  0  0  0  0  0  0  0  0  0  0  0
   -6.2951   -1.2263    0.8900 H   0  0  0  0  0  0  0  0  0  0  0  0
   -7.5707    0.9001    0.8900 H   0  0  0  0  0  0  0  0  0  0  0  0
   -7.5707    0.9001   -0.8900 H   0  0  0  0  0  0  0  0  0  0  0  0
   -8.7934   -1.2572   -0.8900 H   0  0  0  0  0  0  0  0  0  0  0  0
   -8.7934   -1.2572    0.8900 H   0  0  0  0  0  0  0  0  0  0  0  0
  -10.0690    0.8692    0.8900 H   0  0  0  0  0  0  0  0  0  0  0  0
  -10.0690    0.8692   -0.8900 H   0  0  0  0  0  0  0  0  0  0  0  0
  -11.2917   -1.2880   -0.8900 H   0  0  0  0  0  0  0  0  0  0  0  0
  -11.2917   -1.2880    0.8900 H   0  0  0  0  0  0  0  0  0  0  0  0
  -12.5673    0.8384    0.8900 H   0  0  0  0  0  0  0  0  0  0  0  0
  -12.5673    0.8384   -0.8900 H   0  0  0  0  0  0  0  0  0  0  0  0
  -13.7900   -1.3188   -0.8900 H   0  0  0  0  0  0  0  0  0  0  0  0
  -13.7900   -1.3188    0.8900 H   0  0  0  0  0  0  0  0  0  0  0  0
  -18.3165   -0.1195   -0.0000 H   0  0  0  0  0  0  0  0  0  0  0  0
  -17.3768    1.1025    0.8900 H   0  0  0  0  0  0  0  0  0  0  0  0
  -17.3768    1.1025   -0.8900 H   0  0  0  0  0  0  0  0  0  0  0  0
  1  2  1  0  0  0  0
  2  3  1  0  0  0  0
  3  4  1  0  0  0  0
  4  5  1  0  0  0  0
  5  6  1  0  0  0  0
  6  7  1  0  0  0  0
  7  8  1  0  0  0  0
  8  9  1  0  0  0  0
  9 10  1  0  0  0  0
 10 11  1  0  0  0  0
 11 12  1  0  0  0  0
 12 13  1  0  0  0  0
 13 14  1  0  0  0  0
 14 15  1  0  0  0  0
 15 16  1  0  0  0  0
 16 17  1  0  0  0  0
 17 18  1  0  0  0  0
 18 19  1  0  0  0  0
 19 20  1  0  0  0  0
 20 21  1  0  0  0  0
 21 22  1  0  0  0  0
 22 23  1  0  0  0  0
 23 24  1  0  0  0  0
 24 25  1  0  0  0  0
 25 26  1  0  0  0  0
 26 27  1  0  0  0  0
 27 28  1  0  0  0  0
 28 29  2  0  0  0  0
 28 30  1  0  0  0  0
 30 31  1  0  0  0  0
  1 32  1  0  0  0  0
  1 33  1  0  0  0  0
  1 34  1  0  0  0  0
  2 35  1  0  0  0  0
  2 36  1  0  0  0  0
  3 37  1  0  0  0  0
  3 38  1  0  0  0  0
  4 39  1  0  0  0  0
  4 40  1  0  0  0  0
  5 41  1  0  0  0  0
  5 42  1  0  0  0  0
  6 43  1  0  0  0  0
  6 44  1  0  0  0  0
  7 45  1  0  0  0  0
  7 46  1  0  0  0  0
  8 47  1  0  0  0  0
  8 48  1  0  0  0  0
  9 49  1  0  0  0  0
  9 50  1  0  0  0  0
 10 51  1  0  0  0  0
 10 52  1  0  0  0  0
 11 53  1  0  0  0  0
 11 54  1  0  0  0  0
 12 55  1  0  0  0  0
 12 56  1  0  0  0  0
 13 57  1  0  0  0  0
 13 58  1  0  0  0  0
 14 59  1  0  0  0  0
 14 60  1  0  0  0  0
 15 61  1  0  0  0  0
 15 62  1  0  0  0  0
 16 63  1  0  0  0  0
 16 64  1  0  0  0  0
 17 65  1  0  0  0  0
 17 66  1  0  0  0  0
 18 67  1  0  0  0  0
 18 68  1  0  0  0  0
 19 69  1  0  0  0  0
 19 70  1  0  0  0  0
 20 71  1  0  0  0  0
 20 72  1  0  0  0  0
 21 73  1  0  0  0  0
 21 74  1  0  0  0  0
 22 75  1  0  0  0  0
 22 76  1  0  0  0  0
 23 77  1  0  0  0  0
 23 78  1  0  0  0  0
 24 79  1  0  0  0  0
 24 80  1  0  0  0  0
 25 81  1  0  0  0  0
 25 82  1  0  0  0  0
 26 83  1  0  0  0  0
 26 84  1  0  0  0  0
 27 85  1  0  0  0  0
 27 86  1  0  0  0  0
 31 87  1  0  0  0  0
 31 88  1  0  0  0  0
 31 89  1  0  0  0  0
M  END
$$$$
