C5H10N2O2
APtclcactv06211806503D 0   0.00000     0.00000
 
 19 19  0  0  0  0  0  0  0  0999 V2000
   -0.8280   -0.9769   -0.7530 C   0  0  0  0  0  0  0  0  0  0  0  0
   -2.2669   -0.6002   -0.3419 C   0  0  0  0  0  0  0  0  0  0  0  0
   -2.1664    0.3266    0.8004 N   0  0  0  0  0  0  0  0  0  0  0  0
   -0.7372    0.5189    1.1263 C   0  0  0  0  0  0  0  0  0  0  0  0
    0.0153    0.1968   -0.1889 C   0  0  0  0  0  0  0  0  0  0  0  0
    1.4298   -0.2408    0.0917 C   0  0  0  0  0  0  0  0  0  0  0  0
    1.6881   -1.4160    0.2012 O   0  0  0  0  0  0  0  0  0  0  0  0
    2.4027    0.6750    0.2199 O   0  0  0  0  0  0  0  0  0  0  0  0
   -0.0061    1.3469   -1.1026 N   0  0  0  0  0  0  0  0  0  0  0  0
   -0.5307   -1.9202   -0.2948 H   0  0  0  0  0  0  0  0  0  0  0  0
   -0.7384   -1.0292   -1.8380 H   0  0  0  0  0  0  0  0  0  0  0  0
   -2.7739   -0.1104   -1.1732 H   0  0  0  0  0  0  0  0  0  0  0  0
   -2.8144   -1.4951   -0.0462 H   0  0  0  0  0  0  0  0  0  0  0  0
   -2.6113    1.2078    0.5914 H   0  0  0  0  0  0  0  0  0  0  0  0
   -0.5518    1.5501    1.4268 H   0  0  0  0  0  0  0  0  0  0  0  0
   -0.4323   -0.1680    1.9159 H   0  0  0  0  0  0  0  0  0  0  0  0
    3.2942    0.3463    0.3996 H   0  0  0  0  0  0  0  0  0  0  0  0
    0.4556    2.1441   -0.6912 H   0  0  0  0  0  0  0  0  0  0  0  0
    0.4062    1.1095   -1.9923 H   0  0  0  0  0  0  0  0  0  0  0  0
  1  2  1  0  0  0  0
  2  3  1  0  0  0  0
  3  4  1  0  0  0  0
  4  5  1  0  0  0  0
  1  5  1  0  0  0  0
  5  6  1  0  0  0  0
  6  7  2  0  0  0  0
  6  8  1  0  0  0  0
  5  9  1  0  0  0  0
  1 10  1  0  0  0  0
  1 11  1  0  0  0  0
  2 12  1  0  0  0  0
  2 13  1  0  0  0  0
  3 14  1  0  0  0  0
  4 15  1  0  0  0  0
  4 16  1  0  0  0  0
  8 17  1  0  0  0  0
  9 18  1  0  0  0  0
  9 19  1  0  0  0  0
M  END
$$$$
