C21H39N7O
APtclcactv06211806503D 0   0.00000     0.00000
 
 68 69  0  0  0  0  0  0  0  0999 V2000
    8.0627   -2.3454    2.0953 C   0  0  0  0  0  0  0  0  0  0  0  0
    8.5029   -1.9592    0.6818 C   0  0  0  0  0  0  0  0  0  0  0  0
    7.7524   -0.7757    0.2414 N   0  0  0  0  0  0  0  0  0  0  0  0
    8.3930   -0.1493   -0.9227 C   0  0  0  0  0  0  0  0  0  0  0  0
    9.7549    0.4150   -0.5132 C   0  0  0  0  0  0  0  0  0  0  0  0
    6.3533   -1.1173   -0.0480 C   0  0  0  0  0  0  0  0  0  0  0  0
    5.5178    0.1630   -0.1086 C   0  0  0  0  0  0  0  0  0  0  0  0
    4.0562   -0.1944   -0.3857 C   0  0  0  0  0  0  0  0  0  0  0  0
    3.2207    1.0859   -0.4463 C   0  0  0  0  0  0  0  0  0  0  0  0
    3.6652    1.9288   -1.6432 C   0  0  0  0  0  0  0  0  0  0  0  0
    1.8049    0.7387   -0.5924 N   0  0  0  0  0  0  0  0  0  0  0  0
    1.2498    0.0298   -1.6158 C   0  0  0  0  0  0  0  0  0  0  0  0
   -0.0318   -0.0945   -1.4265 N   0  0  0  0  0  0  0  0  0  0  0  0
   -0.3794    0.5250   -0.2730 C   0  0  0  0  0  0  0  0  0  0  0  0
    0.7956    1.0623    0.2788 C   0  0  0  0  0  0  0  0  0  0  0  0
    0.7244    1.7277    1.4273 N   0  0  0  0  0  0  0  0  0  0  0  0
   -0.4289    1.8832    2.0421 C   0  0  0  0  0  0  0  0  0  0  0  0
   -1.5592    1.3967    1.5625 N   0  0  0  0  0  0  0  0  0  0  0  0
   -1.5859    0.7142    0.4226 C   0  0  0  0  0  0  0  0  0  0  0  0
   -2.7753    0.2085   -0.0723 N   0  0  0  0  0  0  0  0  0  0  0  0
   -4.0245    0.4232    0.6623 C   0  0  0  0  0  0  0  0  0  0  0  0
   -5.1807   -0.2327   -0.0951 C   0  0  0  0  0  0  0  0  0  0  0  0
   -6.4853   -0.0085    0.6720 C   0  0  0  0  0  0  0  0  0  0  0  0
   -7.5746   -0.7382    0.0095 N   0  0  0  0  0  0  0  0  0  0  0  0
   -7.3642   -2.1895    0.0946 C   0  0  0  0  0  0  0  0  0  0  0  0
   -8.2645   -2.8958   -0.9210 C   0  0  0  0  0  0  0  0  0  0  0  0
   -8.8786   -0.3615    0.5713 C   0  0  0  0  0  0  0  0  0  0  0  0
   -9.2833    1.0158    0.0419 C   0  0  0  0  0  0  0  0  0  0  0  0
   -5.2877    0.3477   -1.3966 O   0  0  0  0  0  0  0  0  0  0  0  0
    8.2596   -1.5173    2.7762 H   0  0  0  0  0  0  0  0  0  0  0  0
    6.9960   -2.5698    2.0950 H   0  0  0  0  0  0  0  0  0  0  0  0
    8.6187   -3.2243    2.4217 H   0  0  0  0  0  0  0  0  0  0  0  0
    9.5694   -1.7337    0.6823 H   0  0  0  0  0  0  0  0  0  0  0  0
    8.3071   -2.7877    0.0012 H   0  0  0  0  0  0  0  0  0  0  0  0
    8.5292   -0.8939   -1.7070 H   0  0  0  0  0  0  0  0  0  0  0  0
    7.7619    0.6582   -1.2940 H   0  0  0  0  0  0  0  0  0  0  0  0
    9.6187    1.1597    0.2711 H   0  0  0  0  0  0  0  0  0  0  0  0
   10.3860   -0.3924   -0.1419 H   0  0  0  0  0  0  0  0  0  0  0  0
   10.2302    0.8799   -1.3769 H   0  0  0  0  0  0  0  0  0  0  0  0
    6.2961   -1.6341   -1.0060 H   0  0  0  0  0  0  0  0  0  0  0  0
    5.9675   -1.7660    0.7384 H   0  0  0  0  0  0  0  0  0  0  0  0
    5.5890    0.6887    0.8436 H   0  0  0  0  0  0  0  0  0  0  0  0
    5.8926    0.8041   -0.9064 H   0  0  0  0  0  0  0  0  0  0  0  0
    3.9850   -0.7201   -1.3379 H   0  0  0  0  0  0  0  0  0  0  0  0
    3.6813   -0.8355    0.4122 H   0  0  0  0  0  0  0  0  0  0  0  0
    3.3621    1.6558    0.4720 H   0  0  0  0  0  0  0  0  0  0  0  0
    3.0700    2.8410   -1.6864 H   0  0  0  0  0  0  0  0  0  0  0  0
    4.7186    2.1872   -1.5345 H   0  0  0  0  0  0  0  0  0  0  0  0
    3.5238    1.3589   -2.5615 H   0  0  0  0  0  0  0  0  0  0  0  0
    1.7932   -0.3695   -2.4594 H   0  0  0  0  0  0  0  0  0  0  0  0
   -0.4518    2.4289    2.9738 H   0  0  0  0  0  0  0  0  0  0  0  0
   -2.7818   -0.2881   -0.9055 H   0  0  0  0  0  0  0  0  0  0  0  0
   -3.9429   -0.0195    1.6550 H   0  0  0  0  0  0  0  0  0  0  0  0
   -4.2117    1.4929    0.7558 H   0  0  0  0  0  0  0  0  0  0  0  0
   -4.9934   -1.3024   -0.1886 H   0  0  0  0  0  0  0  0  0  0  0  0
   -6.3732   -0.3719    1.6935 H   0  0  0  0  0  0  0  0  0  0  0  0
   -6.7186    1.0561    0.6888 H   0  0  0  0  0  0  0  0  0  0  0  0
   -6.3211   -2.4188   -0.1233 H   0  0  0  0  0  0  0  0  0  0  0  0
   -7.6097   -2.5339    1.0992 H   0  0  0  0  0  0  0  0  0  0  0  0
   -8.1547   -3.9751   -0.8151 H   0  0  0  0  0  0  0  0  0  0  0  0
   -9.3029   -2.6170   -0.7417 H   0  0  0  0  0  0  0  0  0  0  0  0
   -7.9774   -2.5986   -1.9296 H   0  0  0  0  0  0  0  0  0  0  0  0
   -9.6270   -1.0977    0.2780 H   0  0  0  0  0  0  0  0  0  0  0  0
   -8.8096   -0.3269    1.6585 H   0  0  0  0  0  0  0  0  0  0  0  0
   -8.5001    1.7381    0.2722 H   0  0  0  0  0  0  0  0  0  0  0  0
   -9.4232    0.9634   -1.0378 H   0  0  0  0  0  0  0  0  0  0  0  0
  -10.2150    1.3272    0.5143 H   0  0  0  0  0  0  0  0  0  0  0  0
   -5.4547    1.3001   -1.3900 H   0  0  0  0  0  0  0  0  0  0  0  0
  1  2  1  0  0  0  0
  2  3  1  0  0  0  0
  3  4  1  0  0  0  0
  4  5  1  0  0  0  0
  3  6  1  0  0  0  0
  6  7  1  0  0  0  0
  7  8  1  0  0  0  0
  8  9  1  0  0  0  0
  9 10  1  0  0  0  0
  9 11  1  0  0  0  0
 11 12  1  0  0  0  0
 12 13  2  0  0  0  0
 13 14  1  0  0  0  0
 14 15  2  0  0  0  0
 11 15  1  0  0  0  0
 15 16  1  0  0  0  0
 16 17  2  0  0  0  0
 17 18  1  0  0  0  0
 18 19  2  0  0  0  0
 14 19  1  0  0  0  0
 19 20  1  0  0  0  0
 20 21  1  0  0  0  0
 21 22  1  0  0  0  0
 22 23  1  0  0  0  0
 23 24  1  0  0  0  0
 24 25  1  0  0  0  0
 25 26  1  0  0  0  0
 24 27  1  0  0  0  0
 27 28  1  0  0  0  0
 22 29  1  0  0  0  0
  1 30  1  0  0  0  0
  1 31  1  0  0  0  0
  1 32  1  0  0  0  0
  2 33  1  0  0  0  0
  2 34  1  0  0  0  0
  4 35  1  0  0  0  0
  4 36  1  0  0  0  0
  5 37  1  0  0  0  0
  5 38  1  0  0  0  0
  5 39  1  0  0  0  0
  6 40  1  0  0  0  0
  6 41  1  0  0  0  0
  7 42  1  0  0  0  0
  7 43  1  0  0  0  0
  8 44  1  0  0  0  0
  8 45  1  0  0  0  0
  9 46  1  0  0  0  0
 10 47  1  0  0  0  0
 10 48  1  0  0  0  0
 10 49  1  0  0  0  0
 12 50  1  0  0  0  0
 17 51  1  0  0  0  0
 20 52  1  0  0  0  0
 21 53  1  0  0  0  0
 21 54  1  0  0  0  0
 22 55  1  0  0  0  0
 23 56  1  0  0  0  0
 23 57  1  0  0  0  0
 25 58  1  0  0  0  0
 25 59  1  0  0  0  0
 26 60  1  0  0  0  0
 26 61  1  0  0  0  0
 26 62  1  0  0  0  0
 27 63  1  0  0  0  0
 27 64  1  0  0  0  0
 28 65  1  0  0  0  0
 28 66  1  0  0  0  0
 28 67  1  0  0  0  0
 29 68  1  0  0  0  0
M  END
$$$$
