C24H28O7
APtclcactv06291802483D 0   0.00000     0.00000
 
 59 61  0  0  0  0  0  0  0  0999 V2000
    0.3366   -3.4387   -0.0485 C   0  0  0  0  0  0  0  0  0  0  0  0
   -0.8237   -3.4225   -1.0100 C   0  0  0  0  0  0  0  0  0  0  0  0
   -1.9602   -2.8756   -0.6559 C   0  0  0  0  0  0  0  0  0  0  0  0
   -2.0702   -2.1524    0.6616 C   0  0  0  0  0  0  0  0  0  0  0  0
   -2.5891   -0.7571    0.4270 C   0  0  0  0  0  0  0  0  0  0  0  0
   -3.9567   -0.5152    0.4439 C   0  0  0  0  0  0  0  0  0  0  0  0
   -4.4530    0.7651    0.2305 C   0  0  0  0  0  0  0  0  0  0  0  0
   -3.5835    1.8150   -0.0050 C   0  0  0  0  0  0  0  0  0  0  0  0
   -2.2004    1.5756   -0.0279 C   0  0  0  0  0  0  0  0  0  0  0  0
   -1.7013    0.2800    0.2010 C   0  0  0  0  0  0  0  0  0  0  0  0
   -0.3689    0.0406    0.1973 O   0  0  0  0  0  0  0  0  0  0  0  0
    0.4878    0.9460   -0.4984 C   0  0  0  0  0  0  0  0  0  0  0  0
    0.2090    2.3785   -0.0205 C   0  0  0  0  0  0  0  0  0  0  0  0
   -1.2560    2.6673   -0.2896 C   0  0  0  0  0  0  0  0  0  0  0  0
   -1.6277    3.7446   -0.7072 O   0  0  0  0  0  0  0  0  0  0  0  0
    1.9259    0.5933   -0.2184 C   0  0  0  0  0  0  0  0  0  0  0  0
    2.8447    0.5533   -1.2563 C   0  0  0  0  0  0  0  0  0  0  0  0
    4.1681    0.2287   -0.9986 C   0  0  0  0  0  0  0  0  0  0  0  0
    4.5727   -0.0555    0.2970 C   0  0  0  0  0  0  0  0  0  0  0  0
    3.6541   -0.0147    1.3350 C   0  0  0  0  0  0  0  0  0  0  0  0
    2.3316    0.3142    1.0780 C   0  0  0  0  0  0  0  0  0  0  0  0
    1.4314    0.3542    2.0952 O   0  0  0  0  0  0  0  0  0  0  0  0
    1.9167    0.0463    3.4035 C   0  0  0  0  0  0  0  0  0  0  0  0
    5.8694   -0.3745    0.5493 O   0  0  0  0  0  0  0  0  0  0  0  0
    6.2160   -0.6555    1.9069 C   0  0  0  0  0  0  0  0  0  0  0  0
    2.4482    0.8318   -2.5259 O   0  0  0  0  0  0  0  0  0  0  0  0
    3.4476    0.7718   -3.5456 C   0  0  0  0  0  0  0  0  0  0  0  0
   -4.0638    3.0661   -0.2126 O   0  0  0  0  0  0  0  0  0  0  0  0
   -4.8169   -1.5395    0.6708 O   0  0  0  0  0  0  0  0  0  0  0  0
   -6.2112   -1.2267    0.6759 C   0  0  0  0  0  0  0  0  0  0  0  0
   -0.6766   -4.0355   -2.3789 C   0  0  0  0  0  0  0  0  0  0  0  0
    0.0257   -3.9011    0.8883 H   0  0  0  0  0  0  0  0  0  0  0  0
    1.1584   -4.0099   -0.4804 H   0  0  0  0  0  0  0  0  0  0  0  0
    0.6649   -2.4170    0.1419 H   0  0  0  0  0  0  0  0  0  0  0  0
   -2.8183   -2.9430   -1.3082 H   0  0  0  0  0  0  0  0  0  0  0  0
   -2.7569   -2.6904    1.3151 H   0  0  0  0  0  0  0  0  0  0  0  0
   -1.0877   -2.1005    1.1307 H   0  0  0  0  0  0  0  0  0  0  0  0
   -5.5185    0.9406    0.2482 H   0  0  0  0  0  0  0  0  0  0  0  0
    0.2976    0.8764   -1.5694 H   0  0  0  0  0  0  0  0  0  0  0  0
    0.4096    2.4590    1.0479 H   0  0  0  0  0  0  0  0  0  0  0  0
    0.8345    3.0816   -0.5705 H   0  0  0  0  0  0  0  0  0  0  0  0
    4.8836    0.1969   -1.8070 H   0  0  0  0  0  0  0  0  0  0  0  0
    3.9691   -0.2364    2.3440 H   0  0  0  0  0  0  0  0  0  0  0  0
    2.6990    0.7544    3.6768 H   0  0  0  0  0  0  0  0  0  0  0  0
    1.0982    0.1148    4.1201 H   0  0  0  0  0  0  0  0  0  0  0  0
    2.3230   -0.9651    3.4116 H   0  0  0  0  0  0  0  0  0  0  0  0
    6.0036    0.2173    2.5243 H   0  0  0  0  0  0  0  0  0  0  0  0
    5.6311   -1.5035    2.2631 H   0  0  0  0  0  0  0  0  0  0  0  0
    7.2776   -0.8947    1.9688 H   0  0  0  0  0  0  0  0  0  0  0  0
    2.9990    1.0149   -4.5088 H   0  0  0  0  0  0  0  0  0  0  0  0
    4.2383    1.4879   -3.3220 H   0  0  0  0  0  0  0  0  0  0  0  0
    3.8678   -0.2333   -3.5838 H   0  0  0  0  0  0  0  0  0  0  0  0
   -4.1613    3.5890    0.5950 H   0  0  0  0  0  0  0  0  0  0  0  0
   -6.7861   -2.1326    0.8682 H   0  0  0  0  0  0  0  0  0  0  0  0
   -6.4163   -0.4938    1.4562 H   0  0  0  0  0  0  0  0  0  0  0  0
   -6.4948   -0.8151   -0.2927 H   0  0  0  0  0  0  0  0  0  0  0  0
   -0.9607   -5.0871   -2.3385 H   0  0  0  0  0  0  0  0  0  0  0  0
   -1.3228   -3.5113   -3.0830 H   0  0  0  0  0  0  0  0  0  0  0  0
    0.3600   -3.9514   -2.7051 H   0  0  0  0  0  0  0  0  0  0  0  0
  1  2  1  0  0  0  0
  2  3  2  0  0  0  0
  3  4  1  0  0  0  0
  4  5  1  0  0  0  0
  5  6  2  0  0  0  0
  6  7  1  0  0  0  0
  7  8  2  0  0  0  0
  8  9  1  0  0  0  0
  9 10  2  0  0  0  0
  5 10  1  0  0  0  0
 10 11  1  0  0  0  0
 11 12  1  0  0  0  0
 12 13  1  0  0  0  0
 13 14  1  0  0  0  0
  9 14  1  0  0  0  0
 14 15  2  0  0  0  0
 12 16  1  0  0  0  0
 16 17  2  0  0  0  0
 17 18  1  0  0  0  0
 18 19  2  0  0  0  0
 19 20  1  0  0  0  0
 20 21  2  0  0  0  0
 16 21  1  0  0  0  0
 21 22  1  0  0  0  0
 22 23  1  0  0  0  0
 19 24  1  0  0  0  0
 24 25  1  0  0  0  0
 17 26  1  0  0  0  0
 26 27  1  0  0  0  0
  8 28  1  0  0  0  0
  6 29  1  0  0  0  0
 29 30  1  0  0  0  0
  2 31  1  0  0  0  0
  1 32  1  0  0  0  0
  1 33  1  0  0  0  0
  1 34  1  0  0  0  0
  3 35  1  0  0  0  0
  4 36  1  0  0  0  0
  4 37  1  0  0  0  0
  7 38  1  0  0  0  0
 12 39  1  0  0  0  0
 13 40  1  0  0  0  0
 13 41  1  0  0  0  0
 18 42  1  0  0  0  0
 20 43  1  0  0  0  0
 23 44  1  0  0  0  0
 23 45  1  0  0  0  0
 23 46  1  0  0  0  0
 25 47  1  0  0  0  0
 25 48  1  0  0  0  0
 25 49  1  0  0  0  0
 27 50  1  0  0  0  0
 27 51  1  0  0  0  0
 27 52  1  0  0  0  0
 28 53  1  0  0  0  0
 30 54  1  0  0  0  0
 30 55  1  0  0  0  0
 30 56  1  0  0  0  0
 31 57  1  0  0  0  0
 31 58  1  0  0  0  0
 31 59  1  0  0  0  0
M  END
$$$$
