C19H18O4
APtclcactv06291802483D 0   0.00000     0.00000
 
 41 43  0  0  0  0  0  0  0  0999 V2000
    1.8552   -3.3851   -0.5856 C   0  0  0  0  0  0  0  0  0  0  0  0
    2.7257   -2.8524    0.5231 C   0  0  0  0  0  0  0  0  0  0  0  0
    3.3478   -1.7090    0.3755 C   0  0  0  0  0  0  0  0  0  0  0  0
    3.0966   -0.8670   -0.8489 C   0  0  0  0  0  0  0  0  0  0  0  0
    2.6883    0.5214   -0.4287 C   0  0  0  0  0  0  0  0  0  0  0  0
    3.6485    1.4991   -0.2380 C   0  0  0  0  0  0  0  0  0  0  0  0
    3.2829    2.7852    0.1502 C   0  0  0  0  0  0  0  0  0  0  0  0
    1.9681    3.0992    0.3484 C   0  0  0  0  0  0  0  0  0  0  0  0
    0.9864    2.1247    0.1604 C   0  0  0  0  0  0  0  0  0  0  0  0
    1.3469    0.8247   -0.2372 C   0  0  0  0  0  0  0  0  0  0  0  0
    0.2127    0.1027   -0.3414 O   0  0  0  0  0  0  0  0  0  0  0  0
   -0.8646    0.8535   -0.0358 C   0  0  0  0  0  0  0  0  0  0  0  0
   -0.4739    2.1111    0.2790 C   0  0  0  0  0  0  0  0  0  0  0  0
   -2.2635    0.3766   -0.0479 C   0  0  0  0  0  0  0  0  0  0  0  0
   -2.5493   -0.9445   -0.3944 C   0  0  0  0  0  0  0  0  0  0  0  0
   -3.8616   -1.3874   -0.4040 C   0  0  0  0  0  0  0  0  0  0  0  0
   -4.8912   -0.5196   -0.0696 C   0  0  0  0  0  0  0  0  0  0  0  0
   -4.6114    0.7949    0.2752 C   0  0  0  0  0  0  0  0  0  0  0  0
   -3.3016    1.2445    0.2929 C   0  0  0  0  0  0  0  0  0  0  0  0
   -5.6237    1.6410    0.6015 O   0  0  0  0  0  0  0  0  0  0  0  0
   -4.1411   -2.6738   -0.7418 O   0  0  0  0  0  0  0  0  0  0  0  0
    4.9605    1.2012   -0.4310 O   0  0  0  0  0  0  0  0  0  0  0  0
    2.8806   -3.6349    1.8017 C   0  0  0  0  0  0  0  0  0  0  0  0
    2.4345   -3.4415   -1.5072 H   0  0  0  0  0  0  0  0  0  0  0  0
    1.4970   -4.3798   -0.3203 H   0  0  0  0  0  0  0  0  0  0  0  0
    1.0044   -2.7195   -0.7314 H   0  0  0  0  0  0  0  0  0  0  0  0
    4.0406   -1.3697    1.1313 H   0  0  0  0  0  0  0  0  0  0  0  0
    4.0071   -0.8130   -1.4457 H   0  0  0  0  0  0  0  0  0  0  0  0
    2.2998   -1.3164   -1.4415 H   0  0  0  0  0  0  0  0  0  0  0  0
    4.0428    3.5387    0.2958 H   0  0  0  0  0  0  0  0  0  0  0  0
    1.6891    4.0981    0.6499 H   0  0  0  0  0  0  0  0  0  0  0  0
   -1.1096    2.9358    0.5656 H   0  0  0  0  0  0  0  0  0  0  0  0
   -1.7485   -1.6205   -0.6552 H   0  0  0  0  0  0  0  0  0  0  0  0
   -5.9133   -0.8682   -0.0780 H   0  0  0  0  0  0  0  0  0  0  0  0
   -3.0846    2.2678    0.5617 H   0  0  0  0  0  0  0  0  0  0  0  0
   -5.8425    1.6478    1.5434 H   0  0  0  0  0  0  0  0  0  0  0  0
   -4.1476   -3.2847    0.0077 H   0  0  0  0  0  0  0  0  0  0  0  0
    5.2688    1.3505   -1.3353 H   0  0  0  0  0  0  0  0  0  0  0  0
    3.7273   -4.3154    1.7108 H   0  0  0  0  0  0  0  0  0  0  0  0
    3.0542   -2.9475    2.6296 H   0  0  0  0  0  0  0  0  0  0  0  0
    1.9725   -4.2078    1.9893 H   0  0  0  0  0  0  0  0  0  0  0  0
  1  2  1  0  0  0  0
  2  3  2  0  0  0  0
  3  4  1  0  0  0  0
  4  5  1  0  0  0  0
  5  6  2  0  0  0  0
  6  7  1  0  0  0  0
  7  8  2  0  0  0  0
  8  9  1  0  0  0  0
  9 10  2  0  0  0  0
  5 10  1  0  0  0  0
 10 11  1  0  0  0  0
 11 12  1  0  0  0  0
 12 13  2  0  0  0  0
  9 13  1  0  0  0  0
 12 14  1  0  0  0  0
 14 15  2  0  0  0  0
 15 16  1  0  0  0  0
 16 17  2  0  0  0  0
 17 18  1  0  0  0  0
 18 19  2  0  0  0  0
 14 19  1  0  0  0  0
 18 20  1  0  0  0  0
 16 21  1  0  0  0  0
  6 22  1  0  0  0  0
  2 23  1  0  0  0  0
  1 24  1  0  0  0  0
  1 25  1  0  0  0  0
  1 26  1  0  0  0  0
  3 27  1  0  0  0  0
  4 28  1  0  0  0  0
  4 29  1  0  0  0  0
  7 30  1  0  0  0  0
  8 31  1  0  0  0  0
 13 32  1  0  0  0  0
 15 33  1  0  0  0  0
 17 34  1  0  0  0  0
 19 35  1  0  0  0  0
 20 36  1  0  0  0  0
 21 37  1  0  0  0  0
 22 38  1  0  0  0  0
 23 39  1  0  0  0  0
 23 40  1  0  0  0  0
 23 41  1  0  0  0  0
M  END
$$$$
