C15H12O5
APtclcactv06291802483D 0   0.00000     0.00000
 
 32 33  0  0  0  0  0  0  0  0999 V2000
   -3.2196   -0.8737   -0.0098 C   0  0  0  0  0  0  0  0  0  0  0  0
   -4.4655   -1.4588   -0.0086 C   0  0  0  0  0  0  0  0  0  0  0  0
   -5.6082   -0.6667   -0.0052 C   0  0  0  0  0  0  0  0  0  0  0  0
   -5.4993    0.7194   -0.0029 C   0  0  0  0  0  0  0  0  0  0  0  0
   -4.2582    1.3147   -0.0046 C   0  0  0  0  0  0  0  0  0  0  0  0
   -3.1042    0.5217   -0.0076 C   0  0  0  0  0  0  0  0  0  0  0  0
   -1.7768    1.1517   -0.0089 C   0  0  0  0  0  0  0  0  0  0  0  0
   -0.6646    0.3841   -0.0118 C   0  0  0  0  0  0  0  0  0  0  0  0
    0.6561    1.0109   -0.0131 C   0  0  0  0  0  0  0  0  0  0  0  0
    0.7540    2.2251   -0.0115 O   0  0  0  0  0  0  0  0  0  0  0  0
    1.8695    0.1735   -0.0163 C   0  0  0  0  0  0  0  0  0  0  0  0
    3.1378    0.7722   -0.0175 C   0  0  0  0  0  0  0  0  0  0  0  0
    4.2745   -0.0239   -0.0200 C   0  0  0  0  0  0  0  0  0  0  0  0
    4.1522   -1.4089   -0.0213 C   0  0  0  0  0  0  0  0  0  0  0  0
    2.8936   -2.0010   -0.0201 C   0  0  0  0  0  0  0  0  0  0  0  0
    1.7600   -1.2212   -0.0122 C   0  0  0  0  0  0  0  0  0  0  0  0
    5.2658   -2.1864   -0.0242 O   0  0  0  0  0  0  0  0  0  0  0  0
    5.5083    0.5507   -0.0217 O   0  0  0  0  0  0  0  0  0  0  0  0
    3.2530    2.1251   -0.0167 O   0  0  0  0  0  0  0  0  0  0  0  0
   -6.8344   -1.2487   -0.0044 O   0  0  0  0  0  0  0  0  0  0  0  0
   -2.3326   -1.4899   -0.0080 H   0  0  0  0  0  0  0  0  0  0  0  0
   -4.5556   -2.5350   -0.0107 H   0  0  0  0  0  0  0  0  0  0  0  0
   -6.3900    1.3301   -0.0002 H   0  0  0  0  0  0  0  0  0  0  0  0
   -4.1747    2.3914   -0.0035 H   0  0  0  0  0  0  0  0  0  0  0  0
   -1.6900    2.2282   -0.0075 H   0  0  0  0  0  0  0  0  0  0  0  0
   -0.7514   -0.6924   -0.0132 H   0  0  0  0  0  0  0  0  0  0  0  0
    2.8058   -3.0774   -0.0215 H   0  0  0  0  0  0  0  0  0  0  0  0
    0.7852   -1.6860   -0.0113 H   0  0  0  0  0  0  0  0  0  0  0  0
    5.5900   -2.4126    0.8583 H   0  0  0  0  0  0  0  0  0  0  0  0
    5.8663    0.7161    0.8612 H   0  0  0  0  0  0  0  0  0  0  0  0
    3.2875    2.5163    0.8670 H   0  0  0  0  0  0  0  0  0  0  0  0
   -7.1883   -1.4192    0.8792 H   0  0  0  0  0  0  0  0  0  0  0  0
  1  2  2  0  0  0  0
  2  3  1  0  0  0  0
  3  4  2  0  0  0  0
  4  5  1  0  0  0  0
  5  6  2  0  0  0  0
  1  6  1  0  0  0  0
  6  7  1  0  0  0  0
  7  8  2  0  0  0  0
  8  9  1  0  0  0  0
  9 10  2  0  0  0  0
  9 11  1  0  0  0  0
 11 12  2  0  0  0  0
 12 13  1  0  0  0  0
 13 14  2  0  0  0  0
 14 15  1  0  0  0  0
 15 16  2  0  0  0  0
 11 16  1  0  0  0  0
 14 17  1  0  0  0  0
 13 18  1  0  0  0  0
 12 19  1  0  0  0  0
  3 20  1  0  0  0  0
  1 21  1  0  0  0  0
  2 22  1  0  0  0  0
  4 23  1  0  0  0  0
  5 24  1  0  0  0  0
  7 25  1  0  0  0  0
  8 26  1  0  0  0  0
 15 27  1  0  0  0  0
 16 28  1  0  0  0  0
 17 29  1  0  0  0  0
 18 30  1  0  0  0  0
 19 31  1  0  0  0  0
 20 32  1  0  0  0  0
M  END
$$$$
