C18H18O6
APtclcactv06291802483D 0   0.00000     0.00000
 
 42 44  0  0  0  0  0  0  0  0999 V2000
    6.2256    2.0240    1.0587 C   0  0  0  0  0  0  0  0  0  0  0  0
    5.8834    0.8076    0.3915 O   0  0  0  0  0  0  0  0  0  0  0  0
    4.5601    0.5421    0.2329 C   0  0  0  0  0  0  0  0  0  0  0  0
    4.1575   -0.6205   -0.4055 C   0  0  0  0  0  0  0  0  0  0  0  0
    2.8066   -0.8886   -0.5658 C   0  0  0  0  0  0  0  0  0  0  0  0
    1.8612    0.0071   -0.0870 C   0  0  0  0  0  0  0  0  0  0  0  0
    2.2651    1.1657    0.5488 C   0  0  0  0  0  0  0  0  0  0  0  0
    3.6105    1.4320    0.7152 C   0  0  0  0  0  0  0  0  0  0  0  0
    0.3928   -0.2836   -0.2608 C   0  0  0  0  0  0  0  0  0  0  0  0
   -0.0914   -1.1812    0.8873 C   0  0  0  0  0  0  0  0  0  0  0  0
   -1.5776   -1.4123    0.6808 C   0  0  0  0  0  0  0  0  0  0  0  0
   -2.0886   -2.4951    0.8795 O   0  0  0  0  0  0  0  0  0  0  0  0
   -2.3646   -0.2595    0.2292 C   0  0  0  0  0  0  0  0  0  0  0  0
   -3.7674   -0.2961    0.2538 C   0  0  0  0  0  0  0  0  0  0  0  0
   -4.4856    0.8008   -0.1886 C   0  0  0  0  0  0  0  0  0  0  0  0
   -3.8192    1.9284   -0.6514 C   0  0  0  0  0  0  0  0  0  0  0  0
   -2.4307    1.9722   -0.6734 C   0  0  0  0  0  0  0  0  0  0  0  0
   -1.6931    0.8880   -0.2328 C   0  0  0  0  0  0  0  0  0  0  0  0
   -0.3404    0.9410   -0.2448 O   0  0  0  0  0  0  0  0  0  0  0  0
   -4.5316    2.9978   -1.0869 O   0  0  0  0  0  0  0  0  0  0  0  0
   -4.4141   -1.3984    0.7074 O   0  0  0  0  0  0  0  0  0  0  0  0
   -5.8426   -1.3607    0.7019 C   0  0  0  0  0  0  0  0  0  0  0  0
    2.4088   -2.0273   -1.1918 O   0  0  0  0  0  0  0  0  0  0  0  0
    3.4364   -2.9033   -1.6596 C   0  0  0  0  0  0  0  0  0  0  0  0
    5.8219    2.8697    0.5021 H   0  0  0  0  0  0  0  0  0  0  0  0
    5.8057    2.0172    2.0646 H   0  0  0  0  0  0  0  0  0  0  0  0
    7.3104    2.1129    1.1185 H   0  0  0  0  0  0  0  0  0  0  0  0
    4.8949   -1.3163   -0.7779 H   0  0  0  0  0  0  0  0  0  0  0  0
    1.5277    1.8618    0.9206 H   0  0  0  0  0  0  0  0  0  0  0  0
    3.9237    2.3382    1.2124 H   0  0  0  0  0  0  0  0  0  0  0  0
    0.2326   -0.7915   -1.2119 H   0  0  0  0  0  0  0  0  0  0  0  0
    0.4391   -2.1331    0.8632 H   0  0  0  0  0  0  0  0  0  0  0  0
    0.0778   -0.6851    1.8429 H   0  0  0  0  0  0  0  0  0  0  0  0
   -5.5653    0.7801   -0.1744 H   0  0  0  0  0  0  0  0  0  0  0  0
   -1.9257    2.8555   -1.0357 H   0  0  0  0  0  0  0  0  0  0  0  0
   -4.7360    3.6422   -0.3954 H   0  0  0  0  0  0  0  0  0  0  0  0
   -6.1868   -0.5396    1.3308 H   0  0  0  0  0  0  0  0  0  0  0  0
   -6.1982   -1.2112   -0.3175 H   0  0  0  0  0  0  0  0  0  0  0  0
   -6.2324   -2.3024    1.0883 H   0  0  0  0  0  0  0  0  0  0  0  0
    4.0466   -3.2298   -0.8175 H   0  0  0  0  0  0  0  0  0  0  0  0
    2.9835   -3.7715   -2.1383 H   0  0  0  0  0  0  0  0  0  0  0  0
    4.0627   -2.3768   -2.3797 H   0  0  0  0  0  0  0  0  0  0  0  0
  1  2  1  0  0  0  0
  2  3  1  0  0  0  0
  3  4  2  0  0  0  0
  4  5  1  0  0  0  0
  5  6  2  0  0  0  0
  6  7  1  0  0  0  0
  7  8  2  0  0  0  0
  3  8  1  0  0  0  0
  6  9  1  0  0  0  0
  9 10  1  0  0  0  0
 10 11  1  0  0  0  0
 11 12  2  0  0  0  0
 11 13  1  0  0  0  0
 13 14  2  0  0  0  0
 14 15  1  0  0  0  0
 15 16  2  0  0  0  0
 16 17  1  0  0  0  0
 17 18  2  0  0  0  0
 13 18  1  0  0  0  0
 18 19  1  0  0  0  0
  9 19  1  0  0  0  0
 16 20  1  0  0  0  0
 14 21  1  0  0  0  0
 21 22  1  0  0  0  0
  5 23  1  0  0  0  0
 23 24  1  0  0  0  0
  1 25  1  0  0  0  0
  1 26  1  0  0  0  0
  1 27  1  0  0  0  0
  4 28  1  0  0  0  0
  7 29  1  0  0  0  0
  8 30  1  0  0  0  0
  9 31  1  0  0  0  0
 10 32  1  0  0  0  0
 10 33  1  0  0  0  0
 15 34  1  0  0  0  0
 17 35  1  0  0  0  0
 20 36  1  0  0  0  0
 22 37  1  0  0  0  0
 22 38  1  0  0  0  0
 22 39  1  0  0  0  0
 24 40  1  0  0  0  0
 24 41  1  0  0  0  0
 24 42  1  0  0  0  0
M  END
$$$$
