C16H25NO3
APtclcactv06211806223D 0   0.00000     0.00000
 
 45 45  0  0  0  0  0  0  0  0999 V2000
    9.7434   -0.7780    0.0000 C   0  0  0  0  0  0  0  0  0  0  0  0
    8.5735    0.2079   -0.0048 C   0  0  0  0  0  0  0  0  0  0  0  0
    7.2539   -0.5665    0.0009 C   0  0  0  0  0  0  0  0  0  0  0  0
    6.0840    0.4195   -0.0040 C   0  0  0  0  0  0  0  0  0  0  0  0
    4.7644   -0.3549    0.0017 C   0  0  0  0  0  0  0  0  0  0  0  0
    3.5944    0.6310   -0.0032 C   0  0  0  0  0  0  0  0  0  0  0  0
    2.2749   -0.1434    0.0025 C   0  0  0  0  0  0  0  0  0  0  0  0
    1.1049    0.8425   -0.0023 C   0  0  0  0  0  0  0  0  0  0  0  0
   -0.1585    0.1010    0.0031 N   0  0  0  0  0  0  0  0  0  0  0  0
   -1.3305    0.7665    0.0001 C   0  0  0  0  0  0  0  0  0  0  0  0
   -1.3392    1.9823   -0.0071 O   0  0  0  0  0  0  0  0  0  0  0  0
   -2.6035    0.0194    0.0056 C   0  0  0  0  0  0  0  0  0  0  0  0
   -3.8195    0.7079    0.0026 C   0  0  0  0  0  0  0  0  0  0  0  0
   -5.0081    0.0042    0.0073 C   0  0  0  0  0  0  0  0  0  0  0  0
   -4.9927   -1.3897    0.0150 C   0  0  0  0  0  0  0  0  0  0  0  0
   -3.7845   -2.0736    0.0181 C   0  0  0  0  0  0  0  0  0  0  0  0
   -2.5953   -1.3776    0.0081 C   0  0  0  0  0  0  0  0  0  0  0  0
   -6.1621   -2.0802    0.0201 O   0  0  0  0  0  0  0  0  0  0  0  0
   -6.1933    0.6712    0.0047 O   0  0  0  0  0  0  0  0  0  0  0  0
   -6.1343    2.0989   -0.0028 C   0  0  0  0  0  0  0  0  0  0  0  0
    9.6909   -1.3997    0.8938 H   0  0  0  0  0  0  0  0  0  0  0  0
    9.6894   -1.4103   -0.8862 H   0  0  0  0  0  0  0  0  0  0  0  0
   10.6835   -0.2263   -0.0040 H   0  0  0  0  0  0  0  0  0  0  0  0
    8.6275    0.8403    0.8814 H   0  0  0  0  0  0  0  0  0  0  0  0
    8.6260    0.8297   -0.8986 H   0  0  0  0  0  0  0  0  0  0  0  0
    7.1999   -1.1988   -0.8853 H   0  0  0  0  0  0  0  0  0  0  0  0
    7.2014   -1.1882    0.8946 H   0  0  0  0  0  0  0  0  0  0  0  0
    6.1380    1.0518    0.8822 H   0  0  0  0  0  0  0  0  0  0  0  0
    6.1365    1.0412   -0.8977 H   0  0  0  0  0  0  0  0  0  0  0  0
    4.7104   -0.9873   -0.8845 H   0  0  0  0  0  0  0  0  0  0  0  0
    4.7119   -0.9767    0.8954 H   0  0  0  0  0  0  0  0  0  0  0  0
    3.6485    1.2633    0.8830 H   0  0  0  0  0  0  0  0  0  0  0  0
    3.6470    1.2527   -0.8969 H   0  0  0  0  0  0  0  0  0  0  0  0
    2.2209   -0.7758   -0.8837 H   0  0  0  0  0  0  0  0  0  0  0  0
    2.2224   -0.7652    0.8963 H   0  0  0  0  0  0  0  0  0  0  0  0
    1.1590    1.4748    0.8839 H   0  0  0  0  0  0  0  0  0  0  0  0
    1.1575    1.4642   -0.8961 H   0  0  0  0  0  0  0  0  0  0  0  0
   -0.1516   -0.8690    0.0089 H   0  0  0  0  0  0  0  0  0  0  0  0
   -3.8299    1.7879   -0.0031 H   0  0  0  0  0  0  0  0  0  0  0  0
   -3.7766   -3.1535    0.0241 H   0  0  0  0  0  0  0  0  0  0  0  0
   -1.6568   -1.9120    0.0105 H   0  0  0  0  0  0  0  0  0  0  0  0
   -6.5016   -2.2851   -0.8618 H   0  0  0  0  0  0  0  0  0  0  0  0
   -5.6051    2.4454    0.8849 H   0  0  0  0  0  0  0  0  0  0  0  0
   -5.6066    2.4360   -0.8950 H   0  0  0  0  0  0  0  0  0  0  0  0
   -7.1460    2.5044   -0.0041 H   0  0  0  0  0  0  0  0  0  0  0  0
  1  2  1  0  0  0  0
  2  3  1  0  0  0  0
  3  4  1  0  0  0  0
  4  5  1  0  0  0  0
  5  6  1  0  0  0  0
  6  7  1  0  0  0  0
  7  8  1  0  0  0  0
  8  9  1  0  0  0  0
  9 10  1  0  0  0  0
 10 11  2  0  0  0  0
 10 12  1  0  0  0  0
 12 13  2  0  0  0  0
 13 14  1  0  0  0  0
 14 15  2  0  0  0  0
 15 16  1  0  0  0  0
 16 17  2  0  0  0  0
 12 17  1  0  0  0  0
 15 18  1  0  0  0  0
 14 19  1  0  0  0  0
 19 20  1  0  0  0  0
  1 21  1  0  0  0  0
  1 22  1  0  0  0  0
  1 23  1  0  0  0  0
  2 24  1  0  0  0  0
  2 25  1  0  0  0  0
  3 26  1  0  0  0  0
  3 27  1  0  0  0  0
  4 28  1  0  0  0  0
  4 29  1  0  0  0  0
  5 30  1  0  0  0  0
  5 31  1  0  0  0  0
  6 32  1  0  0  0  0
  6 33  1  0  0  0  0
  7 34  1  0  0  0  0
  7 35  1  0  0  0  0
  8 36  1  0  0  0  0
  8 37  1  0  0  0  0
  9 38  1  0  0  0  0
 13 39  1  0  0  0  0
 16 40  1  0  0  0  0
 17 41  1  0  0  0  0
 18 42  1  0  0  0  0
 20 43  1  0  0  0  0
 20 44  1  0  0  0  0
 20 45  1  0  0  0  0
M  END
$$$$
