C27H32O15
APtclcactv06281816393D 0   0.00000     0.00000
 
 74 78  0  0  0  0  0  0  0  0999 V2000
    6.0519    0.7874   -2.3654 C   0  0  0  0  0  0  0  0  0  0  0  0
    6.5522    1.1831   -0.9747 C   0  0  0  0  0  0  0  0  0  0  0  0
    6.6278    2.7089   -0.8744 C   0  0  0  0  0  0  0  0  0  0  0  0
    5.2228    3.2943   -1.0469 C   0  0  0  0  0  0  0  0  0  0  0  0
    4.2954    2.6874    0.0103 C   0  0  0  0  0  0  0  0  0  0  0  0
    4.3099    1.1625   -0.1242 C   0  0  0  0  0  0  0  0  0  0  0  0
    5.6499    0.6860    0.0157 O   0  0  0  0  0  0  0  0  0  0  0  0
    3.4905    0.5863    0.8950 O   0  0  0  0  0  0  0  0  0  0  0  0
    3.3441   -0.8313    0.7908 C   0  0  0  0  0  0  0  0  0  0  0  0
    3.1462   -1.4295    2.1870 C   0  0  0  0  0  0  0  0  0  0  0  0
    2.9129   -2.9377    2.0559 C   0  0  0  0  0  0  0  0  0  0  0  0
    1.7086   -3.1825    1.1430 C   0  0  0  0  0  0  0  0  0  0  0  0
    1.9450   -2.5743   -0.1284 O   0  0  0  0  0  0  0  0  0  0  0  0
    2.1232   -1.1575   -0.0733 C   0  0  0  0  0  0  0  0  0  0  0  0
    0.9607   -0.5527    0.4967 O   0  0  0  0  0  0  0  0  0  0  0  0
   -0.1956   -0.6586   -0.2050 C   0  0  0  0  0  0  0  0  0  0  0  0
   -0.2035   -1.3336   -1.4192 C   0  0  0  0  0  0  0  0  0  0  0  0
   -1.3788   -1.4494   -2.1402 C   0  0  0  0  0  0  0  0  0  0  0  0
   -2.5589   -0.8825   -1.6344 C   0  0  0  0  0  0  0  0  0  0  0  0
   -3.8220   -1.0011   -2.3710 C   0  0  0  0  0  0  0  0  0  0  0  0
   -3.9430   -1.7580   -3.3121 O   0  0  0  0  0  0  0  0  0  0  0  0
   -4.9702   -0.1291   -1.8955 C   0  0  0  0  0  0  0  0  0  0  0  0
   -4.9367   -0.1314   -0.3602 C   0  0  0  0  0  0  0  0  0  0  0  0
   -3.6752    0.3666    0.0852 O   0  0  0  0  0  0  0  0  0  0  0  0
   -2.5453   -0.1936   -0.4071 C   0  0  0  0  0  0  0  0  0  0  0  0
   -1.3608   -0.0958    0.3008 C   0  0  0  0  0  0  0  0  0  0  0  0
   -6.0399    0.7488    0.1683 C   0  0  0  0  0  0  0  0  0  0  0  0
   -7.2175    0.1825    0.6196 C   0  0  0  0  0  0  0  0  0  0  0  0
   -8.2329    0.9904    1.1059 C   0  0  0  0  0  0  0  0  0  0  0  0
   -8.0639    2.3712    1.1386 C   0  0  0  0  0  0  0  0  0  0  0  0
   -6.8810    2.9323    0.6847 C   0  0  0  0  0  0  0  0  0  0  0  0
   -5.8698    2.1203    0.2060 C   0  0  0  0  0  0  0  0  0  0  0  0
   -9.0577    3.1683    1.6145 O   0  0  0  0  0  0  0  0  0  0  0  0
   -9.3921    0.4350    1.5499 O   0  0  0  0  0  0  0  0  0  0  0  0
   -1.3903   -2.1054   -3.3271 O   0  0  0  0  0  0  0  0  0  0  0  0
    1.5056   -4.6877    0.9586 C   0  0  0  0  0  0  0  0  0  0  0  0
    0.3149   -4.9188    0.2032 O   0  0  0  0  0  0  0  0  0  0  0  0
    4.0727   -3.5531    1.4918 O   0  0  0  0  0  0  0  0  0  0  0  0
    4.3126   -1.1932    2.9780 O   0  0  0  0  0  0  0  0  0  0  0  0
    4.7510    3.0562    1.3136 O   0  0  0  0  0  0  0  0  0  0  0  0
    5.2724    4.7129   -0.8817 O   0  0  0  0  0  0  0  0  0  0  0  0
    7.1452    3.0783    0.4054 O   0  0  0  0  0  0  0  0  0  0  0  0
    6.7397    1.1675   -3.1207 H   0  0  0  0  0  0  0  0  0  0  0  0
    5.9982   -0.2989   -2.4367 H   0  0  0  0  0  0  0  0  0  0  0  0
    5.0614    1.2117   -2.5295 H   0  0  0  0  0  0  0  0  0  0  0  0
    7.5426    0.7586   -0.8103 H   0  0  0  0  0  0  0  0  0  0  0  0
    7.2813    3.0935   -1.6573 H   0  0  0  0  0  0  0  0  0  0  0  0
    4.8476    3.0547   -2.0419 H   0  0  0  0  0  0  0  0  0  0  0  0
    3.2809    3.0566   -0.1399 H   0  0  0  0  0  0  0  0  0  0  0  0
    3.9242    0.8803   -1.1038 H   0  0  0  0  0  0  0  0  0  0  0  0
    4.2381   -1.2574    0.3354 H   0  0  0  0  0  0  0  0  0  0  0  0
    2.2815   -0.9667    2.6627 H   0  0  0  0  0  0  0  0  0  0  0  0
    2.7162   -3.3627    3.0402 H   0  0  0  0  0  0  0  0  0  0  0  0
    0.8165   -2.7477    1.5937 H   0  0  0  0  0  0  0  0  0  0  0  0
    2.2772   -0.7710   -1.0808 H   0  0  0  0  0  0  0  0  0  0  0  0
    0.7086   -1.7681   -1.8009 H   0  0  0  0  0  0  0  0  0  0  0  0
   -4.8433    0.8874   -2.2681 H   0  0  0  0  0  0  0  0  0  0  0  0
   -5.9174   -0.5385   -2.2467 H   0  0  0  0  0  0  0  0  0  0  0  0
   -5.0757   -1.1488    0.0052 H   0  0  0  0  0  0  0  0  0  0  0  0
   -1.3408    0.4235    1.2476 H   0  0  0  0  0  0  0  0  0  0  0  0
   -7.3463   -0.8894    0.5929 H   0  0  0  0  0  0  0  0  0  0  0  0
   -6.7474    4.0038    0.7089 H   0  0  0  0  0  0  0  0  0  0  0  0
   -4.9484    2.5589   -0.1475 H   0  0  0  0  0  0  0  0  0  0  0  0
   -9.0046    3.3380    2.5650 H   0  0  0  0  0  0  0  0  0  0  0  0
   -9.3868    0.2132    2.4911 H   0  0  0  0  0  0  0  0  0  0  0  0
   -1.5765   -3.0513   -3.2518 H   0  0  0  0  0  0  0  0  0  0  0  0
    2.3601   -5.1072    0.4275 H   0  0  0  0  0  0  0  0  0  0  0  0
    1.4149   -5.1643    1.9347 H   0  0  0  0  0  0  0  0  0  0  0  0
    0.1231   -5.8537    0.0475 H   0  0  0  0  0  0  0  0  0  0  0  0
    3.9950   -4.5104    1.3800 H   0  0  0  0  0  0  0  0  0  0  0  0
    4.2566   -1.5460    3.8766 H   0  0  0  0  0  0  0  0  0  0  0  0
    4.2090    2.7055    2.0336 H   0  0  0  0  0  0  0  0  0  0  0  0
    4.4154    5.1503   -0.9780 H   0  0  0  0  0  0  0  0  0  0  0  0
    8.0319    2.7367    0.5847 H   0  0  0  0  0  0  0  0  0  0  0  0
  1  2  1  0  0  0  0
  2  3  1  0  0  0  0
  3  4  1  0  0  0  0
  4  5  1  0  0  0  0
  5  6  1  0  0  0  0
  6  7  1  0  0  0  0
  2  7  1  0  0  0  0
  6  8  1  0  0  0  0
  8  9  1  0  0  0  0
  9 10  1  0  0  0  0
 10 11  1  0  0  0  0
 11 12  1  0  0  0  0
 12 13  1  0  0  0  0
 13 14  1  0  0  0  0
  9 14  1  0  0  0  0
 14 15  1  0  0  0  0
 15 16  1  0  0  0  0
 16 17  2  0  0  0  0
 17 18  1  0  0  0  0
 18 19  2  0  0  0  0
 19 20  1  0  0  0  0
 20 21  2  0  0  0  0
 20 22  1  0  0  0  0
 22 23  1  0  0  0  0
 23 24  1  0  0  0  0
 24 25  1  0  0  0  0
 19 25  1  0  0  0  0
 25 26  2  0  0  0  0
 16 26  1  0  0  0  0
 23 27  1  0  0  0  0
 27 28  2  0  0  0  0
 28 29  1  0  0  0  0
 29 30  2  0  0  0  0
 30 31  1  0  0  0  0
 31 32  2  0  0  0  0
 27 32  1  0  0  0  0
 30 33  1  0  0  0  0
 29 34  1  0  0  0  0
 18 35  1  0  0  0  0
 12 36  1  0  0  0  0
 36 37  1  0  0  0  0
 11 38  1  0  0  0  0
 10 39  1  0  0  0  0
  5 40  1  0  0  0  0
  4 41  1  0  0  0  0
  3 42  1  0  0  0  0
  1 43  1  0  0  0  0
  1 44  1  0  0  0  0
  1 45  1  0  0  0  0
  2 46  1  0  0  0  0
  3 47  1  0  0  0  0
  4 48  1  0  0  0  0
  5 49  1  0  0  0  0
  6 50  1  0  0  0  0
  9 51  1  0  0  0  0
 10 52  1  0  0  0  0
 11 53  1  0  0  0  0
 12 54  1  0  0  0  0
 14 55  1  0  0  0  0
 17 56  1  0  0  0  0
 22 57  1  0  0  0  0
 22 58  1  0  0  0  0
 23 59  1  0  0  0  0
 26 60  1  0  0  0  0
 28 61  1  0  0  0  0
 31 62  1  0  0  0  0
 32 63  1  0  0  0  0
 33 64  1  0  0  0  0
 34 65  1  0  0  0  0
 35 66  1  0  0  0  0
 36 67  1  0  0  0  0
 36 68  1  0  0  0  0
 37 69  1  0  0  0  0
 38 70  1  0  0  0  0
 39 71  1  0  0  0  0
 40 72  1  0  0  0  0
 41 73  1  0  0  0  0
 42 74  1  0  0  0  0
M  END
$$$$
