C3H10N2
APtclcactv06211804303D 0   0.00000     0.00000
 
 15 14  0  0  0  0  0  0  0  0999 V2000
   -0.0000   -0.3603    0.0590 C   0  0  0  0  0  0  0  0  0  0  0  0
   -1.2492    0.5182   -0.0328 C   0  0  0  0  0  0  0  0  0  0  0  0
   -2.4487   -0.3253    0.0554 N   0  0  0  0  0  0  0  0  0  0  0  0
    1.2492    0.5182   -0.0328 C   0  0  0  0  0  0  0  0  0  0  0  0
    2.4487   -0.3253    0.0554 N   0  0  0  0  0  0  0  0  0  0  0  0
   -0.0000   -0.8936    1.0097 H   0  0  0  0  0  0  0  0  0  0  0  0
    0.0000   -1.0788   -0.7606 H   0  0  0  0  0  0  0  0  0  0  0  0
   -1.2492    1.2367    0.7869 H   0  0  0  0  0  0  0  0  0  0  0  0
   -1.2492    1.0516   -0.9835 H   0  0  0  0  0  0  0  0  0  0  0  0
   -3.2878    0.2320   -0.0029 H   0  0  0  0  0  0  0  0  0  0  0  0
   -2.4402   -1.0414   -0.6553 H   0  0  0  0  0  0  0  0  0  0  0  0
    1.2492    1.0516   -0.9835 H   0  0  0  0  0  0  0  0  0  0  0  0
    1.2492    1.2367    0.7869 H   0  0  0  0  0  0  0  0  0  0  0  0
    2.4402   -1.0414   -0.6553 H   0  0  0  0  0  0  0  0  0  0  0  0
    3.2878    0.2320   -0.0029 H   0  0  0  0  0  0  0  0  0  0  0  0
  1  2  1  0  0  0  0
  2  3  1  0  0  0  0
  1  4  1  0  0  0  0
  4  5  1  0  0  0  0
  1  6  1  0  0  0  0
  1  7  1  0  0  0  0
  2  8  1  0  0  0  0
  2  9  1  0  0  0  0
  3 10  1  0  0  0  0
  3 11  1  0  0  0  0
  4 12  1  0  0  0  0
  4 13  1  0  0  0  0
  5 14  1  0  0  0  0
  5 15  1  0  0  0  0
M  END
$$$$
