C20H30O3
APtclcactv06211806503D 0   0.00000     0.00000
 
 53 56  0  0  0  0  0  0  0  0999 V2000
    1.0381    0.1528    1.5357 C   0  0  0  0  0  0  0  0  0  0  0  0
    0.6526    0.7658    0.1880 C   0  0  0  0  0  0  0  0  0  0  0  0
    1.2432    2.1752    0.1526 C   0  0  0  0  0  0  0  0  0  0  0  0
    2.7509    2.0951    0.4064 C   0  0  0  0  0  0  0  0  0  0  0  0
    3.4093    1.2282   -0.6682 C   0  0  0  0  0  0  0  0  0  0  0  0
    2.8084   -0.1794   -0.6358 C   0  0  0  0  0  0  0  0  0  0  0  0
    1.3036   -0.0894   -0.8946 C   0  0  0  0  0  0  0  0  0  0  0  0
    0.6778   -1.4874   -0.8190 C   0  0  0  0  0  0  0  0  0  0  0  0
   -0.7636   -1.3785   -1.3040 C   0  0  0  0  0  0  0  0  0  0  0  0
   -1.5703   -0.3625   -0.5389 C   0  0  0  0  0  0  0  0  0  0  0  0
   -0.8331    0.7674    0.1166 C   0  0  0  0  0  0  0  0  0  0  0  0
   -1.4644    2.1091   -0.2366 C   0  0  0  0  0  0  0  0  0  0  0  0
   -2.9439    2.0749    0.1793 C   0  0  0  0  0  0  0  0  0  0  0  0
   -3.6232    0.8754   -0.5053 C   0  0  0  0  0  0  0  0  0  0  0  0
   -2.5907    0.3004   -1.5178 C   0  0  0  0  0  0  0  0  0  0  0  0
   -3.7692   -0.2295    0.5326 C   0  0  0  0  0  0  0  0  0  0  0  0
   -4.8066   -0.4399    1.3044 C   0  0  0  0  0  0  0  0  0  0  0  0
   -2.4931   -1.0398    0.4976 C   0  0  0  0  0  0  0  0  0  0  0  0
   -2.7765   -2.3859    0.1105 O   0  0  0  0  0  0  0  0  0  0  0  0
    3.4628   -1.0396   -1.7187 C   0  0  0  0  0  0  0  0  0  0  0  0
    3.0506   -0.7993    0.7162 C   0  0  0  0  0  0  0  0  0  0  0  0
    3.7327   -0.2243    1.5311 O   0  0  0  0  0  0  0  0  0  0  0  0
    2.5087   -1.9904    1.0153 O   0  0  0  0  0  0  0  0  0  0  0  0
    0.3423    0.4938    2.3023 H   0  0  0  0  0  0  0  0  0  0  0  0
    0.9972   -0.9342    1.4655 H   0  0  0  0  0  0  0  0  0  0  0  0
    2.0495    0.4620    1.7995 H   0  0  0  0  0  0  0  0  0  0  0  0
    1.0616    2.6218   -0.8250 H   0  0  0  0  0  0  0  0  0  0  0  0
    0.7757    2.7855    0.9253 H   0  0  0  0  0  0  0  0  0  0  0  0
    3.1777    3.0976    0.3754 H   0  0  0  0  0  0  0  0  0  0  0  0
    2.9306    1.6554    1.3875 H   0  0  0  0  0  0  0  0  0  0  0  0
    3.2378    1.6732   -1.6483 H   0  0  0  0  0  0  0  0  0  0  0  0
    4.4813    1.1693   -0.4800 H   0  0  0  0  0  0  0  0  0  0  0  0
    1.1246    0.3565   -1.8730 H   0  0  0  0  0  0  0  0  0  0  0  0
    1.2316   -2.1749   -1.4583 H   0  0  0  0  0  0  0  0  0  0  0  0
    0.6950   -1.8444    0.2107 H   0  0  0  0  0  0  0  0  0  0  0  0
   -0.7586   -1.1003   -2.3579 H   0  0  0  0  0  0  0  0  0  0  0  0
   -1.2416   -2.3530   -1.2036 H   0  0  0  0  0  0  0  0  0  0  0  0
   -1.1130    0.6622    1.1648 H   0  0  0  0  0  0  0  0  0  0  0  0
   -0.9516    2.9078    0.2994 H   0  0  0  0  0  0  0  0  0  0  0  0
   -1.3897    2.2778   -1.3108 H   0  0  0  0  0  0  0  0  0  0  0  0
   -3.0168    1.9674    1.2616 H   0  0  0  0  0  0  0  0  0  0  0  0
   -3.4324    2.9982   -0.1320 H   0  0  0  0  0  0  0  0  0  0  0  0
   -4.5681    1.1466   -0.9763 H   0  0  0  0  0  0  0  0  0  0  0  0
   -2.1287    1.0953   -2.1032 H   0  0  0  0  0  0  0  0  0  0  0  0
   -3.0489   -0.4472   -2.1653 H   0  0  0  0  0  0  0  0  0  0  0  0
   -5.6696    0.2059    1.2370 H   0  0  0  0  0  0  0  0  0  0  0  0
   -4.7988   -1.2592    2.0081 H   0  0  0  0  0  0  0  0  0  0  0  0
   -2.0123   -1.0240    1.4757 H   0  0  0  0  0  0  0  0  0  0  0  0
   -3.3664   -2.8537    0.7173 H   0  0  0  0  0  0  0  0  0  0  0  0
    4.5358   -1.0988   -1.5365 H   0  0  0  0  0  0  0  0  0  0  0  0
    3.0344   -2.0416   -1.6950 H   0  0  0  0  0  0  0  0  0  0  0  0
    3.2844   -0.5912   -2.6960 H   0  0  0  0  0  0  0  0  0  0  0  0
    2.6922   -2.3478    1.8948 H   0  0  0  0  0  0  0  0  0  0  0  0
  1  2  1  0  0  0  0
  2  3  1  0  0  0  0
  3  4  1  0  0  0  0
  4  5  1  0  0  0  0
  5  6  1  0  0  0  0
  6  7  1  0  0  0  0
  2  7  1  0  0  0  0
  7  8  1  0  0  0  0
  8  9  1  0  0  0  0
  9 10  1  0  0  0  0
 10 11  1  0  0  0  0
  2 11  1  0  0  0  0
 11 12  1  0  0  0  0
 12 13  1  0  0  0  0
 13 14  1  0  0  0  0
 14 15  1  0  0  0  0
 10 15  1  0  0  0  0
 14 16  1  0  0  0  0
 16 17  2  0  0  0  0
 16 18  1  0  0  0  0
 10 18  1  0  0  0  0
 18 19  1  0  0  0  0
  6 20  1  0  0  0  0
  6 21  1  0  0  0  0
 21 22  2  0  0  0  0
 21 23  1  0  0  0  0
  1 24  1  0  0  0  0
  1 25  1  0  0  0  0
  1 26  1  0  0  0  0
  3 27  1  0  0  0  0
  3 28  1  0  0  0  0
  4 29  1  0  0  0  0
  4 30  1  0  0  0  0
  5 31  1  0  0  0  0
  5 32  1  0  0  0  0
  7 33  1  0  0  0  0
  8 34  1  0  0  0  0
  8 35  1  0  0  0  0
  9 36  1  0  0  0  0
  9 37  1  0  0  0  0
 11 38  1  0  0  0  0
 12 39  1  0  0  0  0
 12 40  1  0  0  0  0
 13 41  1  0  0  0  0
 13 42  1  0  0  0  0
 14 43  1  0  0  0  0
 15 44  1  0  0  0  0
 15 45  1  0  0  0  0
 17 46  1  0  0  0  0
 17 47  1  0  0  0  0
 18 48  1  0  0  0  0
 19 49  1  0  0  0  0
 20 50  1  0  0  0  0
 20 51  1  0  0  0  0
 20 52  1  0  0  0  0
 23 53  1  0  0  0  0
M  END
$$$$
