C10H17NO
APtclcactv06211806503D 0   0.00000     0.00000
 
 29 30  0  0  0  0  0  0  0  0999 V2000
    0.8736   -1.6896   -1.2142 C   0  0  0  0  0  0  0  0  0  0  0  0
    0.6919   -1.4264    0.2820 C   0  0  0  0  0  0  0  0  0  0  0  0
    1.9604   -0.7782    0.8408 C   0  0  0  0  0  0  0  0  0  0  0  0
    2.1068    0.5810    0.1870 C   0  0  0  0  0  0  0  0  0  0  0  0
    3.1431    0.9212   -0.3313 O   0  0  0  0  0  0  0  0  0  0  0  0
    0.9018    1.4929    0.2103 C   0  0  0  0  0  0  0  0  0  0  0  0
   -0.3299    0.7128   -0.2731 C   0  0  0  0  0  0  0  0  0  0  0  0
   -0.4645   -0.5359    0.4844 N   0  0  0  0  0  0  0  0  0  0  0  0
   -1.6870   -1.2693    0.1156 C   0  0  0  0  0  0  0  0  0  0  0  0
   -2.9240   -0.4168    0.3908 C   0  0  0  0  0  0  0  0  0  0  0  0
   -2.8297    0.8649   -0.4445 C   0  0  0  0  0  0  0  0  0  0  0  0
   -1.5539    1.6076   -0.0483 C   0  0  0  0  0  0  0  0  0  0  0  0
    1.7212   -2.3580   -1.3652 H   0  0  0  0  0  0  0  0  0  0  0  0
   -0.0291   -2.1514   -1.6141 H   0  0  0  0  0  0  0  0  0  0  0  0
    1.0582   -0.7468   -1.7291 H   0  0  0  0  0  0  0  0  0  0  0  0
    0.5124   -2.3708    0.7958 H   0  0  0  0  0  0  0  0  0  0  0  0
    1.8710   -0.6614    1.9208 H   0  0  0  0  0  0  0  0  0  0  0  0
    2.8263   -1.3970    0.6054 H   0  0  0  0  0  0  0  0  0  0  0  0
    0.7327    1.8472    1.2271 H   0  0  0  0  0  0  0  0  0  0  0  0
    1.0760    2.3436   -0.4486 H   0  0  0  0  0  0  0  0  0  0  0  0
   -0.2257    0.4867   -1.3343 H   0  0  0  0  0  0  0  0  0  0  0  0
   -1.6507   -1.5202   -0.9445 H   0  0  0  0  0  0  0  0  0  0  0  0
   -1.7456   -2.1884    0.6987 H   0  0  0  0  0  0  0  0  0  0  0  0
   -3.8200   -0.9709    0.1109 H   0  0  0  0  0  0  0  0  0  0  0  0
   -2.9643   -0.1614    1.4497 H   0  0  0  0  0  0  0  0  0  0  0  0
   -2.7913    0.6100   -1.5036 H   0  0  0  0  0  0  0  0  0  0  0  0
   -3.6968    1.4953   -0.2475 H   0  0  0  0  0  0  0  0  0  0  0  0
   -1.6098    1.8856    1.0042 H   0  0  0  0  0  0  0  0  0  0  0  0
   -1.4582    2.5093   -0.6532 H   0  0  0  0  0  0  0  0  0  0  0  0
  1  2  1  0  0  0  0
  2  3  1  0  0  0  0
  3  4  1  0  0  0  0
  4  5  2  0  0  0  0
  4  6  1  0  0  0  0
  6  7  1  0  0  0  0
  7  8  1  0  0  0  0
  2  8  1  0  0  0  0
  8  9  1  0  0  0  0
  9 10  1  0  0  0  0
 10 11  1  0  0  0  0
 11 12  1  0  0  0  0
  7 12  1  0  0  0  0
  1 13  1  0  0  0  0
  1 14  1  0  0  0  0
  1 15  1  0  0  0  0
  2 16  1  0  0  0  0
  3 17  1  0  0  0  0
  3 18  1  0  0  0  0
  6 19  1  0  0  0  0
  6 20  1  0  0  0  0
  7 21  1  0  0  0  0
  9 22  1  0  0  0  0
  9 23  1  0  0  0  0
 10 24  1  0  0  0  0
 10 25  1  0  0  0  0
 11 26  1  0  0  0  0
 11 27  1  0  0  0  0
 12 28  1  0  0  0  0
 12 29  1  0  0  0  0
M  END
$$$$
