C40H56
APtclcactv06281816393D 0   0.00000     0.00000
 
 96 97  0  0  0  0  0  0  0  0999 V2000
  -10.5112    2.2204    0.9204 C   0  0  0  0  0  0  0  0  0  0  0  0
  -11.6383    1.4478    0.2849 C   0  0  0  0  0  0  0  0  0  0  0  0
  -11.4646    0.1546    0.0695 C   0  0  0  0  0  0  0  0  0  0  0  0
  -12.4990   -0.7307   -0.5626 C   0  0  0  0  0  0  0  0  0  0  0  0
  -13.8702   -0.0534   -0.5177 C   0  0  0  0  0  0  0  0  0  0  0  0
  -13.7267    1.3740   -1.0597 C   0  0  0  0  0  0  0  0  0  0  0  0
  -12.8970    2.1882   -0.0623 C   0  0  0  0  0  0  0  0  0  0  0  0
  -12.1141   -1.0009   -2.0186 C   0  0  0  0  0  0  0  0  0  0  0  0
  -12.5635   -2.0574    0.1967 C   0  0  0  0  0  0  0  0  0  0  0  0
  -10.2318   -0.4283    0.4569 C   0  0  0  0  0  0  0  0  0  0  0  0
   -9.0643    0.0569   -0.0416 C   0  0  0  0  0  0  0  0  0  0  0  0
   -7.8373   -0.4316    0.4402 C   0  0  0  0  0  0  0  0  0  0  0  0
   -6.6648    0.0558   -0.0604 C   0  0  0  0  0  0  0  0  0  0  0  0
   -5.4413   -0.4313    0.4201 C   0  0  0  0  0  0  0  0  0  0  0  0
   -4.2585    0.0603   -0.0849 C   0  0  0  0  0  0  0  0  0  0  0  0
   -3.0365   -0.4262    0.3949 C   0  0  0  0  0  0  0  0  0  0  0  0
   -1.8528    0.0658   -0.1105 C   0  0  0  0  0  0  0  0  0  0  0  0
   -0.6313   -0.4205    0.3692 C   0  0  0  0  0  0  0  0  0  0  0  0
    0.5525    0.0715   -0.1362 C   0  0  0  0  0  0  0  0  0  0  0  0
    1.7744   -0.4150    0.3437 C   0  0  0  0  0  0  0  0  0  0  0  0
    2.9573    0.0766   -0.1613 C   0  0  0  0  0  0  0  0  0  0  0  0
    2.9366    1.1384   -1.2306 C   0  0  0  0  0  0  0  0  0  0  0  0
    4.1807   -0.4105    0.3191 C   0  0  0  0  0  0  0  0  0  0  0  0
    5.3533    0.0769   -0.1815 C   0  0  0  0  0  0  0  0  0  0  0  0
    6.5803   -0.4116    0.3003 C   0  0  0  0  0  0  0  0  0  0  0  0
    7.7478    0.0736   -0.1981 C   0  0  0  0  0  0  0  0  0  0  0  0
    7.7271    1.1354   -1.2674 C   0  0  0  0  0  0  0  0  0  0  0  0
    8.9851   -0.4190    0.2878 C   0  0  0  0  0  0  0  0  0  0  0  0
   10.1333    0.0583   -0.2024 C   0  0  0  0  0  0  0  0  0  0  0  0
   11.4486   -0.4654    0.3141 C   0  0  0  0  0  0  0  0  0  0  0  0
   12.2210   -1.0745   -0.8192 C   0  0  0  0  0  0  0  0  0  0  0  0
   13.2196   -0.4989   -1.4083 C   0  0  0  0  0  0  0  0  0  0  0  0
   13.7506    0.8539   -1.0339 C   0  0  0  0  0  0  0  0  0  0  0  0
   12.7207    1.6097   -0.1914 C   0  0  0  0  0  0  0  0  0  0  0  0
   12.2436    0.6849    0.9357 C   0  0  0  0  0  0  0  0  0  0  0  0
   11.3482    1.4672    1.8986 C   0  0  0  0  0  0  0  0  0  0  0  0
   13.4524    0.1266    1.6893 C   0  0  0  0  0  0  0  0  0  0  0  0
   11.8088   -2.4416   -1.3012 C   0  0  0  0  0  0  0  0  0  0  0  0
   -3.0158   -1.4879    1.4642 C   0  0  0  0  0  0  0  0  0  0  0  0
   -7.8166   -1.4934    1.5095 C   0  0  0  0  0  0  0  0  0  0  0  0
   -9.8061    2.5337    0.1505 H   0  0  0  0  0  0  0  0  0  0  0  0
  -10.9124    3.0994    1.4250 H   0  0  0  0  0  0  0  0  0  0  0  0
  -10.0000    1.5871    1.6453 H   0  0  0  0  0  0  0  0  0  0  0  0
  -14.5742   -0.6106   -1.1358 H   0  0  0  0  0  0  0  0  0  0  0  0
  -14.2286   -0.0201    0.5111 H   0  0  0  0  0  0  0  0  0  0  0  0
  -13.2237    1.3498   -2.0264 H   0  0  0  0  0  0  0  0  0  0  0  0
  -14.7130    1.8253   -1.1682 H   0  0  0  0  0  0  0  0  0  0  0  0
  -13.4834    2.3597    0.8404 H   0  0  0  0  0  0  0  0  0  0  0  0
  -12.6352    3.1477   -0.5084 H   0  0  0  0  0  0  0  0  0  0  0  0
  -11.1427   -1.4942   -2.0520 H   0  0  0  0  0  0  0  0  0  0  0  0
  -12.8641   -1.6437   -2.4793 H   0  0  0  0  0  0  0  0  0  0  0  0
  -12.0613   -0.0573   -2.5615 H   0  0  0  0  0  0  0  0  0  0  0  0
  -12.9054   -1.8766    1.2157 H   0  0  0  0  0  0  0  0  0  0  0  0
  -13.2585   -2.7302   -0.3058 H   0  0  0  0  0  0  0  0  0  0  0  0
  -11.5725   -2.5107    0.2210 H   0  0  0  0  0  0  0  0  0  0  0  0
  -10.2204   -1.2581    1.1481 H   0  0  0  0  0  0  0  0  0  0  0  0
   -9.0791    0.8178   -0.8079 H   0  0  0  0  0  0  0  0  0  0  0  0
   -6.6796    0.8167   -0.8267 H   0  0  0  0  0  0  0  0  0  0  0  0
   -5.4265   -1.1922    1.1863 H   0  0  0  0  0  0  0  0  0  0  0  0
   -4.2733    0.8212   -0.8512 H   0  0  0  0  0  0  0  0  0  0  0  0
   -1.8676    0.8267   -0.8768 H   0  0  0  0  0  0  0  0  0  0  0  0
   -0.6164   -1.1814    1.1355 H   0  0  0  0  0  0  0  0  0  0  0  0
    0.5376    0.8324   -0.9024 H   0  0  0  0  0  0  0  0  0  0  0  0
    1.7893   -1.1759    1.1100 H   0  0  0  0  0  0  0  0  0  0  0  0
    2.9376    2.1236   -0.7643 H   0  0  0  0  0  0  0  0  0  0  0  0
    3.8185    1.0347   -1.8627 H   0  0  0  0  0  0  0  0  0  0  0  0
    2.0387    1.0248   -1.8380 H   0  0  0  0  0  0  0  0  0  0  0  0
    4.1955   -1.1714    1.0854 H   0  0  0  0  0  0  0  0  0  0  0  0
    5.3385    0.8378   -0.9478 H   0  0  0  0  0  0  0  0  0  0  0  0
    6.5951   -1.1725    1.0666 H   0  0  0  0  0  0  0  0  0  0  0  0
    7.7281    2.1206   -0.8011 H   0  0  0  0  0  0  0  0  0  0  0  0
    8.6090    1.0317   -1.8995 H   0  0  0  0  0  0  0  0  0  0  0  0
    6.8292    1.0218   -1.8748 H   0  0  0  0  0  0  0  0  0  0  0  0
    8.9999   -1.1799    1.0540 H   0  0  0  0  0  0  0  0  0  0  0  0
   10.1184    0.8192   -0.9687 H   0  0  0  0  0  0  0  0  0  0  0  0
   11.2620   -1.2248    1.0734 H   0  0  0  0  0  0  0  0  0  0  0  0
   13.7009   -1.0250   -2.2194 H   0  0  0  0  0  0  0  0  0  0  0  0
   14.6697    0.7352   -0.4601 H   0  0  0  0  0  0  0  0  0  0  0  0
   13.9633    1.4219   -1.9396 H   0  0  0  0  0  0  0  0  0  0  0  0
   13.1799    2.5011    0.2358 H   0  0  0  0  0  0  0  0  0  0  0  0
   11.8737    1.8936   -0.8160 H   0  0  0  0  0  0  0  0  0  0  0  0
   10.4844    1.8543    1.3582 H   0  0  0  0  0  0  0  0  0  0  0  0
   11.0109    0.8076    2.6982 H   0  0  0  0  0  0  0  0  0  0  0  0
   11.9115    2.2970    2.3255 H   0  0  0  0  0  0  0  0  0  0  0  0
   14.0268    0.9494    2.1151 H   0  0  0  0  0  0  0  0  0  0  0  0
   13.1103   -0.5299    2.4893 H   0  0  0  0  0  0  0  0  0  0  0  0
   14.0813   -0.4373    1.0004 H   0  0  0  0  0  0  0  0  0  0  0  0
   11.0634   -2.3393   -2.0898 H   0  0  0  0  0  0  0  0  0  0  0  0
   12.6804   -2.9674   -1.6910 H   0  0  0  0  0  0  0  0  0  0  0  0
   11.3846   -3.0067   -0.4713 H   0  0  0  0  0  0  0  0  0  0  0  0
   -3.0168   -2.4732    0.9979 H   0  0  0  0  0  0  0  0  0  0  0  0
   -2.1179   -1.3744    2.0716 H   0  0  0  0  0  0  0  0  0  0  0  0
   -3.8977   -1.3842    2.0963 H   0  0  0  0  0  0  0  0  0  0  0  0
   -7.8177   -2.4786    1.0432 H   0  0  0  0  0  0  0  0  0  0  0  0
   -6.9188   -1.3798    2.1170 H   0  0  0  0  0  0  0  0  0  0  0  0
   -8.6985   -1.3896    2.1416 H   0  0  0  0  0  0  0  0  0  0  0  0
  1  2  1  0  0  0  0
  2  3  2  0  0  0  0
  3  4  1  0  0  0  0
  4  5  1  0  0  0  0
  5  6  1  0  0  0  0
  6  7  1  0  0  0  0
  2  7  1  0  0  0  0
  4  8  1  0  0  0  0
  4  9  1  0  0  0  0
  3 10  1  0  0  0  0
 10 11  2  0  0  0  0
 11 12  1  0  0  0  0
 12 13  2  0  0  0  0
 13 14  1  0  0  0  0
 14 15  2  0  0  0  0
 15 16  1  0  0  0  0
 16 17  2  0  0  0  0
 17 18  1  0  0  0  0
 18 19  2  0  0  0  0
 19 20  1  0  0  0  0
 20 21  2  0  0  0  0
 21 22  1  0  0  0  0
 21 23  1  0  0  0  0
 23 24  2  0  0  0  0
 24 25  1  0  0  0  0
 25 26  2  0  0  0  0
 26 27  1  0  0  0  0
 26 28  1  0  0  0  0
 28 29  2  0  0  0  0
 29 30  1  0  0  0  0
 30 31  1  0  0  0  0
 31 32  2  0  0  0  0
 32 33  1  0  0  0  0
 33 34  1  0  0  0  0
 34 35  1  0  0  0  0
 30 35  1  0  0  0  0
 35 36  1  0  0  0  0
 35 37  1  0  0  0  0
 31 38  1  0  0  0  0
 16 39  1  0  0  0  0
 12 40  1  0  0  0  0
  1 41  1  0  0  0  0
  1 42  1  0  0  0  0
  1 43  1  0  0  0  0
  5 44  1  0  0  0  0
  5 45  1  0  0  0  0
  6 46  1  0  0  0  0
  6 47  1  0  0  0  0
  7 48  1  0  0  0  0
  7 49  1  0  0  0  0
  8 50  1  0  0  0  0
  8 51  1  0  0  0  0
  8 52  1  0  0  0  0
  9 53  1  0  0  0  0
  9 54  1  0  0  0  0
  9 55  1  0  0  0  0
 10 56  1  0  0  0  0
 11 57  1  0  0  0  0
 13 58  1  0  0  0  0
 14 59  1  0  0  0  0
 15 60  1  0  0  0  0
 17 61  1  0  0  0  0
 18 62  1  0  0  0  0
 19 63  1  0  0  0  0
 20 64  1  0  0  0  0
 22 65  1  0  0  0  0
 22 66  1  0  0  0  0
 22 67  1  0  0  0  0
 23 68  1  0  0  0  0
 24 69  1  0  0  0  0
 25 70  1  0  0  0  0
 27 71  1  0  0  0  0
 27 72  1  0  0  0  0
 27 73  1  0  0  0  0
 28 74  1  0  0  0  0
 29 75  1  0  0  0  0
 30 76  1  0  0  0  0
 32 77  1  0  0  0  0
 33 78  1  0  0  0  0
 33 79  1  0  0  0  0
 34 80  1  0  0  0  0
 34 81  1  0  0  0  0
 36 82  1  0  0  0  0
 36 83  1  0  0  0  0
 36 84  1  0  0  0  0
 37 85  1  0  0  0  0
 37 86  1  0  0  0  0
 37 87  1  0  0  0  0
 38 88  1  0  0  0  0
 38 89  1  0  0  0  0
 38 90  1  0  0  0  0
 39 91  1  0  0  0  0
 39 92  1  0  0  0  0
 39 93  1  0  0  0  0
 40 94  1  0  0  0  0
 40 95  1  0  0  0  0
 40 96  1  0  0  0  0
M  END
$$$$
