C9H13NO2
APtclcactv06211804353D 0   0.00000     0.00000
 
 25 25  0  0  0  0  0  0  0  0999 V2000
    4.8380   -0.2299   -0.9711 C   0  0  0  0  0  0  0  0  0  0  0  0
    3.9459   -0.0975    0.1885 N   0  0  0  0  0  0  0  0  0  0  0  0
    2.5430    0.0038   -0.2355 C   0  0  0  0  0  0  0  0  0  0  0  0
    1.6464    0.1400    0.9968 C   0  0  0  0  0  0  0  0  0  0  0  0
    0.2073    0.2439    0.5619 C   0  0  0  0  0  0  0  0  0  0  0  0
   -0.5546   -0.9008    0.4195 C   0  0  0  0  0  0  0  0  0  0  0  0
   -1.8780   -0.8070    0.0197 C   0  0  0  0  0  0  0  0  0  0  0  0
   -2.4370    0.4410   -0.2377 C   0  0  0  0  0  0  0  0  0  0  0  0
   -1.6678    1.5845   -0.0931 C   0  0  0  0  0  0  0  0  0  0  0  0
   -0.3498    1.4843    0.3116 C   0  0  0  0  0  0  0  0  0  0  0  0
   -3.7353    0.5382   -0.6308 O   0  0  0  0  0  0  0  0  0  0  0  0
   -2.6287   -1.9322   -0.1212 O   0  0  0  0  0  0  0  0  0  0  0  0
    5.8703   -0.3029   -0.6288 H   0  0  0  0  0  0  0  0  0  0  0  0
    4.5762   -1.1281   -1.5303 H   0  0  0  0  0  0  0  0  0  0  0  0
    4.7295    0.6433   -1.6145 H   0  0  0  0  0  0  0  0  0  0  0  0
    4.0745   -0.8631    0.8329 H   0  0  0  0  0  0  0  0  0  0  0  0
    2.4186    0.8785   -0.8738 H   0  0  0  0  0  0  0  0  0  0  0  0
    2.2653   -0.8928   -0.7896 H   0  0  0  0  0  0  0  0  0  0  0  0
    1.7708   -0.7347    1.6351 H   0  0  0  0  0  0  0  0  0  0  0  0
    1.9242    1.0366    1.5509 H   0  0  0  0  0  0  0  0  0  0  0  0
   -0.1182   -1.8683    0.6196 H   0  0  0  0  0  0  0  0  0  0  0  0
   -2.0993    2.5543   -0.2923 H   0  0  0  0  0  0  0  0  0  0  0  0
    0.2487    2.3762    0.4239 H   0  0  0  0  0  0  0  0  0  0  0  0
   -4.3619    0.6281    0.1003 H   0  0  0  0  0  0  0  0  0  0  0  0
   -3.0966   -2.1961    0.6828 H   0  0  0  0  0  0  0  0  0  0  0  0
  1  2  1  0  0  0  0
  2  3  1  0  0  0  0
  3  4  1  0  0  0  0
  4  5  1  0  0  0  0
  5  6  2  0  0  0  0
  6  7  1  0  0  0  0
  7  8  2  0  0  0  0
  8  9  1  0  0  0  0
  9 10  2  0  0  0  0
  5 10  1  0  0  0  0
  8 11  1  0  0  0  0
  7 12  1  0  0  0  0
  1 13  1  0  0  0  0
  1 14  1  0  0  0  0
  1 15  1  0  0  0  0
  2 16  1  0  0  0  0
  3 17  1  0  0  0  0
  3 18  1  0  0  0  0
  4 19  1  0  0  0  0
  4 20  1  0  0  0  0
  6 21  1  0  0  0  0
  9 22  1  0  0  0  0
 10 23  1  0  0  0  0
 11 24  1  0  0  0  0
 12 25  1  0  0  0  0
M  END
$$$$
