C8H15NO6
APtclcactv06211806503D 0   0.00000     0.00000
 
 30 30  0  0  0  0  0  0  0  0999 V2000
    4.5566    0.4949    0.1953 C   0  0  0  0  0  0  0  0  0  0  0  0
    3.1584    0.3636   -0.3515 C   0  0  0  0  0  0  0  0  0  0  0  0
    2.9339    0.6306   -1.5130 O   0  0  0  0  0  0  0  0  0  0  0  0
    2.1574   -0.0506    0.4504 N   0  0  0  0  0  0  0  0  0  0  0  0
    0.7982   -0.1783   -0.0811 C   0  0  0  0  0  0  0  0  0  0  0  0
    0.0172   -1.2002    0.7508 C   0  0  0  0  0  0  0  0  0  0  0  0
   -1.4236   -1.2677    0.2352 C   0  0  0  0  0  0  0  0  0  0  0  0
   -2.0458    0.1297    0.2977 C   0  0  0  0  0  0  0  0  0  0  0  0
   -1.2538    1.0371   -0.4714 O   0  0  0  0  0  0  0  0  0  0  0  0
    0.0903    1.1770   -0.0064 C   0  0  0  0  0  0  0  0  0  0  0  0
    0.0810    1.6358    1.3469 O   0  0  0  0  0  0  0  0  0  0  0  0
   -3.4650    0.0823   -0.2718 C   0  0  0  0  0  0  0  0  0  0  0  0
   -4.0872    1.3581   -0.1072 O   0  0  0  0  0  0  0  0  0  0  0  0
   -1.4258   -1.7314   -1.1165 O   0  0  0  0  0  0  0  0  0  0  0  0
    0.6298   -2.4853    0.6276 O   0  0  0  0  0  0  0  0  0  0  0  0
    4.6998    1.5014    0.5886 H   0  0  0  0  0  0  0  0  0  0  0  0
    4.7041   -0.2318    0.9941 H   0  0  0  0  0  0  0  0  0  0  0  0
    5.2771    0.3103   -0.6015 H   0  0  0  0  0  0  0  0  0  0  0  0
    2.3370   -0.2642    1.3794 H   0  0  0  0  0  0  0  0  0  0  0  0
    0.8424   -0.5106   -1.1183 H   0  0  0  0  0  0  0  0  0  0  0  0
    0.0161   -0.8941    1.7970 H   0  0  0  0  0  0  0  0  0  0  0  0
   -2.0013   -1.9518    0.8568 H   0  0  0  0  0  0  0  0  0  0  0  0
   -2.0807    0.4660    1.3339 H   0  0  0  0  0  0  0  0  0  0  0  0
    0.6179    1.8977   -0.6311 H   0  0  0  0  0  0  0  0  0  0  0  0
   -0.3536    2.4909    1.4693 H   0  0  0  0  0  0  0  0  0  0  0  0
   -3.4230   -0.1674   -1.3320 H   0  0  0  0  0  0  0  0  0  0  0  0
   -4.0436   -0.6751    0.2571 H   0  0  0  0  0  0  0  0  0  0  0  0
   -4.9916    1.4014   -0.4467 H   0  0  0  0  0  0  0  0  0  0  0  0
   -2.3075   -1.7987   -1.5078 H   0  0  0  0  0  0  0  0  0  0  0  0
    0.1860   -3.1824    1.1299 H   0  0  0  0  0  0  0  0  0  0  0  0
  1  2  1  0  0  0  0
  2  3  2  0  0  0  0
  2  4  1  0  0  0  0
  4  5  1  0  0  0  0
  5  6  1  0  0  0  0
  6  7  1  0  0  0  0
  7  8  1  0  0  0  0
  8  9  1  0  0  0  0
  9 10  1  0  0  0  0
  5 10  1  0  0  0  0
 10 11  1  0  0  0  0
  8 12  1  0  0  0  0
 12 13  1  0  0  0  0
  7 14  1  0  0  0  0
  6 15  1  0  0  0  0
  1 16  1  0  0  0  0
  1 17  1  0  0  0  0
  1 18  1  0  0  0  0
  4 19  1  0  0  0  0
  5 20  1  0  0  0  0
  6 21  1  0  0  0  0
  7 22  1  0  0  0  0
  8 23  1  0  0  0  0
 10 24  1  0  0  0  0
 11 25  1  0  0  0  0
 12 26  1  0  0  0  0
 12 27  1  0  0  0  0
 13 28  1  0  0  0  0
 14 29  1  0  0  0  0
 15 30  1  0  0  0  0
M  END
$$$$
