C3H6O4
APtclcactv06201809563D 0   0.00000     0.00000
 
 13 12  0  0  0  0  0  0  0  0999 V2000
    1.2047    0.6400   -0.4343 C   0  0  0  0  0  0  0  0  0  0  0  0
    0.2607   -0.1919    0.4362 C   0  0  0  0  0  0  0  0  0  0  0  0
   -1.1665    0.0986    0.0490 C   0  0  0  0  0  0  0  0  0  0  0  0
   -1.8497   -0.7715   -0.4367 O   0  0  0  0  0  0  0  0  0  0  0  0
   -1.6786    1.3240    0.2438 O   0  0  0  0  0  0  0  0  0  0  0  0
    0.5337   -1.5810    0.2418 O   0  0  0  0  0  0  0  0  0  0  0  0
    2.5502    0.4535    0.0093 O   0  0  0  0  0  0  0  0  0  0  0  0
    1.1170    0.3210   -1.4729 H   0  0  0  0  0  0  0  0  0  0  0  0
    0.9385    1.6940   -0.3542 H   0  0  0  0  0  0  0  0  0  0  0  0
    0.4122    0.0650    1.4846 H   0  0  0  0  0  0  0  0  0  0  0  0
   -2.5985    1.4624   -0.0202 H   0  0  0  0  0  0  0  0  0  0  0  0
    0.4189   -1.8805   -0.6704 H   0  0  0  0  0  0  0  0  0  0  0  0
    3.2046    0.9524   -0.4986 H   0  0  0  0  0  0  0  0  0  0  0  0
  1  2  1  0  0  0  0
  2  3  1  0  0  0  0
  3  4  2  0  0  0  0
  3  5  1  0  0  0  0
  2  6  1  0  0  0  0
  1  7  1  0  0  0  0
  1  8  1  0  0  0  0
  1  9  1  0  0  0  0
  2 10  1  0  0  0  0
  5 11  1  0  0  0  0
  6 12  1  0  0  0  0
  7 13  1  0  0  0  0
M  END
$$$$
