C7H14N2O4S
APtclcactv06211804313D 0   0.00000     0.00000
 
 28 27  0  0  0  0  0  0  0  0999 V2000
    2.1417   -0.1685   -0.2786 C   0  0  0  0  0  0  0  0  0  0  0  0
    0.8081    0.0071    0.4504 C   0  0  0  0  0  0  0  0  0  0  0  0
   -0.5570   -0.3124   -0.7008 S   0  0  0  0  0  0  0  0  0  0  0  0
   -2.0279   -0.0590    0.3301 C   0  0  0  0  0  0  0  0  0  0  0  0
   -3.2854   -0.2950   -0.5088 C   0  0  0  0  0  0  0  0  0  0  0  0
   -4.5074   -0.0845    0.3476 C   0  0  0  0  0  0  0  0  0  0  0  0
   -5.1157    0.9577    0.2866 O   0  0  0  0  0  0  0  0  0  0  0  0
   -4.9201   -1.0547    1.1783 O   0  0  0  0  0  0  0  0  0  0  0  0
   -3.3076    0.6490   -1.6341 N   0  0  0  0  0  0  0  0  0  0  0  0
    3.2931    0.1009    0.6923 C   0  0  0  0  0  0  0  0  0  0  0  0
    4.6045   -0.1908    0.0097 C   0  0  0  0  0  0  0  0  0  0  0  0
    5.2665    0.7148   -0.4393 O   0  0  0  0  0  0  0  0  0  0  0  0
    5.0373   -1.4568   -0.0995 O   0  0  0  0  0  0  0  0  0  0  0  0
    3.2614    1.5087    1.1108 N   0  0  0  0  0  0  0  0  0  0  0  0
    2.2171   -1.1877   -0.6577 H   0  0  0  0  0  0  0  0  0  0  0  0
    2.1962    0.5336   -1.1106 H   0  0  0  0  0  0  0  0  0  0  0  0
    0.7536   -0.6950    1.2824 H   0  0  0  0  0  0  0  0  0  0  0  0
    0.7327    1.0263    0.8295 H   0  0  0  0  0  0  0  0  0  0  0  0
   -2.0114   -0.7594    1.1651 H   0  0  0  0  0  0  0  0  0  0  0  0
   -2.0323    0.9619    0.7122 H   0  0  0  0  0  0  0  0  0  0  0  0
   -3.2810   -1.3158   -0.8909 H   0  0  0  0  0  0  0  0  0  0  0  0
   -5.7089   -0.8735    1.7075 H   0  0  0  0  0  0  0  0  0  0  0  0
   -3.3121    1.6031   -1.3057 H   0  0  0  0  0  0  0  0  0  0  0  0
   -2.5324    0.4853   -2.2588 H   0  0  0  0  0  0  0  0  0  0  0  0
    3.1882   -0.5407    1.5672 H   0  0  0  0  0  0  0  0  0  0  0  0
    5.8843   -1.5942   -0.5454 H   0  0  0  0  0  0  0  0  0  0  0  0
    3.3569    2.1241    0.3170 H   0  0  0  0  0  0  0  0  0  0  0  0
    2.4194    1.7134    1.6278 H   0  0  0  0  0  0  0  0  0  0  0  0
  1  2  1  0  0  0  0
  2  3  1  0  0  0  0
  3  4  1  0  0  0  0
  4  5  1  0  0  0  0
  5  6  1  0  0  0  0
  6  7  2  0  0  0  0
  6  8  1  0  0  0  0
  5  9  1  0  0  0  0
  1 10  1  0  0  0  0
 10 11  1  0  0  0  0
 11 12  2  0  0  0  0
 11 13  1  0  0  0  0
 10 14  1  0  0  0  0
  1 15  1  0  0  0  0
  1 16  1  0  0  0  0
  2 17  1  0  0  0  0
  2 18  1  0  0  0  0
  4 19  1  0  0  0  0
  4 20  1  0  0  0  0
  5 21  1  0  0  0  0
  8 22  1  0  0  0  0
  9 23  1  0  0  0  0
  9 24  1  0  0  0  0
 10 25  1  0  0  0  0
 13 26  1  0  0  0  0
 14 27  1  0  0  0  0
 14 28  1  0  0  0  0
M  END
$$$$
