C7H14N2O3
APtclcactv06211806503D 0   0.00000     0.00000
 
 26 25  0  0  0  0  0  0  0  0999 V2000
    2.0539    2.8268   -0.5608 C   0  0  0  0  0  0  0  0  0  0  0  0
    1.6246    1.5616    0.1364 C   0  0  0  0  0  0  0  0  0  0  0  0
    2.1055    1.2681    1.2104 O   0  0  0  0  0  0  0  0  0  0  0  0
    0.7063    0.7564   -0.4335 N   0  0  0  0  0  0  0  0  0  0  0  0
    0.2890   -0.4735    0.2444 C   0  0  0  0  0  0  0  0  0  0  0  0
   -1.1143   -0.8632   -0.2244 C   0  0  0  0  0  0  0  0  0  0  0  0
   -2.1156    0.2043    0.2213 C   0  0  0  0  0  0  0  0  0  0  0  0
   -3.5190   -0.1854   -0.2475 C   0  0  0  0  0  0  0  0  0  0  0  0
   -4.4804    0.8395    0.1804 N   0  0  0  0  0  0  0  0  0  0  0  0
    1.2550   -1.5819   -0.0864 C   0  0  0  0  0  0  0  0  0  0  0  0
    2.1955   -1.3666   -0.8137 O   0  0  0  0  0  0  0  0  0  0  0  0
    1.0706   -2.8083    0.4270 O   0  0  0  0  0  0  0  0  0  0  0  0
    2.9066    2.6148   -1.2058 H   0  0  0  0  0  0  0  0  0  0  0  0
    1.2289    3.2077   -1.1629 H   0  0  0  0  0  0  0  0  0  0  0  0
    2.3365    3.5729    0.1818 H   0  0  0  0  0  0  0  0  0  0  0  0
    0.3217    0.9912   -1.2925 H   0  0  0  0  0  0  0  0  0  0  0  0
    0.2796   -0.3092    1.3219 H   0  0  0  0  0  0  0  0  0  0  0  0
   -1.1257   -0.9408   -1.3116 H   0  0  0  0  0  0  0  0  0  0  0  0
   -1.3892   -1.8237    0.2114 H   0  0  0  0  0  0  0  0  0  0  0  0
   -2.1042    0.2819    1.3084 H   0  0  0  0  0  0  0  0  0  0  0  0
   -1.8407    1.1649   -0.2145 H   0  0  0  0  0  0  0  0  0  0  0  0
   -3.5304   -0.2630   -1.3347 H   0  0  0  0  0  0  0  0  0  0  0  0
   -3.7939   -1.1460    0.1882 H   0  0  0  0  0  0  0  0  0  0  0  0
   -4.2113    1.7513   -0.1577 H   0  0  0  0  0  0  0  0  0  0  0  0
   -5.4155    0.6050   -0.1174 H   0  0  0  0  0  0  0  0  0  0  0  0
    1.7163   -3.4867    0.1863 H   0  0  0  0  0  0  0  0  0  0  0  0
  1  2  1  0  0  0  0
  2  3  2  0  0  0  0
  2  4  1  0  0  0  0
  4  5  1  0  0  0  0
  5  6  1  0  0  0  0
  6  7  1  0  0  0  0
  7  8  1  0  0  0  0
  8  9  1  0  0  0  0
  5 10  1  0  0  0  0
 10 11  2  0  0  0  0
 10 12  1  0  0  0  0
  1 13  1  0  0  0  0
  1 14  1  0  0  0  0
  1 15  1  0  0  0  0
  4 16  1  0  0  0  0
  5 17  1  0  0  0  0
  6 18  1  0  0  0  0
  6 19  1  0  0  0  0
  7 20  1  0  0  0  0
  7 21  1  0  0  0  0
  8 22  1  0  0  0  0
  8 23  1  0  0  0  0
  9 24  1  0  0  0  0
  9 25  1  0  0  0  0
 12 26  1  0  0  0  0
M  END
$$$$
