C8H11NO3
APtclcactv06211804323D 0   0.00000     0.00000
 
 23 23  0  0  0  0  0  0  0  0999 V2000
    0.0249   -1.3074    0.0891 C   0  0  0  0  0  0  0  0  0  0  0  0
   -1.3235   -1.5371    0.2897 C   0  0  0  0  0  0  0  0  0  0  0  0
   -2.2295   -0.4959    0.1665 C   0  0  0  0  0  0  0  0  0  0  0  0
   -1.7787    0.7797   -0.1592 C   0  0  0  0  0  0  0  0  0  0  0  0
   -0.4258    1.0031   -0.3589 C   0  0  0  0  0  0  0  0  0  0  0  0
    0.4727   -0.0401   -0.2345 C   0  0  0  0  0  0  0  0  0  0  0  0
    1.9437    0.2046   -0.4520 C   0  0  0  0  0  0  0  0  0  0  0  0
    2.6433    0.3437    0.9016 C   0  0  0  0  0  0  0  0  0  0  0  0
    4.0525    0.7005    0.6901 N   0  0  0  0  0  0  0  0  0  0  0  0
    2.5085   -0.8947   -1.1694 O   0  0  0  0  0  0  0  0  0  0  0  0
   -2.6640    1.8047   -0.2816 O   0  0  0  0  0  0  0  0  0  0  0  0
   -3.5563   -0.7202    0.3631 O   0  0  0  0  0  0  0  0  0  0  0  0
    0.7304   -2.1189    0.1898 H   0  0  0  0  0  0  0  0  0  0  0  0
   -1.6709   -2.5281    0.5420 H   0  0  0  0  0  0  0  0  0  0  0  0
   -0.0733    1.9920   -0.6121 H   0  0  0  0  0  0  0  0  0  0  0  0
    2.0785    1.1211   -1.0265 H   0  0  0  0  0  0  0  0  0  0  0  0
    2.1544    1.1241    1.4847 H   0  0  0  0  0  0  0  0  0  0  0  0
    2.5848   -0.6024    1.4396 H   0  0  0  0  0  0  0  0  0  0  0  0
    4.5367    0.7983    1.5699 H   0  0  0  0  0  0  0  0  0  0  0  0
    4.5116    0.0249    0.0978 H   0  0  0  0  0  0  0  0  0  0  0  0
    2.4247   -1.7448   -0.7162 H   0  0  0  0  0  0  0  0  0  0  0  0
   -2.8242    2.2865    0.5414 H   0  0  0  0  0  0  0  0  0  0  0  0
   -3.8442   -0.6001    1.2784 H   0  0  0  0  0  0  0  0  0  0  0  0
  1  2  2  0  0  0  0
  2  3  1  0  0  0  0
  3  4  2  0  0  0  0
  4  5  1  0  0  0  0
  5  6  2  0  0  0  0
  1  6  1  0  0  0  0
  6  7  1  0  0  0  0
  7  8  1  0  0  0  0
  8  9  1  0  0  0  0
  7 10  1  0  0  0  0
  4 11  1  0  0  0  0
  3 12  1  0  0  0  0
  1 13  1  0  0  0  0
  2 14  1  0  0  0  0
  5 15  1  0  0  0  0
  7 16  1  0  0  0  0
  8 17  1  0  0  0  0
  8 18  1  0  0  0  0
  9 19  1  0  0  0  0
  9 20  1  0  0  0  0
 10 21  1  0  0  0  0
 11 22  1  0  0  0  0
 12 23  1  0  0  0  0
M  END
$$$$
