C3H7O7P
APtclcactv06211806503D 0   0.00000     0.00000
 
 18 17  0  0  0  0  0  0  0  0999 V2000
   -1.5863    1.5499    0.5680 C   0  0  0  0  0  0  0  0  0  0  0  0
   -0.8880    0.1910    0.4863 C   0  0  0  0  0  0  0  0  0  0  0  0
   -1.8595   -0.8434   -0.0209 C   0  0  0  0  0  0  0  0  0  0  0  0
   -1.6703   -1.3782   -1.0877 O   0  0  0  0  0  0  0  0  0  0  0  0
   -2.9351   -1.1705    0.7124 O   0  0  0  0  0  0  0  0  0  0  0  0
    0.2234    0.2795   -0.4076 O   0  0  0  0  0  0  0  0  0  0  0  0
    1.7397   -0.0143    0.0467 P   0  0  0  0  0  0  0  0  0  0  0  0
    2.0835    0.8438    1.2025 O   0  0  0  0  0  0  0  0  0  0  0  0
    1.8841   -1.5622    0.4657 O   0  0  0  0  0  0  0  0  0  0  0  0
    2.7378    0.3062   -1.1753 O   0  0  0  0  0  0  0  0  0  0  0  0
   -2.1497    1.8731   -0.7049 O   0  0  0  0  0  0  0  0  0  0  0  0
   -2.3783    1.5071    1.3156 H   0  0  0  0  0  0  0  0  0  0  0  0
   -0.8620    2.3143    0.8494 H   0  0  0  0  0  0  0  0  0  0  0  0
   -0.5355   -0.0965    1.4769 H   0  0  0  0  0  0  0  0  0  0  0  0
   -3.5297   -1.8391    0.3457 H   0  0  0  0  0  0  0  0  0  0  0  0
    1.6737   -2.1833   -0.2450 H   0  0  0  0  0  0  0  0  0  0  0  0
    3.6705    0.1513   -0.9723 H   0  0  0  0  0  0  0  0  0  0  0  0
   -2.6093    2.7237   -0.7270 H   0  0  0  0  0  0  0  0  0  0  0  0
  1  2  1  0  0  0  0
  2  3  1  0  0  0  0
  3  4  2  0  0  0  0
  3  5  1  0  0  0  0
  2  6  1  0  0  0  0
  6  7  1  0  0  0  0
  7  8  2  0  0  0  0
  7  9  1  0  0  0  0
  7 10  1  0  0  0  0
  1 11  1  0  0  0  0
  1 12  1  0  0  0  0
  1 13  1  0  0  0  0
  2 14  1  0  0  0  0
  5 15  1  0  0  0  0
  9 16  1  0  0  0  0
 10 17  1  0  0  0  0
 11 18  1  0  0  0  0
M  END
$$$$
