C15H12O5
APtclcactv06211806503D 0   0.00000     0.00000
 
 32 34  0  0  0  0  0  0  0  0999 V2000
   -0.3024    1.5840    0.3888 C   0  0  0  0  0  0  0  0  0  0  0  0
   -0.7286    0.3818   -0.4664 C   0  0  0  0  0  0  0  0  0  0  0  0
    0.0261   -0.7658   -0.0774 O   0  0  0  0  0  0  0  0  0  0  0  0
    1.3763   -0.6737   -0.0422 C   0  0  0  0  0  0  0  0  0  0  0  0
    2.1493   -1.8173   -0.1341 C   0  0  0  0  0  0  0  0  0  0  0  0
    3.5351   -1.7297   -0.0911 C   0  0  0  0  0  0  0  0  0  0  0  0
    4.1637   -0.4983    0.0448 C   0  0  0  0  0  0  0  0  0  0  0  0
    3.4098    0.6584    0.1362 C   0  0  0  0  0  0  0  0  0  0  0  0
    2.0095    0.5765    0.0884 C   0  0  0  0  0  0  0  0  0  0  0  0
    1.1856    1.7878    0.1670 C   0  0  0  0  0  0  0  0  0  0  0  0
    1.6689    2.8961    0.0602 O   0  0  0  0  0  0  0  0  0  0  0  0
    4.0195    1.8622    0.2711 O   0  0  0  0  0  0  0  0  0  0  0  0
    4.2824   -2.8584   -0.1832 O   0  0  0  0  0  0  0  0  0  0  0  0
   -2.1967    0.1122   -0.2589 C   0  0  0  0  0  0  0  0  0  0  0  0
   -3.1181    0.5560   -1.1894 C   0  0  0  0  0  0  0  0  0  0  0  0
   -4.4644    0.3101   -1.0015 C   0  0  0  0  0  0  0  0  0  0  0  0
   -4.8917   -0.3827    0.1219 C   0  0  0  0  0  0  0  0  0  0  0  0
   -3.9652   -0.8269    1.0541 C   0  0  0  0  0  0  0  0  0  0  0  0
   -2.6195   -0.5834    0.8587 C   0  0  0  0  0  0  0  0  0  0  0  0
   -6.2157   -0.6254    0.3092 O   0  0  0  0  0  0  0  0  0  0  0  0
   -0.8494    2.4738    0.0771 H   0  0  0  0  0  0  0  0  0  0  0  0
   -0.4959    1.3779    1.4415 H   0  0  0  0  0  0  0  0  0  0  0  0
   -0.5433    0.5996   -1.5182 H   0  0  0  0  0  0  0  0  0  0  0  0
    1.6739   -2.7813   -0.2394 H   0  0  0  0  0  0  0  0  0  0  0  0
    5.2418   -0.4438    0.0795 H   0  0  0  0  0  0  0  0  0  0  0  0
    4.2213    2.2971   -0.5687 H   0  0  0  0  0  0  0  0  0  0  0  0
    4.5209   -3.0994   -1.0888 H   0  0  0  0  0  0  0  0  0  0  0  0
   -2.7850    1.0956   -2.0636 H   0  0  0  0  0  0  0  0  0  0  0  0
   -5.1838    0.6573   -1.7284 H   0  0  0  0  0  0  0  0  0  0  0  0
   -4.2953   -1.3665    1.9294 H   0  0  0  0  0  0  0  0  0  0  0  0
   -1.8978   -0.9290    1.5841 H   0  0  0  0  0  0  0  0  0  0  0  0
   -6.5215   -1.4575   -0.0770 H   0  0  0  0  0  0  0  0  0  0  0  0
  1  2  1  0  0  0  0
  2  3  1  0  0  0  0
  3  4  1  0  0  0  0
  4  5  2  0  0  0  0
  5  6  1  0  0  0  0
  6  7  2  0  0  0  0
  7  8  1  0  0  0  0
  8  9  2  0  0  0  0
  4  9  1  0  0  0  0
  9 10  1  0  0  0  0
  1 10  1  0  0  0  0
 10 11  2  0  0  0  0
  8 12  1  0  0  0  0
  6 13  1  0  0  0  0
  2 14  1  0  0  0  0
 14 15  2  0  0  0  0
 15 16  1  0  0  0  0
 16 17  2  0  0  0  0
 17 18  1  0  0  0  0
 18 19  2  0  0  0  0
 14 19  1  0  0  0  0
 17 20  1  0  0  0  0
  1 21  1  0  0  0  0
  1 22  1  0  0  0  0
  2 23  1  0  0  0  0
  5 24  1  0  0  0  0
  7 25  1  0  0  0  0
 12 26  1  0  0  0  0
 13 27  1  0  0  0  0
 15 28  1  0  0  0  0
 16 29  1  0  0  0  0
 18 30  1  0  0  0  0
 19 31  1  0  0  0  0
 20 32  1  0  0  0  0
M  END
$$$$
