C27H44O
APtclcactv06211804443D 0   0.00000     0.00000
 
 72 75  0  0  0  0  0  0  0  0999 V2000
    2.2144   -0.4136   -1.3195 C   0  0  0  0  0  0  0  0  0  0  0  0
    2.8365   -0.0110    0.0191 C   0  0  0  0  0  0  0  0  0  0  0  0
    4.2829    0.4351   -0.2043 C   0  0  0  0  0  0  0  0  0  0  0  0
    5.1275   -0.7675   -0.6300 C   0  0  0  0  0  0  0  0  0  0  0  0
    6.5522   -0.3281   -0.8501 C   0  0  0  0  0  0  0  0  0  0  0  0
    7.5305   -0.9464   -0.2364 C   0  0  0  0  0  0  0  0  0  0  0  0
    7.2547   -2.2075    0.5412 C   0  0  0  0  0  0  0  0  0  0  0  0
    8.9318   -0.3967   -0.3080 C   0  0  0  0  0  0  0  0  0  0  0  0
    2.0390    1.1367    0.6248 C   0  0  0  0  0  0  0  0  0  0  0  0
    1.9071    2.2977   -0.3975 C   0  0  0  0  0  0  0  0  0  0  0  0
    0.4047    2.3630   -0.7948 C   0  0  0  0  0  0  0  0  0  0  0  0
   -0.0772    0.9451   -0.4470 C   0  0  0  0  0  0  0  0  0  0  0  0
    0.5851    0.7343    0.9317 C   0  0  0  0  0  0  0  0  0  0  0  0
    0.3469   -0.6762    1.3953 C   0  0  0  0  0  0  0  0  0  0  0  0
   -1.1453   -1.0333    1.3673 C   0  0  0  0  0  0  0  0  0  0  0  0
   -2.0455    0.0838    0.8756 C   0  0  0  0  0  0  0  0  0  0  0  0
   -1.5531    0.7064   -0.4301 C   0  0  0  0  0  0  0  0  0  0  0  0
   -2.3598    1.9889   -0.6692 C   0  0  0  0  0  0  0  0  0  0  0  0
   -3.8191    1.6256   -0.6810 C   0  0  0  0  0  0  0  0  0  0  0  0
   -4.2958    0.5595   -0.1191 C   0  0  0  0  0  0  0  0  0  0  0  0
   -3.4691   -0.4415    0.6482 C   0  0  0  0  0  0  0  0  0  0  0  0
   -3.4580   -1.7534   -0.1268 C   0  0  0  0  0  0  0  0  0  0  0  0
   -4.6610   -1.8390   -1.0628 C   0  0  0  0  0  0  0  0  0  0  0  0
   -5.9291   -1.2553   -0.4539 C   0  0  0  0  0  0  0  0  0  0  0  0
   -5.7793    0.2563   -0.2430 C   0  0  0  0  0  0  0  0  0  0  0  0
   -7.0305   -1.4968   -1.3386 O   0  0  0  0  0  0  0  0  0  0  0  0
   -4.1026   -0.6666    2.0221 C   0  0  0  0  0  0  0  0  0  0  0  0
    0.0909    1.7395    1.9807 C   0  0  0  0  0  0  0  0  0  0  0  0
    1.9785    0.4819   -1.8945 H   0  0  0  0  0  0  0  0  0  0  0  0
    2.9204   -1.0284   -1.8779 H   0  0  0  0  0  0  0  0  0  0  0  0
    1.3013   -0.9811   -1.1398 H   0  0  0  0  0  0  0  0  0  0  0  0
    2.8199   -0.8632    0.6984 H   0  0  0  0  0  0  0  0  0  0  0  0
    4.3123    1.1946   -0.9856 H   0  0  0  0  0  0  0  0  0  0  0  0
    4.6821    0.8502    0.7211 H   0  0  0  0  0  0  0  0  0  0  0  0
    5.0981   -1.5270    0.1513 H   0  0  0  0  0  0  0  0  0  0  0  0
    4.7283   -1.1826   -1.5554 H   0  0  0  0  0  0  0  0  0  0  0  0
    6.7665    0.4965   -1.5137 H   0  0  0  0  0  0  0  0  0  0  0  0
    6.2148   -2.5017    0.3993 H   0  0  0  0  0  0  0  0  0  0  0  0
    7.9091   -3.0037    0.1863 H   0  0  0  0  0  0  0  0  0  0  0  0
    7.4406   -2.0293    1.6003 H   0  0  0  0  0  0  0  0  0  0  0  0
    9.0935    0.2949    0.5189 H   0  0  0  0  0  0  0  0  0  0  0  0
    9.6475   -1.2161   -0.2415 H   0  0  0  0  0  0  0  0  0  0  0  0
    9.0681    0.1289   -1.2532 H   0  0  0  0  0  0  0  0  0  0  0  0
    2.5151    1.4972    1.5365 H   0  0  0  0  0  0  0  0  0  0  0  0
    2.2116    3.2354    0.0636 H   0  0  0  0  0  0  0  0  0  0  0  0
    2.5158    2.0900   -1.2755 H   0  0  0  0  0  0  0  0  0  0  0  0
   -0.1227    3.1257   -0.2375 H   0  0  0  0  0  0  0  0  0  0  0  0
    0.3094    2.5392   -1.8694 H   0  0  0  0  0  0  0  0  0  0  0  0
    0.3813    0.2474   -1.1770 H   0  0  0  0  0  0  0  0  0  0  0  0
    0.8793   -1.3989    0.7647 H   0  0  0  0  0  0  0  0  0  0  0  0
    0.7246   -0.7953    2.4219 H   0  0  0  0  0  0  0  0  0  0  0  0
   -1.2765   -1.9162    0.7259 H   0  0  0  0  0  0  0  0  0  0  0  0
   -1.4480   -1.3297    2.3813 H   0  0  0  0  0  0  0  0  0  0  0  0
   -2.1499    0.8534    1.6445 H   0  0  0  0  0  0  0  0  0  0  0  0
   -1.8019    0.0071   -1.2561 H   0  0  0  0  0  0  0  0  0  0  0  0
   -2.1685    2.6999    0.1313 H   0  0  0  0  0  0  0  0  0  0  0  0
   -2.0838    2.4217   -1.6287 H   0  0  0  0  0  0  0  0  0  0  0  0
   -4.5046    2.2888   -1.1850 H   0  0  0  0  0  0  0  0  0  0  0  0
   -2.5426   -1.8203   -0.7178 H   0  0  0  0  0  0  0  0  0  0  0  0
   -3.4877   -2.5890    0.5751 H   0  0  0  0  0  0  0  0  0  0  0  0
   -4.4294   -1.3040   -1.9872 H   0  0  0  0  0  0  0  0  0  0  0  0
   -4.8382   -2.8891   -1.3122 H   0  0  0  0  0  0  0  0  0  0  0  0
   -6.1391   -1.7419    0.4996 H   0  0  0  0  0  0  0  0  0  0  0  0
   -6.3058    0.5665    0.6589 H   0  0  0  0  0  0  0  0  0  0  0  0
   -6.1916    0.7902   -1.1034 H   0  0  0  0  0  0  0  0  0  0  0  0
   -7.8754   -1.1529   -1.0179 H   0  0  0  0  0  0  0  0  0  0  0  0
   -5.1161   -1.0476    1.8968 H   0  0  0  0  0  0  0  0  0  0  0  0
   -3.5092   -1.3896    2.5817 H   0  0  0  0  0  0  0  0  0  0  0  0
   -4.1339    0.2770    2.5667 H   0  0  0  0  0  0  0  0  0  0  0  0
   -0.9607    1.5513    2.1971 H   0  0  0  0  0  0  0  0  0  0  0  0
    0.6753    1.6283    2.8940 H   0  0  0  0  0  0  0  0  0  0  0  0
    0.2070    2.7527    1.5961 H   0  0  0  0  0  0  0  0  0  0  0  0
  1  2  1  0  0  0  0
  2  3  1  0  0  0  0
  3  4  1  0  0  0  0
  4  5  1  0  0  0  0
  5  6  2  0  0  0  0
  6  7  1  0  0  0  0
  6  8  1  0  0  0  0
  2  9  1  0  0  0  0
  9 10  1  0  0  0  0
 10 11  1  0  0  0  0
 11 12  1  0  0  0  0
 12 13  1  0  0  0  0
  9 13  1  0  0  0  0
 13 14  1  0  0  0  0
 14 15  1  0  0  0  0
 15 16  1  0  0  0  0
 16 17  1  0  0  0  0
 12 17  1  0  0  0  0
 17 18  1  0  0  0  0
 18 19  1  0  0  0  0
 19 20  2  0  0  0  0
 20 21  1  0  0  0  0
 16 21  1  0  0  0  0
 21 22  1  0  0  0  0
 22 23  1  0  0  0  0
 23 24  1  0  0  0  0
 24 25  1  0  0  0  0
 20 25  1  0  0  0  0
 24 26  1  0  0  0  0
 21 27  1  0  0  0  0
 13 28  1  0  0  0  0
  1 29  1  0  0  0  0
  1 30  1  0  0  0  0
  1 31  1  0  0  0  0
  2 32  1  0  0  0  0
  3 33  1  0  0  0  0
  3 34  1  0  0  0  0
  4 35  1  0  0  0  0
  4 36  1  0  0  0  0
  5 37  1  0  0  0  0
  7 38  1  0  0  0  0
  7 39  1  0  0  0  0
  7 40  1  0  0  0  0
  8 41  1  0  0  0  0
  8 42  1  0  0  0  0
  8 43  1  0  0  0  0
  9 44  1  0  0  0  0
 10 45  1  0  0  0  0
 10 46  1  0  0  0  0
 11 47  1  0  0  0  0
 11 48  1  0  0  0  0
 12 49  1  0  0  0  0
 14 50  1  0  0  0  0
 14 51  1  0  0  0  0
 15 52  1  0  0  0  0
 15 53  1  0  0  0  0
 16 54  1  0  0  0  0
 17 55  1  0  0  0  0
 18 56  1  0  0  0  0
 18 57  1  0  0  0  0
 19 58  1  0  0  0  0
 22 59  1  0  0  0  0
 22 60  1  0  0  0  0
 23 61  1  0  0  0  0
 23 62  1  0  0  0  0
 24 63  1  0  0  0  0
 25 64  1  0  0  0  0
 25 65  1  0  0  0  0
 26 66  1  0  0  0  0
 27 67  1  0  0  0  0
 27 68  1  0  0  0  0
 27 69  1  0  0  0  0
 28 70  1  0  0  0  0
 28 71  1  0  0  0  0
 28 72  1  0  0  0  0
M  END
$$$$
