C19H23NO4
APtclcactv06211804453D 0   0.00000     0.00000
 
 47 49  0  0  0  0  0  0  0  0999 V2000
   -1.2135    3.8399   -0.0688 C   0  0  0  0  0  0  0  0  0  0  0  0
   -0.3427    2.7156    0.2992 N   0  0  0  0  0  0  0  0  0  0  0  0
    0.6466    3.1234    1.3095 C   0  0  0  0  0  0  0  0  0  0  0  0
    1.2667    1.8648    1.9169 C   0  0  0  0  0  0  0  0  0  0  0  0
    1.7355    0.9416    0.8213 C   0  0  0  0  0  0  0  0  0  0  0  0
    2.6299   -0.0671    1.1467 C   0  0  0  0  0  0  0  0  0  0  0  0
    3.0849   -0.9397    0.1740 C   0  0  0  0  0  0  0  0  0  0  0  0
    2.6399   -0.8024   -1.1373 C   0  0  0  0  0  0  0  0  0  0  0  0
    1.7481    0.2059   -1.4567 C   0  0  0  0  0  0  0  0  0  0  0  0
    1.2962    1.0798   -0.4785 C   0  0  0  0  0  0  0  0  0  0  0  0
    0.3336    2.1668   -0.8804 C   0  0  0  0  0  0  0  0  0  0  0  0
   -0.7101    1.5884   -1.8379 C   0  0  0  0  0  0  0  0  0  0  0  0
   -1.4830    0.4990   -1.1401 C   0  0  0  0  0  0  0  0  0  0  0  0
   -2.5600    0.8238   -0.3365 C   0  0  0  0  0  0  0  0  0  0  0  0
   -3.2717   -0.1766    0.3058 C   0  0  0  0  0  0  0  0  0  0  0  0
   -2.8997   -1.5072    0.1399 C   0  0  0  0  0  0  0  0  0  0  0  0
   -1.8192   -1.8259   -0.6669 C   0  0  0  0  0  0  0  0  0  0  0  0
   -1.1169   -0.8234   -1.3094 C   0  0  0  0  0  0  0  0  0  0  0  0
   -3.5948   -2.4926    0.7687 O   0  0  0  0  0  0  0  0  0  0  0  0
   -3.1563   -3.8353    0.5524 C   0  0  0  0  0  0  0  0  0  0  0  0
   -4.3312    0.1412    1.0970 O   0  0  0  0  0  0  0  0  0  0  0  0
    3.0800   -1.6554   -2.1008 O   0  0  0  0  0  0  0  0  0  0  0  0
    3.9631   -1.9264    0.4978 O   0  0  0  0  0  0  0  0  0  0  0  0
    4.3755   -2.0052    1.8637 C   0  0  0  0  0  0  0  0  0  0  0  0
   -0.6268    4.6004   -0.5841 H   0  0  0  0  0  0  0  0  0  0  0  0
   -2.0065    3.4850   -0.7270 H   0  0  0  0  0  0  0  0  0  0  0  0
   -1.6534    4.2687    0.8317 H   0  0  0  0  0  0  0  0  0  0  0  0
    1.4246    3.7243    0.8386 H   0  0  0  0  0  0  0  0  0  0  0  0
    0.1547    3.7029    2.0907 H   0  0  0  0  0  0  0  0  0  0  0  0
    2.1148    2.1447    2.5418 H   0  0  0  0  0  0  0  0  0  0  0  0
    0.5226    1.3533    2.5274 H   0  0  0  0  0  0  0  0  0  0  0  0
    2.9736   -0.1720    2.1652 H   0  0  0  0  0  0  0  0  0  0  0  0
    1.4016    0.3136   -2.4740 H   0  0  0  0  0  0  0  0  0  0  0  0
    0.8808    2.9636   -1.3842 H   0  0  0  0  0  0  0  0  0  0  0  0
   -1.3947    2.3775   -2.1489 H   0  0  0  0  0  0  0  0  0  0  0  0
   -0.2101    1.1751   -2.7139 H   0  0  0  0  0  0  0  0  0  0  0  0
   -2.8465    1.8573   -0.2092 H   0  0  0  0  0  0  0  0  0  0  0  0
   -1.5284   -2.8578   -0.7972 H   0  0  0  0  0  0  0  0  0  0  0  0
   -0.2749   -1.0731   -1.9379 H   0  0  0  0  0  0  0  0  0  0  0  0
   -3.7950   -4.5204    1.1098 H   0  0  0  0  0  0  0  0  0  0  0  0
   -3.2131   -4.0693   -0.5107 H   0  0  0  0  0  0  0  0  0  0  0  0
   -2.1262   -3.9404    0.8930 H   0  0  0  0  0  0  0  0  0  0  0  0
   -5.1770    0.1695    0.6291 H   0  0  0  0  0  0  0  0  0  0  0  0
    2.5321   -2.4451   -2.2071 H   0  0  0  0  0  0  0  0  0  0  0  0
    4.8631   -1.0735    2.1504 H   0  0  0  0  0  0  0  0  0  0  0  0
    3.5040   -2.1692    2.4975 H   0  0  0  0  0  0  0  0  0  0  0  0
    5.0740   -2.8332    1.9851 H   0  0  0  0  0  0  0  0  0  0  0  0
  1  2  1  0  0  0  0
  2  3  1  0  0  0  0
  3  4  1  0  0  0  0
  4  5  1  0  0  0  0
  5  6  2  0  0  0  0
  6  7  1  0  0  0  0
  7  8  2  0  0  0  0
  8  9  1  0  0  0  0
  9 10  2  0  0  0  0
  5 10  1  0  0  0  0
 10 11  1  0  0  0  0
  2 11  1  0  0  0  0
 11 12  1  0  0  0  0
 12 13  1  0  0  0  0
 13 14  2  0  0  0  0
 14 15  1  0  0  0  0
 15 16  2  0  0  0  0
 16 17  1  0  0  0  0
 17 18  2  0  0  0  0
 13 18  1  0  0  0  0
 16 19  1  0  0  0  0
 19 20  1  0  0  0  0
 15 21  1  0  0  0  0
  8 22  1  0  0  0  0
  7 23  1  0  0  0  0
 23 24  1  0  0  0  0
  1 25  1  0  0  0  0
  1 26  1  0  0  0  0
  1 27  1  0  0  0  0
  3 28  1  0  0  0  0
  3 29  1  0  0  0  0
  4 30  1  0  0  0  0
  4 31  1  0  0  0  0
  6 32  1  0  0  0  0
  9 33  1  0  0  0  0
 11 34  1  0  0  0  0
 12 35  1  0  0  0  0
 12 36  1  0  0  0  0
 14 37  1  0  0  0  0
 17 38  1  0  0  0  0
 18 39  1  0  0  0  0
 20 40  1  0  0  0  0
 20 41  1  0  0  0  0
 20 42  1  0  0  0  0
 21 43  1  0  0  0  0
 22 44  1  0  0  0  0
 24 45  1  0  0  0  0
 24 46  1  0  0  0  0
 24 47  1  0  0  0  0
M  END
$$$$
