C10H10O4
APtclcactv06211806433D 0   0.00000     0.00000
 
 24 25  0  0  0  0  0  0  0  0999 V2000
    3.7116    1.5466    0.0510 C   0  0  0  0  0  0  0  0  0  0  0  0
    2.3889    0.8427    0.3610 C   0  0  0  0  0  0  0  0  0  0  0  0
    1.2248    1.7044   -0.1295 C   0  0  0  0  0  0  0  0  0  0  0  0
   -0.0642    0.9276   -0.0632 C   0  0  0  0  0  0  0  0  0  0  0  0
   -1.2575    1.5933   -0.0274 C   0  0  0  0  0  0  0  0  0  0  0  0
   -2.4558    0.8884    0.0306 C   0  0  0  0  0  0  0  0  0  0  0  0
   -2.4552   -0.4985    0.0519 C   0  0  0  0  0  0  0  0  0  0  0  0
   -1.2532   -1.1869    0.0169 C   0  0  0  0  0  0  0  0  0  0  0  0
   -0.0499   -0.4707   -0.0384 C   0  0  0  0  0  0  0  0  0  0  0  0
    1.2412   -1.1842   -0.0654 C   0  0  0  0  0  0  0  0  0  0  0  0
    1.3072   -2.3820    0.1300 O   0  0  0  0  0  0  0  0  0  0  0  0
    2.3527   -0.4461   -0.3182 O   0  0  0  0  0  0  0  0  0  0  0  0
   -1.2412   -2.5432    0.0364 O   0  0  0  0  0  0  0  0  0  0  0  0
   -3.6330    1.5625    0.0669 O   0  0  0  0  0  0  0  0  0  0  0  0
    3.7365    2.5121    0.5562 H   0  0  0  0  0  0  0  0  0  0  0  0
    4.5410    0.9319    0.4008 H   0  0  0  0  0  0  0  0  0  0  0  0
    3.7995    1.6971   -1.0250 H   0  0  0  0  0  0  0  0  0  0  0  0
    2.3011    0.6905    1.4367 H   0  0  0  0  0  0  0  0  0  0  0  0
    1.1437    2.5922    0.4976 H   0  0  0  0  0  0  0  0  0  0  0  0
    1.4101    2.0088   -1.1596 H   0  0  0  0  0  0  0  0  0  0  0  0
   -1.2703    2.6731   -0.0439 H   0  0  0  0  0  0  0  0  0  0  0  0
   -3.3886   -1.0401    0.0961 H   0  0  0  0  0  0  0  0  0  0  0  0
   -1.2709   -2.9494   -0.8407 H   0  0  0  0  0  0  0  0  0  0  0  0
   -4.0091    1.7445   -0.8051 H   0  0  0  0  0  0  0  0  0  0  0  0
  1  2  1  0  0  0  0
  2  3  1  0  0  0  0
  3  4  1  0  0  0  0
  4  5  2  0  0  0  0
  5  6  1  0  0  0  0
  6  7  2  0  0  0  0
  7  8  1  0  0  0  0
  8  9  2  0  0  0  0
  4  9  1  0  0  0  0
  9 10  1  0  0  0  0
 10 11  2  0  0  0  0
 10 12  1  0  0  0  0
  2 12  1  0  0  0  0
  8 13  1  0  0  0  0
  6 14  1  0  0  0  0
  1 15  1  0  0  0  0
  1 16  1  0  0  0  0
  1 17  1  0  0  0  0
  2 18  1  0  0  0  0
  3 19  1  0  0  0  0
  3 20  1  0  0  0  0
  5 21  1  0  0  0  0
  7 22  1  0  0  0  0
 13 23  1  0  0  0  0
 14 24  1  0  0  0  0
M  END
$$$$
