C18H32O16
APtclcactv06211806513D 0   0.00000     0.00000
 
 66 68  0  0  0  0  0  0  0  0999 V2000
   -3.2118    2.9961   -1.3211 C   0  0  0  0  0  0  0  0  0  0  0  0
   -3.5147    1.6519   -0.6561 C   0  0  0  0  0  0  0  0  0  0  0  0
   -4.7339    1.7978    0.2581 C   0  0  0  0  0  0  0  0  0  0  0  0
   -5.0672    0.4350    0.8731 C   0  0  0  0  0  0  0  0  0  0  0  0
   -5.3023   -0.5770   -0.2525 C   0  0  0  0  0  0  0  0  0  0  0  0
   -4.0611   -0.6312   -1.1470 C   0  0  0  0  0  0  0  0  0  0  0  0
   -3.7890    0.6740   -1.6614 O   0  0  0  0  0  0  0  0  0  0  0  0
   -2.9422   -1.0849   -0.3825 O   0  0  0  0  0  0  0  0  0  0  0  0
   -1.7631   -1.3128   -1.1571 C   0  0  0  0  0  0  0  0  0  0  0  0
   -0.6743   -1.9113   -0.2643 C   0  0  0  0  0  0  0  0  0  0  0  0
    0.5788   -2.2749   -1.1009 C   0  0  0  0  0  0  0  0  0  0  0  0
    1.7027   -2.2317   -0.0372 C   0  0  0  0  0  0  0  0  0  0  0  0
    1.1195   -1.3621    1.0934 C   0  0  0  0  0  0  0  0  0  0  0  0
   -0.1822   -0.9250    0.6682 O   0  0  0  0  0  0  0  0  0  0  0  0
    0.9976   -2.1885    2.3753 C   0  0  0  0  0  0  0  0  0  0  0  0
    0.3539   -1.4089    3.3852 O   0  0  0  0  0  0  0  0  0  0  0  0
    1.9621   -0.2304    1.3200 O   0  0  0  0  0  0  0  0  0  0  0  0
    1.9983    0.6945    0.2313 C   0  0  0  0  0  0  0  0  0  0  0  0
    2.5304    2.0427    0.7242 C   0  0  0  0  0  0  0  0  0  0  0  0
    3.9653    1.8627    1.2291 C   0  0  0  0  0  0  0  0  0  0  0  0
    4.8216    1.2766    0.1023 C   0  0  0  0  0  0  0  0  0  0  0  0
    4.2010   -0.0420   -0.3666 C   0  0  0  0  0  0  0  0  0  0  0  0
    2.8573    0.1908   -0.7937 O   0  0  0  0  0  0  0  0  0  0  0  0
    5.0169   -0.6037   -1.5326 C   0  0  0  0  0  0  0  0  0  0  0  0
    4.5061   -1.8877   -1.8965 O   0  0  0  0  0  0  0  0  0  0  0  0
    4.8689    2.1971   -0.9897 O   0  0  0  0  0  0  0  0  0  0  0  0
    4.4959    3.1297    1.6231 O   0  0  0  0  0  0  0  0  0  0  0  0
    2.5170    2.9835   -0.3513 O   0  0  0  0  0  0  0  0  0  0  0  0
    1.9895   -3.5474    0.4410 O   0  0  0  0  0  0  0  0  0  0  0  0
    0.4562   -3.5840   -1.6604 O   0  0  0  0  0  0  0  0  0  0  0  0
   -5.5428   -1.8687    0.3093 O   0  0  0  0  0  0  0  0  0  0  0  0
   -3.9774   -0.0010    1.6881 O   0  0  0  0  0  0  0  0  0  0  0  0
   -4.4415    2.7326    1.2986 O   0  0  0  0  0  0  0  0  0  0  0  0
   -2.0130    2.8872   -2.0912 O   0  0  0  0  0  0  0  0  0  0  0  0
   -4.0393    3.2730   -1.9742 H   0  0  0  0  0  0  0  0  0  0  0  0
   -3.0829    3.7600   -0.5542 H   0  0  0  0  0  0  0  0  0  0  0  0
   -2.6540    1.3359   -0.0666 H   0  0  0  0  0  0  0  0  0  0  0  0
   -5.5848    2.1529   -0.3234 H   0  0  0  0  0  0  0  0  0  0  0  0
   -5.9678    0.5199    1.4812 H   0  0  0  0  0  0  0  0  0  0  0  0
   -6.1646   -0.2699   -0.8442 H   0  0  0  0  0  0  0  0  0  0  0  0
   -4.2389   -1.3182   -1.9743 H   0  0  0  0  0  0  0  0  0  0  0  0
   -1.9893   -2.0051   -1.9680 H   0  0  0  0  0  0  0  0  0  0  0  0
   -1.4133   -0.3679   -1.5729 H   0  0  0  0  0  0  0  0  0  0  0  0
   -1.0509   -2.7876    0.2634 H   0  0  0  0  0  0  0  0  0  0  0  0
    0.7535   -1.5345   -1.8816 H   0  0  0  0  0  0  0  0  0  0  0  0
    2.6003   -1.7703   -0.4490 H   0  0  0  0  0  0  0  0  0  0  0  0
    0.4080   -3.0833    2.1760 H   0  0  0  0  0  0  0  0  0  0  0  0
    1.9915   -2.4770    2.7174 H   0  0  0  0  0  0  0  0  0  0  0  0
    0.2428   -1.8708    4.2275 H   0  0  0  0  0  0  0  0  0  0  0  0
    0.9926    0.8248   -0.1685 H   0  0  0  0  0  0  0  0  0  0  0  0
    1.9015    2.4076    1.5363 H   0  0  0  0  0  0  0  0  0  0  0  0
    3.9694    1.1832    2.0814 H   0  0  0  0  0  0  0  0  0  0  0  0
    5.8314    1.0936    0.4697 H   0  0  0  0  0  0  0  0  0  0  0  0
    4.2022   -0.7571    0.4560 H   0  0  0  0  0  0  0  0  0  0  0  0
    4.9442    0.0712   -2.3854 H   0  0  0  0  0  0  0  0  0  0  0  0
    6.0605   -0.6995   -1.2329 H   0  0  0  0  0  0  0  0  0  0  0  0
    5.0227   -2.3376   -2.5789 H   0  0  0  0  0  0  0  0  0  0  0  0
    5.2471    3.0576   -0.7626 H   0  0  0  0  0  0  0  0  0  0  0  0
    3.9975    3.5622    2.3300 H   0  0  0  0  0  0  0  0  0  0  0  0
    1.6389    3.1427   -0.7237 H   0  0  0  0  0  0  0  0  0  0  0  0
    2.3048   -4.1543   -0.2426 H   0  0  0  0  0  0  0  0  0  0  0  0
   -0.2913   -3.6847   -2.2656 H   0  0  0  0  0  0  0  0  0  0  0  0
   -5.7001   -2.5604   -0.3479 H   0  0  0  0  0  0  0  0  0  0  0  0
   -4.1205   -0.8593    2.1099 H   0  0  0  0  0  0  0  0  0  0  0  0
   -5.1716    2.8743    1.9166 H   0  0  0  0  0  0  0  0  0  0  0  0
   -1.7595    3.7043   -2.5421 H   0  0  0  0  0  0  0  0  0  0  0  0
  1  2  1  0  0  0  0
  2  3  1  0  0  0  0
  3  4  1  0  0  0  0
  4  5  1  0  0  0  0
  5  6  1  0  0  0  0
  6  7  1  0  0  0  0
  2  7  1  0  0  0  0
  6  8  1  0  0  0  0
  8  9  1  0  0  0  0
  9 10  1  0  0  0  0
 10 11  1  0  0  0  0
 11 12  1  0  0  0  0
 12 13  1  0  0  0  0
 13 14  1  0  0  0  0
 10 14  1  0  0  0  0
 13 15  1  0  0  0  0
 15 16  1  0  0  0  0
 13 17  1  0  0  0  0
 17 18  1  0  0  0  0
 18 19  1  0  0  0  0
 19 20  1  0  0  0  0
 20 21  1  0  0  0  0
 21 22  1  0  0  0  0
 22 23  1  0  0  0  0
 18 23  1  0  0  0  0
 22 24  1  0  0  0  0
 24 25  1  0  0  0  0
 21 26  1  0  0  0  0
 20 27  1  0  0  0  0
 19 28  1  0  0  0  0
 12 29  1  0  0  0  0
 11 30  1  0  0  0  0
  5 31  1  0  0  0  0
  4 32  1  0  0  0  0
  3 33  1  0  0  0  0
  1 34  1  0  0  0  0
  1 35  1  0  0  0  0
  1 36  1  0  0  0  0
  2 37  1  0  0  0  0
  3 38  1  0  0  0  0
  4 39  1  0  0  0  0
  5 40  1  0  0  0  0
  6 41  1  0  0  0  0
  9 42  1  0  0  0  0
  9 43  1  0  0  0  0
 10 44  1  0  0  0  0
 11 45  1  0  0  0  0
 12 46  1  0  0  0  0
 15 47  1  0  0  0  0
 15 48  1  0  0  0  0
 16 49  1  0  0  0  0
 18 50  1  0  0  0  0
 19 51  1  0  0  0  0
 20 52  1  0  0  0  0
 21 53  1  0  0  0  0
 22 54  1  0  0  0  0
 24 55  1  0  0  0  0
 24 56  1  0  0  0  0
 25 57  1  0  0  0  0
 26 58  1  0  0  0  0
 27 59  1  0  0  0  0
 28 60  1  0  0  0  0
 29 61  1  0  0  0  0
 30 62  1  0  0  0  0
 31 63  1  0  0  0  0
 32 64  1  0  0  0  0
 33 65  1  0  0  0  0
 34 66  1  0  0  0  0
M  END
$$$$
