C12H22O11
APtclcactv06201809453D 0   0.00000     0.00000
 
 45 46  0  0  0  0  0  0  0  0999 V2000
   -2.8001    2.1583   -1.3238 C   0  0  0  0  0  0  0  0  0  0  0  0
   -2.3460    0.8940   -0.5915 C   0  0  0  0  0  0  0  0  0  0  0  0
   -3.5714    0.1341   -0.0771 C   0  0  0  0  0  0  0  0  0  0  0  0
   -3.1122   -1.1600    0.6018 C   0  0  0  0  0  0  0  0  0  0  0  0
   -2.2936   -1.9845   -0.3964 C   0  0  0  0  0  0  0  0  0  0  0  0
   -1.1176   -1.1428   -0.8985 C   0  0  0  0  0  0  0  0  0  0  0  0
   -1.6128    0.0598   -1.4907 O   0  0  0  0  0  0  0  0  0  0  0  0
   -0.2623   -0.8165    0.1988 O   0  0  0  0  0  0  0  0  0  0  0  0
    1.0010   -0.2737   -0.1904 C   0  0  0  0  0  0  0  0  0  0  0  0
    1.5781    0.5551    0.9602 C   0  0  0  0  0  0  0  0  0  0  0  0
    2.8670    1.0489    0.5901 O   0  0  0  0  0  0  0  0  0  0  0  0
    3.8263    0.0264    0.3139 C   0  0  0  0  0  0  0  0  0  0  0  0
    3.3396   -0.8237   -0.8627 C   0  0  0  0  0  0  0  0  0  0  0  0
    1.9679   -1.4144   -0.5226 C   0  0  0  0  0  0  0  0  0  0  0  0
    2.0879   -2.2832    0.6056 O   0  0  0  0  0  0  0  0  0  0  0  0
    3.2315   -0.0063   -2.0298 O   0  0  0  0  0  0  0  0  0  0  0  0
    5.0801    0.6263   -0.0181 O   0  0  0  0  0  0  0  0  0  0  0  0
    0.6470    1.7321    1.2582 C   0  0  0  0  0  0  0  0  0  0  0  0
    1.1319    2.4465    2.3969 O   0  0  0  0  0  0  0  0  0  0  0  0
   -1.7988   -3.1602    0.2478 O   0  0  0  0  0  0  0  0  0  0  0  0
   -2.3037   -0.8434    1.7368 O   0  0  0  0  0  0  0  0  0  0  0  0
   -4.2746    0.9448    0.8665 O   0  0  0  0  0  0  0  0  0  0  0  0
   -1.6560    2.9264   -1.7022 O   0  0  0  0  0  0  0  0  0  0  0  0
   -3.3618    1.8799   -2.2154 H   0  0  0  0  0  0  0  0  0  0  0  0
   -3.4344    2.7516   -0.6652 H   0  0  0  0  0  0  0  0  0  0  0  0
   -1.7098    1.1697    0.2495 H   0  0  0  0  0  0  0  0  0  0  0  0
   -4.2283   -0.1064   -0.9130 H   0  0  0  0  0  0  0  0  0  0  0  0
   -3.9827   -1.7331    0.9210 H   0  0  0  0  0  0  0  0  0  0  0  0
   -2.9247   -2.2678   -1.2388 H   0  0  0  0  0  0  0  0  0  0  0  0
   -0.5561   -1.7093   -1.6414 H   0  0  0  0  0  0  0  0  0  0  0  0
    0.8703    0.3611   -1.0668 H   0  0  0  0  0  0  0  0  0  0  0  0
    1.6696   -0.0701    1.8483 H   0  0  0  0  0  0  0  0  0  0  0  0
    3.9473   -0.6058    1.1936 H   0  0  0  0  0  0  0  0  0  0  0  0
    4.0485   -1.6310   -1.0466 H   0  0  0  0  0  0  0  0  0  0  0  0
    1.5902   -1.9751   -1.3777 H   0  0  0  0  0  0  0  0  0  0  0  0
    2.6914   -3.0260    0.4676 H   0  0  0  0  0  0  0  0  0  0  0  0
    4.0639    0.4048   -2.3005 H   0  0  0  0  0  0  0  0  0  0  0  0
    5.4485    1.1813    0.6829 H   0  0  0  0  0  0  0  0  0  0  0  0
    0.6172    2.3989    0.3965 H   0  0  0  0  0  0  0  0  0  0  0  0
   -0.3562    1.3587    1.4636 H   0  0  0  0  0  0  0  0  0  0  0  0
    0.5892    3.2077    2.6439 H   0  0  0  0  0  0  0  0  0  0  0  0
   -1.2702   -3.7307   -0.3269 H   0  0  0  0  0  0  0  0  0  0  0  0
   -1.9775   -1.6177    2.2156 H   0  0  0  0  0  0  0  0  0  0  0  0
   -5.0643    0.5250    1.2344 H   0  0  0  0  0  0  0  0  0  0  0  0
   -1.8692    3.7442   -2.1721 H   0  0  0  0  0  0  0  0  0  0  0  0
  1  2  1  0  0  0  0
  2  3  1  0  0  0  0
  3  4  1  0  0  0  0
  4  5  1  0  0  0  0
  5  6  1  0  0  0  0
  6  7  1  0  0  0  0
  2  7  1  0  0  0  0
  6  8  1  0  0  0  0
  8  9  1  0  0  0  0
  9 10  1  0  0  0  0
 10 11  1  0  0  0  0
 11 12  1  0  0  0  0
 12 13  1  0  0  0  0
 13 14  1  0  0  0  0
  9 14  1  0  0  0  0
 14 15  1  0  0  0  0
 13 16  1  0  0  0  0
 12 17  1  0  0  0  0
 10 18  1  0  0  0  0
 18 19  1  0  0  0  0
  5 20  1  0  0  0  0
  4 21  1  0  0  0  0
  3 22  1  0  0  0  0
  1 23  1  0  0  0  0
  1 24  1  0  0  0  0
  1 25  1  0  0  0  0
  2 26  1  0  0  0  0
  3 27  1  0  0  0  0
  4 28  1  0  0  0  0
  5 29  1  0  0  0  0
  6 30  1  0  0  0  0
  9 31  1  0  0  0  0
 10 32  1  0  0  0  0
 12 33  1  0  0  0  0
 13 34  1  0  0  0  0
 14 35  1  0  0  0  0
 15 36  1  0  0  0  0
 16 37  1  0  0  0  0
 17 38  1  0  0  0  0
 18 39  1  0  0  0  0
 18 40  1  0  0  0  0
 19 41  1  0  0  0  0
 20 42  1  0  0  0  0
 21 43  1  0  0  0  0
 22 44  1  0  0  0  0
 23 45  1  0  0  0  0
M  END
$$$$
