C20H28O5
APtclcactv06211806513D 0   0.00000     0.00000
 
 53 56  0  0  0  0  0  0  0  0999 V2000
    1.1157    1.4675    1.7850 C   0  0  0  0  0  0  0  0  0  0  0  0
    0.6239    1.4514    0.3383 C   0  0  0  0  0  0  0  0  0  0  0  0
    1.1754    2.6597   -0.3761 C   0  0  0  0  0  0  0  0  0  0  0  0
    2.7073    2.5435   -0.3673 C   0  0  0  0  0  0  0  0  0  0  0  0
    3.1704    1.2810   -1.0711 C   0  0  0  0  0  0  0  0  0  0  0  0
    2.5112   -0.0138   -0.5681 C   0  0  0  0  0  0  0  0  0  0  0  0
    1.0368    0.1664   -0.4078 C   0  0  0  0  0  0  0  0  0  0  0  0
    0.1982   -0.8883    0.3392 C   0  0  0  0  0  0  0  0  0  0  0  0
   -1.1685   -0.1953    0.3509 C   0  0  0  0  0  0  0  0  0  0  0  0
   -0.8952    1.3295    0.4288 C   0  0  0  0  0  0  0  0  0  0  0  0
   -1.6489    2.0353   -0.6863 C   0  0  0  0  0  0  0  0  0  0  0  0
   -3.1454    1.7096   -0.5406 C   0  0  0  0  0  0  0  0  0  0  0  0
   -3.3416    0.1864   -0.5097 C   0  0  0  0  0  0  0  0  0  0  0  0
   -1.9854   -0.4573   -0.9293 C   0  0  0  0  0  0  0  0  0  0  0  0
   -3.5071   -0.2501    0.9426 C   0  0  0  0  0  0  0  0  0  0  0  0
   -4.6322   -0.3213    1.6105 C   0  0  0  0  0  0  0  0  0  0  0  0
   -2.1188   -0.5935    1.4733 C   0  0  0  0  0  0  0  0  0  0  0  0
   -4.4271   -0.2439   -1.3362 O   0  0  0  0  0  0  0  0  0  0  0  0
    0.1353   -2.2084   -0.3778 C   0  0  0  0  0  0  0  0  0  0  0  0
    0.1255   -2.2400   -1.5856 O   0  0  0  0  0  0  0  0  0  0  0  0
    0.0900   -3.3518    0.3239 O   0  0  0  0  0  0  0  0  0  0  0  0
    2.7770   -1.0665   -1.6792 C   0  0  0  0  0  0  0  0  0  0  0  0
    3.2089   -0.5073    0.6721 C   0  0  0  0  0  0  0  0  0  0  0  0
    2.5937   -0.6241    1.7054 O   0  0  0  0  0  0  0  0  0  0  0  0
    4.5142   -0.8174    0.6294 O   0  0  0  0  0  0  0  0  0  0  0  0
    0.7592    2.3709    2.2800 H   0  0  0  0  0  0  0  0  0  0  0  0
    0.7332    0.5913    2.3086 H   0  0  0  0  0  0  0  0  0  0  0  0
    2.2055    1.4518    1.7985 H   0  0  0  0  0  0  0  0  0  0  0  0
    0.8109    2.6838   -1.4043 H   0  0  0  0  0  0  0  0  0  0  0  0
    0.8682    3.5704    0.1406 H   0  0  0  0  0  0  0  0  0  0  0  0
    3.1136    3.4084   -0.9137 H   0  0  0  0  0  0  0  0  0  0  0  0
    3.1015    2.5875    0.6402 H   0  0  0  0  0  0  0  0  0  0  0  0
    2.9681    1.3781   -2.1430 H   0  0  0  0  0  0  0  0  0  0  0  0
    4.2546    1.1853   -0.9473 H   0  0  0  0  0  0  0  0  0  0  0  0
    0.6019    0.2324   -1.4389 H   0  0  0  0  0  0  0  0  0  0  0  0
    0.5525   -1.0393    1.3604 H   0  0  0  0  0  0  0  0  0  0  0  0
   -1.2180    1.7108    1.3978 H   0  0  0  0  0  0  0  0  0  0  0  0
   -1.5118    3.1186   -0.5842 H   0  0  0  0  0  0  0  0  0  0  0  0
   -1.2831    1.7297   -1.6610 H   0  0  0  0  0  0  0  0  0  0  0  0
   -3.5234    2.1498    0.3833 H   0  0  0  0  0  0  0  0  0  0  0  0
   -3.6913    2.1323   -1.3865 H   0  0  0  0  0  0  0  0  0  0  0  0
   -1.5606    0.0204   -1.8058 H   0  0  0  0  0  0  0  0  0  0  0  0
   -2.1447   -1.5238   -1.1176 H   0  0  0  0  0  0  0  0  0  0  0  0
   -5.5626   -0.0554    1.1308 H   0  0  0  0  0  0  0  0  0  0  0  0
   -4.6292   -0.6458    2.6405 H   0  0  0  0  0  0  0  0  0  0  0  0
   -2.0438   -1.6599    1.6756 H   0  0  0  0  0  0  0  0  0  0  0  0
   -1.9049   -0.0171    2.3720 H   0  0  0  0  0  0  0  0  0  0  0  0
   -5.2815    0.1390   -1.0942 H   0  0  0  0  0  0  0  0  0  0  0  0
    0.0504   -4.1755   -0.1811 H   0  0  0  0  0  0  0  0  0  0  0  0
    3.8452   -1.1082   -1.8921 H   0  0  0  0  0  0  0  0  0  0  0  0
    2.4353   -2.0450   -1.3419 H   0  0  0  0  0  0  0  0  0  0  0  0
    2.2371   -0.7849   -2.5833 H   0  0  0  0  0  0  0  0  0  0  0  0
    4.9183   -1.1298    1.4505 H   0  0  0  0  0  0  0  0  0  0  0  0
  1  2  1  0  0  0  0
  2  3  1  0  0  0  0
  3  4  1  0  0  0  0
  4  5  1  0  0  0  0
  5  6  1  0  0  0  0
  6  7  1  0  0  0  0
  2  7  1  0  0  0  0
  7  8  1  0  0  0  0
  8  9  1  0  0  0  0
  9 10  1  0  0  0  0
  2 10  1  0  0  0  0
 10 11  1  0  0  0  0
 11 12  1  0  0  0  0
 12 13  1  0  0  0  0
 13 14  1  0  0  0  0
  9 14  1  0  0  0  0
 13 15  1  0  0  0  0
 15 16  2  0  0  0  0
 15 17  1  0  0  0  0
  9 17  1  0  0  0  0
 13 18  1  0  0  0  0
  8 19  1  0  0  0  0
 19 20  2  0  0  0  0
 19 21  1  0  0  0  0
  6 22  1  0  0  0  0
  6 23  1  0  0  0  0
 23 24  2  0  0  0  0
 23 25  1  0  0  0  0
  1 26  1  0  0  0  0
  1 27  1  0  0  0  0
  1 28  1  0  0  0  0
  3 29  1  0  0  0  0
  3 30  1  0  0  0  0
  4 31  1  0  0  0  0
  4 32  1  0  0  0  0
  5 33  1  0  0  0  0
  5 34  1  0  0  0  0
  7 35  1  0  0  0  0
  8 36  1  0  0  0  0
 10 37  1  0  0  0  0
 11 38  1  0  0  0  0
 11 39  1  0  0  0  0
 12 40  1  0  0  0  0
 12 41  1  0  0  0  0
 14 42  1  0  0  0  0
 14 43  1  0  0  0  0
 16 44  1  0  0  0  0
 16 45  1  0  0  0  0
 17 46  1  0  0  0  0
 17 47  1  0  0  0  0
 18 48  1  0  0  0  0
 21 49  1  0  0  0  0
 22 50  1  0  0  0  0
 22 51  1  0  0  0  0
 22 52  1  0  0  0  0
 25 53  1  0  0  0  0
M  END
$$$$
