C15H24
APtclcactv06211806513D 0   0.00000     0.00000
 
 39 40  0  0  0  0  0  0  0  0999 V2000
   -0.6476    3.4930   -0.8050 C   0  0  0  0  0  0  0  0  0  0  0  0
   -0.8653    2.1010   -0.2700 C   0  0  0  0  0  0  0  0  0  0  0  0
    0.1755    1.4716    0.1751 C   0  0  0  0  0  0  0  0  0  0  0  0
    0.1119    0.0940    0.7623 C   0  0  0  0  0  0  0  0  0  0  0  0
    1.2918   -0.7598    0.3591 C   0  0  0  0  0  0  0  0  0  0  0  0
    0.9258   -1.7430   -0.7516 C   0  0  0  0  0  0  0  0  0  0  0  0
   -0.2249   -2.6281   -0.2529 C   0  0  0  0  0  0  0  0  0  0  0  0
   -1.3988   -1.7321    0.0469 C   0  0  0  0  0  0  0  0  0  0  0  0
   -1.2251   -0.5169    0.4741 C   0  0  0  0  0  0  0  0  0  0  0  0
   -2.4344    0.3874    0.6551 C   0  0  0  0  0  0  0  0  0  0  0  0
   -2.2657    1.5733   -0.2956 C   0  0  0  0  0  0  0  0  0  0  0  0
   -2.7984   -2.2540   -0.1520 C   0  0  0  0  0  0  0  0  0  0  0  0
    2.4206    0.1491   -0.1313 C   0  0  0  0  0  0  0  0  0  0  0  0
    2.9431    0.9887    1.0362 C   0  0  0  0  0  0  0  0  0  0  0  0
    3.5575   -0.7073   -0.6926 C   0  0  0  0  0  0  0  0  0  0  0  0
    0.4079    3.7525   -0.7237 H   0  0  0  0  0  0  0  0  0  0  0  0
   -0.9518    3.5319   -1.8510 H   0  0  0  0  0  0  0  0  0  0  0  0
   -1.2415    4.2013   -0.2273 H   0  0  0  0  0  0  0  0  0  0  0  0
    1.1357    1.9630    0.1203 H   0  0  0  0  0  0  0  0  0  0  0  0
    0.1644    0.2132    1.8445 H   0  0  0  0  0  0  0  0  0  0  0  0
    1.6394   -1.3186    1.2280 H   0  0  0  0  0  0  0  0  0  0  0  0
    0.6092   -1.1940   -1.6384 H   0  0  0  0  0  0  0  0  0  0  0  0
    1.7890   -2.3636   -0.9918 H   0  0  0  0  0  0  0  0  0  0  0  0
   -0.4977   -3.3482   -1.0243 H   0  0  0  0  0  0  0  0  0  0  0  0
    0.0792   -3.1534    0.6525 H   0  0  0  0  0  0  0  0  0  0  0  0
   -3.3457   -0.1585    0.4110 H   0  0  0  0  0  0  0  0  0  0  0  0
   -2.4795    0.7450    1.6838 H   0  0  0  0  0  0  0  0  0  0  0  0
   -2.9553    2.3653   -0.0038 H   0  0  0  0  0  0  0  0  0  0  0  0
   -2.5011    1.2530   -1.3106 H   0  0  0  0  0  0  0  0  0  0  0  0
   -2.7551   -3.2823   -0.5112 H   0  0  0  0  0  0  0  0  0  0  0  0
   -3.3360   -2.2226    0.7957 H   0  0  0  0  0  0  0  0  0  0  0  0
   -3.3165   -1.6349   -0.8843 H   0  0  0  0  0  0  0  0  0  0  0  0
    2.0427    0.8085   -0.9126 H   0  0  0  0  0  0  0  0  0  0  0  0
    3.4316    0.3381    1.7615 H   0  0  0  0  0  0  0  0  0  0  0  0
    3.6596    1.7213    0.6648 H   0  0  0  0  0  0  0  0  0  0  0  0
    2.1103    1.5047    1.5139 H   0  0  0  0  0  0  0  0  0  0  0  0
    4.3617   -0.0598   -1.0420 H   0  0  0  0  0  0  0  0  0  0  0  0
    3.9354   -1.3668    0.0887 H   0  0  0  0  0  0  0  0  0  0  0  0
    3.1853   -1.3054   -1.5243 H   0  0  0  0  0  0  0  0  0  0  0  0
  1  2  1  0  0  0  0
  2  3  2  0  0  0  0
  3  4  1  0  0  0  0
  4  5  1  0  0  0  0
  5  6  1  0  0  0  0
  6  7  1  0  0  0  0
  7  8  1  0  0  0  0
  8  9  2  0  0  0  0
  4  9  1  0  0  0  0
  9 10  1  0  0  0  0
 10 11  1  0  0  0  0
  2 11  1  0  0  0  0
  8 12  1  0  0  0  0
  5 13  1  0  0  0  0
 13 14  1  0  0  0  0
 13 15  1  0  0  0  0
  1 16  1  0  0  0  0
  1 17  1  0  0  0  0
  1 18  1  0  0  0  0
  3 19  1  0  0  0  0
  4 20  1  0  0  0  0
  5 21  1  0  0  0  0
  6 22  1  0  0  0  0
  6 23  1  0  0  0  0
  7 24  1  0  0  0  0
  7 25  1  0  0  0  0
 10 26  1  0  0  0  0
 10 27  1  0  0  0  0
 11 28  1  0  0  0  0
 11 29  1  0  0  0  0
 12 30  1  0  0  0  0
 12 31  1  0  0  0  0
 12 32  1  0  0  0  0
 13 33  1  0  0  0  0
 14 34  1  0  0  0  0
 14 35  1  0  0  0  0
 14 36  1  0  0  0  0
 15 37  1  0  0  0  0
 15 38  1  0  0  0  0
 15 39  1  0  0  0  0
M  END
$$$$
