C24H26O4
APtclcactv06291802493D 0   0.00000     0.00000
 
 54 56  0  0  0  0  0  0  0  0999 V2000
   -2.2122   -1.3823    3.0923 C   0  0  0  0  0  0  0  0  0  0  0  0
   -3.4029   -1.8370    2.2882 C   0  0  0  0  0  0  0  0  0  0  0  0
   -3.9603   -1.0234    1.4260 C   0  0  0  0  0  0  0  0  0  0  0  0
   -3.4109    0.3672    1.2381 C   0  0  0  0  0  0  0  0  0  0  0  0
   -3.0874    0.5872   -0.2173 C   0  0  0  0  0  0  0  0  0  0  0  0
   -4.0469    1.1015   -1.0711 C   0  0  0  0  0  0  0  0  0  0  0  0
   -3.7593    1.3088   -2.4176 C   0  0  0  0  0  0  0  0  0  0  0  0
   -2.5230    1.0063   -2.9142 C   0  0  0  0  0  0  0  0  0  0  0  0
   -1.5433    0.4865   -2.0664 C   0  0  0  0  0  0  0  0  0  0  0  0
   -1.8239    0.2795   -0.7040 C   0  0  0  0  0  0  0  0  0  0  0  0
   -0.7110   -0.2234   -0.1320 O   0  0  0  0  0  0  0  0  0  0  0  0
    0.2773   -0.3565   -1.0392 C   0  0  0  0  0  0  0  0  0  0  0  0
   -0.1530    0.0632   -2.2525 C   0  0  0  0  0  0  0  0  0  0  0  0
    1.6301   -0.8776   -0.7513 C   0  0  0  0  0  0  0  0  0  0  0  0
    2.1441   -1.9392   -1.4965 C   0  0  0  0  0  0  0  0  0  0  0  0
    3.4124   -2.4246   -1.2233 C   0  0  0  0  0  0  0  0  0  0  0  0
    4.1711   -1.8569   -0.2101 C   0  0  0  0  0  0  0  0  0  0  0  0
    3.6636   -0.8011    0.5338 C   0  0  0  0  0  0  0  0  0  0  0  0
    2.3992   -0.3054    0.2630 C   0  0  0  0  0  0  0  0  0  0  0  0
    1.8490    0.8411    1.0715 C   0  0  0  0  0  0  0  0  0  0  0  0
    2.1297    2.1388    0.3586 C   0  0  0  0  0  0  0  0  0  0  0  0
    2.7949    3.0896    0.9665 C   0  0  0  0  0  0  0  0  0  0  0  0
    3.1761    2.9342    2.4162 C   0  0  0  0  0  0  0  0  0  0  0  0
    3.1789    4.3389    0.2162 C   0  0  0  0  0  0  0  0  0  0  0  0
    4.4108   -0.2488    1.5256 O   0  0  0  0  0  0  0  0  0  0  0  0
    3.9140   -3.4586   -1.9486 O   0  0  0  0  0  0  0  0  0  0  0  0
   -5.2814    1.4067   -0.5914 O   0  0  0  0  0  0  0  0  0  0  0  0
   -3.9524   -3.2276    2.4761 C   0  0  0  0  0  0  0  0  0  0  0  0
   -2.4878   -0.5135    3.6901 H   0  0  0  0  0  0  0  0  0  0  0  0
   -1.8890   -2.1886    3.7507 H   0  0  0  0  0  0  0  0  0  0  0  0
   -1.3986   -1.1158    2.4177 H   0  0  0  0  0  0  0  0  0  0  0  0
   -4.8137   -1.3493    0.8497 H   0  0  0  0  0  0  0  0  0  0  0  0
   -4.1531    1.0977    1.5597 H   0  0  0  0  0  0  0  0  0  0  0  0
   -2.5051    0.4835    1.8332 H   0  0  0  0  0  0  0  0  0  0  0  0
   -4.5178    1.7107   -3.0731 H   0  0  0  0  0  0  0  0  0  0  0  0
   -2.3045    1.1685   -3.9594 H   0  0  0  0  0  0  0  0  0  0  0  0
    0.4123    0.0773   -3.1726 H   0  0  0  0  0  0  0  0  0  0  0  0
    1.5538   -2.3822   -2.2850 H   0  0  0  0  0  0  0  0  0  0  0  0
    5.1595   -2.2379    0.0005 H   0  0  0  0  0  0  0  0  0  0  0  0
    0.7727    0.7178    1.1913 H   0  0  0  0  0  0  0  0  0  0  0  0
    2.3245    0.8552    2.0523 H   0  0  0  0  0  0  0  0  0  0  0  0
    1.7824    2.2850   -0.6536 H   0  0  0  0  0  0  0  0  0  0  0  0
    4.1066    2.3712    2.4888 H   0  0  0  0  0  0  0  0  0  0  0  0
    3.3112    3.9187    2.8640 H   0  0  0  0  0  0  0  0  0  0  0  0
    2.3861    2.4001    2.9443 H   0  0  0  0  0  0  0  0  0  0  0  0
    2.3862    5.0804    0.3153 H   0  0  0  0  0  0  0  0  0  0  0  0
    4.1051    4.7398    0.6280 H   0  0  0  0  0  0  0  0  0  0  0  0
    3.3233    4.0999   -0.8374 H   0  0  0  0  0  0  0  0  0  0  0  0
    4.9710    0.4837    1.2346 H   0  0  0  0  0  0  0  0  0  0  0  0
    4.4028   -3.1855   -2.7370 H   0  0  0  0  0  0  0  0  0  0  0  0
   -5.3642    2.3141   -0.2675 H   0  0  0  0  0  0  0  0  0  0  0  0
   -4.7138   -3.2151    3.2561 H   0  0  0  0  0  0  0  0  0  0  0  0
   -4.3951   -3.5726    1.5418 H   0  0  0  0  0  0  0  0  0  0  0  0
   -3.1458   -3.9008    2.7665 H   0  0  0  0  0  0  0  0  0  0  0  0
  1  2  1  0  0  0  0
  2  3  2  0  0  0  0
  3  4  1  0  0  0  0
  4  5  1  0  0  0  0
  5  6  2  0  0  0  0
  6  7  1  0  0  0  0
  7  8  2  0  0  0  0
  8  9  1  0  0  0  0
  9 10  2  0  0  0  0
  5 10  1  0  0  0  0
 10 11  1  0  0  0  0
 11 12  1  0  0  0  0
 12 13  2  0  0  0  0
  9 13  1  0  0  0  0
 12 14  1  0  0  0  0
 14 15  2  0  0  0  0
 15 16  1  0  0  0  0
 16 17  2  0  0  0  0
 17 18  1  0  0  0  0
 18 19  2  0  0  0  0
 14 19  1  0  0  0  0
 19 20  1  0  0  0  0
 20 21  1  0  0  0  0
 21 22  2  0  0  0  0
 22 23  1  0  0  0  0
 22 24  1  0  0  0  0
 18 25  1  0  0  0  0
 16 26  1  0  0  0  0
  6 27  1  0  0  0  0
  2 28  1  0  0  0  0
  1 29  1  0  0  0  0
  1 30  1  0  0  0  0
  1 31  1  0  0  0  0
  3 32  1  0  0  0  0
  4 33  1  0  0  0  0
  4 34  1  0  0  0  0
  7 35  1  0  0  0  0
  8 36  1  0  0  0  0
 13 37  1  0  0  0  0
 15 38  1  0  0  0  0
 17 39  1  0  0  0  0
 20 40  1  0  0  0  0
 20 41  1  0  0  0  0
 21 42  1  0  0  0  0
 23 43  1  0  0  0  0
 23 44  1  0  0  0  0
 23 45  1  0  0  0  0
 24 46  1  0  0  0  0
 24 47  1  0  0  0  0
 24 48  1  0  0  0  0
 25 49  1  0  0  0  0
 26 50  1  0  0  0  0
 27 51  1  0  0  0  0
 28 52  1  0  0  0  0
 28 53  1  0  0  0  0
 28 54  1  0  0  0  0
M  END
$$$$
