C31H60O2
APtclcactv06211806523D 0   0.00000     0.00000
 
 93 92  0  0  0  0  0  0  0  0999 V2000
   18.6586    1.1040   -0.0000 C   0  0  0  0  0  0  0  0  0  0  0  0
   17.2805    1.7688    0.0000 C   0  0  0  0  0  0  0  0  0  0  0  0
   16.1944    0.6911   -0.0000 C   0  0  0  0  0  0  0  0  0  0  0  0
   14.8164    1.3559    0.0000 C   0  0  0  0  0  0  0  0  0  0  0  0
   13.7303    0.2782   -0.0000 C   0  0  0  0  0  0  0  0  0  0  0  0
   12.3523    0.9430    0.0000 C   0  0  0  0  0  0  0  0  0  0  0  0
   11.2662   -0.1347   -0.0000 C   0  0  0  0  0  0  0  0  0  0  0  0
    9.8881    0.5300    0.0000 C   0  0  0  0  0  0  0  0  0  0  0  0
    8.8021   -0.5476   -0.0000 C   0  0  0  0  0  0  0  0  0  0  0  0
    7.4240    0.1171    0.0000 C   0  0  0  0  0  0  0  0  0  0  0  0
    6.3379   -0.9605   -0.0000 C   0  0  0  0  0  0  0  0  0  0  0  0
    4.9599   -0.2958    0.0000 C   0  0  0  0  0  0  0  0  0  0  0  0
    3.8738   -1.3734   -0.0000 C   0  0  0  0  0  0  0  0  0  0  0  0
    2.4958   -0.7087    0.0000 C   0  0  0  0  0  0  0  0  0  0  0  0
    1.4097   -1.7863   -0.0000 C   0  0  0  0  0  0  0  0  0  0  0  0
    0.0524   -1.1316    0.0000 C   0  0  0  0  0  0  0  0  0  0  0  0
   -0.0371    0.0727    0.0000 O   0  0  0  0  0  0  0  0  0  0  0  0
   -1.1933   -1.9797   -0.0000 C   0  0  0  0  0  0  0  0  0  0  0  0
   -2.4082   -1.0879    0.0000 C   0  0  0  0  0  0  0  0  0  0  0  0
   -2.2761    0.1124    0.0000 O   0  0  0  0  0  0  0  0  0  0  0  0
   -3.7879   -1.6941   -0.0000 C   0  0  0  0  0  0  0  0  0  0  0  0
   -4.8351   -0.5786    0.0000 C   0  0  0  0  0  0  0  0  0  0  0  0
   -6.2358   -1.1941    0.0000 C   0  0  0  0  0  0  0  0  0  0  0  0
   -7.2830   -0.0786   -0.0000 C   0  0  0  0  0  0  0  0  0  0  0  0
   -8.6837   -0.6941    0.0000 C   0  0  0  0  0  0  0  0  0  0  0  0
   -9.7309    0.4214   -0.0000 C   0  0  0  0  0  0  0  0  0  0  0  0
  -11.1317   -0.1940    0.0000 C   0  0  0  0  0  0  0  0  0  0  0  0
  -12.1788    0.9215   -0.0000 C   0  0  0  0  0  0  0  0  0  0  0  0
  -13.5796    0.3060    0.0000 C   0  0  0  0  0  0  0  0  0  0  0  0
  -14.6268    1.4215   -0.0000 C   0  0  0  0  0  0  0  0  0  0  0  0
  -16.0275    0.8061    0.0000 C   0  0  0  0  0  0  0  0  0  0  0  0
  -17.0747    1.9216   -0.0000 C   0  0  0  0  0  0  0  0  0  0  0  0
  -18.4755    1.3061    0.0000 C   0  0  0  0  0  0  0  0  0  0  0  0
   18.7626    0.4834    0.8900 H   0  0  0  0  0  0  0  0  0  0  0  0
   18.7626    0.4834   -0.8900 H   0  0  0  0  0  0  0  0  0  0  0  0
   19.4323    1.8718    0.0000 H   0  0  0  0  0  0  0  0  0  0  0  0
   17.1765    2.3894    0.8900 H   0  0  0  0  0  0  0  0  0  0  0  0
   17.1765    2.3894   -0.8900 H   0  0  0  0  0  0  0  0  0  0  0  0
   16.2984    0.0705   -0.8900 H   0  0  0  0  0  0  0  0  0  0  0  0
   16.2984    0.0705    0.8900 H   0  0  0  0  0  0  0  0  0  0  0  0
   14.7124    1.9765    0.8900 H   0  0  0  0  0  0  0  0  0  0  0  0
   14.7124    1.9765   -0.8900 H   0  0  0  0  0  0  0  0  0  0  0  0
   13.8343   -0.3424   -0.8900 H   0  0  0  0  0  0  0  0  0  0  0  0
   13.8343   -0.3424    0.8900 H   0  0  0  0  0  0  0  0  0  0  0  0
   12.2483    1.5636    0.8900 H   0  0  0  0  0  0  0  0  0  0  0  0
   12.2483    1.5636   -0.8900 H   0  0  0  0  0  0  0  0  0  0  0  0
   11.3702   -0.7554   -0.8900 H   0  0  0  0  0  0  0  0  0  0  0  0
   11.3702   -0.7554    0.8900 H   0  0  0  0  0  0  0  0  0  0  0  0
    9.7841    1.1507    0.8900 H   0  0  0  0  0  0  0  0  0  0  0  0
    9.7841    1.1507   -0.8900 H   0  0  0  0  0  0  0  0  0  0  0  0
    8.9061   -1.1683   -0.8900 H   0  0  0  0  0  0  0  0  0  0  0  0
    8.9061   -1.1683    0.8900 H   0  0  0  0  0  0  0  0  0  0  0  0
    7.3200    0.7378    0.8900 H   0  0  0  0  0  0  0  0  0  0  0  0
    7.3200    0.7378   -0.8900 H   0  0  0  0  0  0  0  0  0  0  0  0
    6.4419   -1.5812   -0.8900 H   0  0  0  0  0  0  0  0  0  0  0  0
    6.4419   -1.5812    0.8900 H   0  0  0  0  0  0  0  0  0  0  0  0
    4.8559    0.3249    0.8900 H   0  0  0  0  0  0  0  0  0  0  0  0
    4.8559    0.3249   -0.8900 H   0  0  0  0  0  0  0  0  0  0  0  0
    3.9778   -1.9941   -0.8900 H   0  0  0  0  0  0  0  0  0  0  0  0
    3.9778   -1.9941    0.8900 H   0  0  0  0  0  0  0  0  0  0  0  0
    2.3918   -0.0880    0.8900 H   0  0  0  0  0  0  0  0  0  0  0  0
    2.3918   -0.0880   -0.8900 H   0  0  0  0  0  0  0  0  0  0  0  0
    1.5137   -2.4070   -0.8900 H   0  0  0  0  0  0  0  0  0  0  0  0
    1.5137   -2.4070    0.8900 H   0  0  0  0  0  0  0  0  0  0  0  0
   -1.2045   -2.6089   -0.8900 H   0  0  0  0  0  0  0  0  0  0  0  0
   -1.2045   -2.6089    0.8900 H   0  0  0  0  0  0  0  0  0  0  0  0
   -3.9138   -2.3107   -0.8900 H   0  0  0  0  0  0  0  0  0  0  0  0
   -3.9138   -2.3107    0.8900 H   0  0  0  0  0  0  0  0  0  0  0  0
   -4.7091    0.0379    0.8900 H   0  0  0  0  0  0  0  0  0  0  0  0
   -4.7091    0.0379   -0.8900 H   0  0  0  0  0  0  0  0  0  0  0  0
   -6.3618   -1.8107   -0.8900 H   0  0  0  0  0  0  0  0  0  0  0  0
   -6.3618   -1.8107    0.8900 H   0  0  0  0  0  0  0  0  0  0  0  0
   -7.1570    0.5380    0.8900 H   0  0  0  0  0  0  0  0  0  0  0  0
   -7.1570    0.5380   -0.8900 H   0  0  0  0  0  0  0  0  0  0  0  0
   -8.8097   -1.3106   -0.8900 H   0  0  0  0  0  0  0  0  0  0  0  0
   -8.8097   -1.3106    0.8900 H   0  0  0  0  0  0  0  0  0  0  0  0
   -9.6050    1.0380    0.8900 H   0  0  0  0  0  0  0  0  0  0  0  0
   -9.6050    1.0380   -0.8900 H   0  0  0  0  0  0  0  0  0  0  0  0
  -11.2576   -0.8106   -0.8900 H   0  0  0  0  0  0  0  0  0  0  0  0
  -11.2576   -0.8106    0.8900 H   0  0  0  0  0  0  0  0  0  0  0  0
  -12.0529    1.5381    0.8900 H   0  0  0  0  0  0  0  0  0  0  0  0
  -12.0529    1.5381   -0.8900 H   0  0  0  0  0  0  0  0  0  0  0  0
  -13.7055   -0.3106   -0.8900 H   0  0  0  0  0  0  0  0  0  0  0  0
  -13.7055   -0.3106    0.8900 H   0  0  0  0  0  0  0  0  0  0  0  0
  -14.5008    2.0381    0.8900 H   0  0  0  0  0  0  0  0  0  0  0  0
  -14.5008    2.0381   -0.8900 H   0  0  0  0  0  0  0  0  0  0  0  0
  -16.1535    0.1895   -0.8900 H   0  0  0  0  0  0  0  0  0  0  0  0
  -16.1535    0.1895    0.8900 H   0  0  0  0  0  0  0  0  0  0  0  0
  -16.9488    2.5381    0.8900 H   0  0  0  0  0  0  0  0  0  0  0  0
  -16.9488    2.5381   -0.8900 H   0  0  0  0  0  0  0  0  0  0  0  0
  -18.6014    0.6895   -0.8900 H   0  0  0  0  0  0  0  0  0  0  0  0
  -18.6014    0.6895    0.8900 H   0  0  0  0  0  0  0  0  0  0  0  0
  -19.2215    2.1008   -0.0000 H   0  0  0  0  0  0  0  0  0  0  0  0
  1  2  1  0  0  0  0
  2  3  1  0  0  0  0
  3  4  1  0  0  0  0
  4  5  1  0  0  0  0
  5  6  1  0  0  0  0
  6  7  1  0  0  0  0
  7  8  1  0  0  0  0
  8  9  1  0  0  0  0
  9 10  1  0  0  0  0
 10 11  1  0  0  0  0
 11 12  1  0  0  0  0
 12 13  1  0  0  0  0
 13 14  1  0  0  0  0
 14 15  1  0  0  0  0
 15 16  1  0  0  0  0
 16 17  2  0  0  0  0
 16 18  1  0  0  0  0
 18 19  1  0  0  0  0
 19 20  2  0  0  0  0
 19 21  1  0  0  0  0
 21 22  1  0  0  0  0
 22 23  1  0  0  0  0
 23 24  1  0  0  0  0
 24 25  1  0  0  0  0
 25 26  1  0  0  0  0
 26 27  1  0  0  0  0
 27 28  1  0  0  0  0
 28 29  1  0  0  0  0
 29 30  1  0  0  0  0
 30 31  1  0  0  0  0
 31 32  1  0  0  0  0
 32 33  1  0  0  0  0
  1 34  1  0  0  0  0
  1 35  1  0  0  0  0
  1 36  1  0  0  0  0
  2 37  1  0  0  0  0
  2 38  1  0  0  0  0
  3 39  1  0  0  0  0
  3 40  1  0  0  0  0
  4 41  1  0  0  0  0
  4 42  1  0  0  0  0
  5 43  1  0  0  0  0
  5 44  1  0  0  0  0
  6 45  1  0  0  0  0
  6 46  1  0  0  0  0
  7 47  1  0  0  0  0
  7 48  1  0  0  0  0
  8 49  1  0  0  0  0
  8 50  1  0  0  0  0
  9 51  1  0  0  0  0
  9 52  1  0  0  0  0
 10 53  1  0  0  0  0
 10 54  1  0  0  0  0
 11 55  1  0  0  0  0
 11 56  1  0  0  0  0
 12 57  1  0  0  0  0
 12 58  1  0  0  0  0
 13 59  1  0  0  0  0
 13 60  1  0  0  0  0
 14 61  1  0  0  0  0
 14 62  1  0  0  0  0
 15 63  1  0  0  0  0
 15 64  1  0  0  0  0
 18 65  1  0  0  0  0
 18 66  1  0  0  0  0
 21 67  1  0  0  0  0
 21 68  1  0  0  0  0
 22 69  1  0  0  0  0
 22 70  1  0  0  0  0
 23 71  1  0  0  0  0
 23 72  1  0  0  0  0
 24 73  1  0  0  0  0
 24 74  1  0  0  0  0
 25 75  1  0  0  0  0
 25 76  1  0  0  0  0
 26 77  1  0  0  0  0
 26 78  1  0  0  0  0
 27 79  1  0  0  0  0
 27 80  1  0  0  0  0
 28 81  1  0  0  0  0
 28 82  1  0  0  0  0
 29 83  1  0  0  0  0
 29 84  1  0  0  0  0
 30 85  1  0  0  0  0
 30 86  1  0  0  0  0
 31 87  1  0  0  0  0
 31 88  1  0  0  0  0
 32 89  1  0  0  0  0
 32 90  1  0  0  0  0
 33 91  1  0  0  0  0
 33 92  1  0  0  0  0
 33 93  1  0  0  0  0
M  END
$$$$
