C12H22O10
APtclcactv06211806513D 0   0.00000     0.00000
 
 44 45  0  0  0  0  0  0  0  0999 V2000
    2.4345    0.4607   -2.6625 C   0  0  0  0  0  0  0  0  0  0  0  0
    2.7584   -0.6483   -1.6595 C   0  0  0  0  0  0  0  0  0  0  0  0
    4.0487   -0.3002   -0.9126 C   0  0  0  0  0  0  0  0  0  0  0  0
    3.8382    0.9948   -0.1219 C   0  0  0  0  0  0  0  0  0  0  0  0
    2.6486    0.8138    0.8259 C   0  0  0  0  0  0  0  0  0  0  0  0
    1.4124    0.4226    0.0118 C   0  0  0  0  0  0  0  0  0  0  0  0
    1.6861   -0.7720   -0.7230 O   0  0  0  0  0  0  0  0  0  0  0  0
    0.3119    0.1972    0.8951 O   0  0  0  0  0  0  0  0  0  0  0  0
   -0.9244   -0.0647    0.2281 C   0  0  0  0  0  0  0  0  0  0  0  0
   -1.7920   -0.9789    1.0986 C   0  0  0  0  0  0  0  0  0  0  0  0
   -3.1439   -1.1892    0.4096 C   0  0  0  0  0  0  0  0  0  0  0  0
   -3.7996    0.1721    0.1634 C   0  0  0  0  0  0  0  0  0  0  0  0
   -2.9275    0.9837   -0.6258 O   0  0  0  0  0  0  0  0  0  0  0  0
   -1.6659    1.2532   -0.0111 C   0  0  0  0  0  0  0  0  0  0  0  0
   -1.8761    1.9152    1.2377 O   0  0  0  0  0  0  0  0  0  0  0  0
   -5.1230   -0.0257   -0.5785 C   0  0  0  0  0  0  0  0  0  0  0  0
   -5.7904    1.2315   -0.7055 O   0  0  0  0  0  0  0  0  0  0  0  0
   -2.9451   -1.8562   -0.8384 O   0  0  0  0  0  0  0  0  0  0  0  0
   -1.1398   -2.2392    1.2663 O   0  0  0  0  0  0  0  0  0  0  0  0
    2.9436   -0.2166    1.7711 O   0  0  0  0  0  0  0  0  0  0  0  0
    5.0133    1.2882    0.6364 O   0  0  0  0  0  0  0  0  0  0  0  0
    4.3807   -1.3600   -0.0134 O   0  0  0  0  0  0  0  0  0  0  0  0
    3.2529    0.5556   -3.3761 H   0  0  0  0  0  0  0  0  0  0  0  0
    1.5158    0.2127   -3.1942 H   0  0  0  0  0  0  0  0  0  0  0  0
    2.3038    1.4038   -2.1319 H   0  0  0  0  0  0  0  0  0  0  0  0
    2.8887   -1.5915   -2.1899 H   0  0  0  0  0  0  0  0  0  0  0  0
    4.8584   -0.1620   -1.6291 H   0  0  0  0  0  0  0  0  0  0  0  0
    3.6337    1.8139   -0.8115 H   0  0  0  0  0  0  0  0  0  0  0  0
    2.4570    1.7486    1.3527 H   0  0  0  0  0  0  0  0  0  0  0  0
    1.1640    1.2267   -0.6809 H   0  0  0  0  0  0  0  0  0  0  0  0
   -0.7271   -0.5512   -0.7271 H   0  0  0  0  0  0  0  0  0  0  0  0
   -1.9475   -0.5149    2.0726 H   0  0  0  0  0  0  0  0  0  0  0  0
   -3.7880   -1.7936    1.0482 H   0  0  0  0  0  0  0  0  0  0  0  0
   -3.9878    0.6630    1.1183 H   0  0  0  0  0  0  0  0  0  0  0  0
   -1.0716    1.8911   -0.6654 H   0  0  0  0  0  0  0  0  0  0  0  0
   -2.3425    2.7589    1.1621 H   0  0  0  0  0  0  0  0  0  0  0  0
   -4.9263   -0.4344   -1.5696 H   0  0  0  0  0  0  0  0  0  0  0  0
   -5.7534   -0.7168   -0.0190 H   0  0  0  0  0  0  0  0  0  0  0  0
   -6.6387    1.1816   -1.1670 H   0  0  0  0  0  0  0  0  0  0  0  0
   -3.7611   -2.0223   -1.3299 H   0  0  0  0  0  0  0  0  0  0  0  0
   -1.6343   -2.8690    1.8084 H   0  0  0  0  0  0  0  0  0  0  0  0
    2.2322   -0.3851    2.4040 H   0  0  0  0  0  0  0  0  0  0  0  0
    4.9501    2.0971    1.1626 H   0  0  0  0  0  0  0  0  0  0  0  0
    4.5234   -2.2129   -0.4463 H   0  0  0  0  0  0  0  0  0  0  0  0
  1  2  1  0  0  0  0
  2  3  1  0  0  0  0
  3  4  1  0  0  0  0
  4  5  1  0  0  0  0
  5  6  1  0  0  0  0
  6  7  1  0  0  0  0
  2  7  1  0  0  0  0
  6  8  1  0  0  0  0
  8  9  1  0  0  0  0
  9 10  1  0  0  0  0
 10 11  1  0  0  0  0
 11 12  1  0  0  0  0
 12 13  1  0  0  0  0
 13 14  1  0  0  0  0
  9 14  1  0  0  0  0
 14 15  1  0  0  0  0
 12 16  1  0  0  0  0
 16 17  1  0  0  0  0
 11 18  1  0  0  0  0
 10 19  1  0  0  0  0
  5 20  1  0  0  0  0
  4 21  1  0  0  0  0
  3 22  1  0  0  0  0
  1 23  1  0  0  0  0
  1 24  1  0  0  0  0
  1 25  1  0  0  0  0
  2 26  1  0  0  0  0
  3 27  1  0  0  0  0
  4 28  1  0  0  0  0
  5 29  1  0  0  0  0
  6 30  1  0  0  0  0
  9 31  1  0  0  0  0
 10 32  1  0  0  0  0
 11 33  1  0  0  0  0
 12 34  1  0  0  0  0
 14 35  1  0  0  0  0
 15 36  1  0  0  0  0
 16 37  1  0  0  0  0
 16 38  1  0  0  0  0
 17 39  1  0  0  0  0
 18 40  1  0  0  0  0
 19 41  1  0  0  0  0
 20 42  1  0  0  0  0
 21 43  1  0  0  0  0
 22 44  1  0  0  0  0
M  END
$$$$
