C16H10O6
APtclcactv06291802493D 0   0.00000     0.00000
 
 32 35  0  0  0  0  0  0  0  0999 V2000
    4.9234    2.1793   -0.0098 C   0  0  0  0  0  0  0  0  0  0  0  0
    4.9782    0.7514   -0.0137 O   0  0  0  0  0  0  0  0  0  0  0  0
    3.7907    0.0877   -0.0115 C   0  0  0  0  0  0  0  0  0  0  0  0
    3.7713   -1.3071   -0.0151 C   0  0  0  0  0  0  0  0  0  0  0  0
    2.5703   -1.9917   -0.0133 C   0  0  0  0  0  0  0  0  0  0  0  0
    1.3696   -1.2928   -0.0080 C   0  0  0  0  0  0  0  0  0  0  0  0
    1.3914    0.1105   -0.0039 C   0  0  0  0  0  0  0  0  0  0  0  0
    2.6041    0.7952   -0.0000 C   0  0  0  0  0  0  0  0  0  0  0  0
   -0.0203    0.5278    0.0013 C   0  0  0  0  0  0  0  0  0  0  0  0
   -0.7621   -0.6507   -0.0002 C   0  0  0  0  0  0  0  0  0  0  0  0
    0.0790   -1.6955   -0.0056 O   0  0  0  0  0  0  0  0  0  0  0  0
   -2.2260   -0.5330    0.0047 C   0  0  0  0  0  0  0  0  0  0  0  0
   -2.8045    0.7482    0.0105 C   0  0  0  0  0  0  0  0  0  0  0  0
   -4.1869    0.8687    0.0152 C   0  0  0  0  0  0  0  0  0  0  0  0
   -4.9784   -0.2678    0.0141 C   0  0  0  0  0  0  0  0  0  0  0  0
   -4.3980   -1.5336    0.0087 C   0  0  0  0  0  0  0  0  0  0  0  0
   -3.0391   -1.6697    0.0041 C   0  0  0  0  0  0  0  0  0  0  0  0
   -6.3309   -0.1468    0.0186 O   0  0  0  0  0  0  0  0  0  0  0  0
   -2.0240    1.8509    0.0111 O   0  0  0  0  0  0  0  0  0  0  0  0
   -0.6829    1.7739    0.0072 C   0  0  0  0  0  0  0  0  0  0  0  0
   -0.0261    2.7992    0.0083 O   0  0  0  0  0  0  0  0  0  0  0  0
    4.9425   -1.9984   -0.0208 O   0  0  0  0  0  0  0  0  0  0  0  0
    4.3930    2.5250   -0.8971 H   0  0  0  0  0  0  0  0  0  0  0  0
    4.3990    2.5203    0.8828 H   0  0  0  0  0  0  0  0  0  0  0  0
    5.9363    2.5818   -0.0121 H   0  0  0  0  0  0  0  0  0  0  0  0
    2.5653   -3.0717   -0.0165 H   0  0  0  0  0  0  0  0  0  0  0  0
    2.6169    1.8751    0.0035 H   0  0  0  0  0  0  0  0  0  0  0  0
   -4.6447    1.8469    0.0200 H   0  0  0  0  0  0  0  0  0  0  0  0
   -5.0258   -2.4124    0.0086 H   0  0  0  0  0  0  0  0  0  0  0  0
   -2.5937   -2.6536   -0.0005 H   0  0  0  0  0  0  0  0  0  0  0  0
   -6.7253   -0.1090   -0.8634 H   0  0  0  0  0  0  0  0  0  0  0  0
    5.2841   -2.2007    0.8610 H   0  0  0  0  0  0  0  0  0  0  0  0
  1  2  1  0  0  0  0
  2  3  1  0  0  0  0
  3  4  2  0  0  0  0
  4  5  1  0  0  0  0
  5  6  2  0  0  0  0
  6  7  1  0  0  0  0
  7  8  2  0  0  0  0
  3  8  1  0  0  0  0
  7  9  1  0  0  0  0
  9 10  2  0  0  0  0
 10 11  1  0  0  0  0
  6 11  1  0  0  0  0
 10 12  1  0  0  0  0
 12 13  2  0  0  0  0
 13 14  1  0  0  0  0
 14 15  2  0  0  0  0
 15 16  1  0  0  0  0
 16 17  2  0  0  0  0
 12 17  1  0  0  0  0
 15 18  1  0  0  0  0
 13 19  1  0  0  0  0
 19 20  1  0  0  0  0
  9 20  1  0  0  0  0
 20 21  2  0  0  0  0
  4 22  1  0  0  0  0
  1 23  1  0  0  0  0
  1 24  1  0  0  0  0
  1 25  1  0  0  0  0
  5 26  1  0  0  0  0
  8 27  1  0  0  0  0
 14 28  1  0  0  0  0
 16 29  1  0  0  0  0
 17 30  1  0  0  0  0
 18 31  1  0  0  0  0
 22 32  1  0  0  0  0
M  END
$$$$
