C27H31O15
APtclcactv06211806523D 0   0.00000     0.00000
 
 73 77  0  0  0  0  0  0  0  0999 V2000
    5.8691   -2.7334   -1.5904 C   0  0  0  0  0  0  0  0  0  0  0  0
    5.7378   -1.8020   -0.3837 C   0  0  0  0  0  0  0  0  0  0  0  0
    6.2284   -0.4024   -0.7633 C   0  0  0  0  0  0  0  0  0  0  0  0
    5.3410    0.1558   -1.8801 C   0  0  0  0  0  0  0  0  0  0  0  0
    3.8843    0.1591   -1.4062 C   0  0  0  0  0  0  0  0  0  0  0  0
    3.4843   -1.2622   -1.0018 C   0  0  0  0  0  0  0  0  0  0  0  0
    4.3681   -1.7325    0.0179 O   0  0  0  0  0  0  0  0  0  0  0  0
    2.1441   -1.2571   -0.5057 O   0  0  0  0  0  0  0  0  0  0  0  0
    1.6310   -2.5563   -0.2044 C   0  0  0  0  0  0  0  0  0  0  0  0
    0.1976   -2.4304    0.3159 C   0  0  0  0  0  0  0  0  0  0  0  0
   -0.3956   -3.8268    0.5206 C   0  0  0  0  0  0  0  0  0  0  0  0
   -1.8081   -3.6933    1.0981 C   0  0  0  0  0  0  0  0  0  0  0  0
   -1.7410   -2.8932    2.4026 C   0  0  0  0  0  0  0  0  0  0  0  0
   -1.0957   -1.5329    2.1251 C   0  0  0  0  0  0  0  0  0  0  0  0
    0.2025   -1.7291    1.5610 O   0  0  0  0  0  0  0  0  0  0  0  0
   -1.9082   -0.7984    1.2073 O   0  0  0  0  0  0  0  0  0  0  0  0
   -1.5304    0.4785    0.9339 C   0  0  0  0  0  0  0  0  0  0  0  0
   -2.2681    1.2786    0.0428 C   0  0  0  0  0  0  0  0  0  0  0  0
   -1.9596    2.4177   -0.2221 O   0  3  0  0  0  0  0  0  0  0  0  0
   -0.9962    3.0052    0.2354 C   0  0  0  0  0  0  0  0  0  0  0  0
   -0.7239    4.3307   -0.1362 C   0  0  0  0  0  0  0  0  0  0  0  0
    0.3704    4.9805    0.3916 C   0  0  0  0  0  0  0  0  0  0  0  0
    1.2200    4.3401    1.2960 C   0  0  0  0  0  0  0  0  0  0  0  0
    0.9823    3.0492    1.6777 C   0  0  0  0  0  0  0  0  0  0  0  0
   -0.1285    2.3626    1.1543 C   0  0  0  0  0  0  0  0  0  0  0  0
   -0.4156    1.0323    1.5253 C   0  0  0  0  0  0  0  0  0  0  0  0
    1.8130    2.4335    2.5575 O   0  0  0  0  0  0  0  0  0  0  0  0
    0.6270    6.2631    0.0263 O   0  0  0  0  0  0  0  0  0  0  0  0
   -3.4710    0.7029   -0.5974 C   0  0  0  0  0  0  0  0  0  0  0  0
   -4.6158    1.4839   -0.7646 C   0  0  0  0  0  0  0  0  0  0  0  0
   -5.7375    0.9417   -1.3632 C   0  0  0  0  0  0  0  0  0  0  0  0
   -5.7236   -0.3820   -1.7983 C   0  0  0  0  0  0  0  0  0  0  0  0
   -4.5853   -1.1580   -1.6318 C   0  0  0  0  0  0  0  0  0  0  0  0
   -3.4615   -0.6207   -1.0405 C   0  0  0  0  0  0  0  0  0  0  0  0
   -6.8270   -0.9142   -2.3863 O   0  0  0  0  0  0  0  0  0  0  0  0
   -6.8545    1.6998   -1.5272 O   0  0  0  0  0  0  0  0  0  0  0  0
   -3.0617   -2.7001    2.9128 O   0  0  0  0  0  0  0  0  0  0  0  0
   -2.6449   -3.0115    0.1616 O   0  0  0  0  0  0  0  0  0  0  0  0
   -0.4550   -4.5090   -0.7336 O   0  0  0  0  0  0  0  0  0  0  0  0
    3.7498    1.0312   -0.2822 O   0  0  0  0  0  0  0  0  0  0  0  0
    5.7458    1.4907   -2.1902 O   0  0  0  0  0  0  0  0  0  0  0  0
    6.1559    0.4548    0.3777 O   0  0  0  0  0  0  0  0  0  0  0  0
    6.9137   -2.7855   -1.8972 H   0  0  0  0  0  0  0  0  0  0  0  0
    5.5197   -3.7299   -1.3199 H   0  0  0  0  0  0  0  0  0  0  0  0
    5.2674   -2.3484   -2.4137 H   0  0  0  0  0  0  0  0  0  0  0  0
    6.3391   -2.1870    0.4399 H   0  0  0  0  0  0  0  0  0  0  0  0
    7.2596   -0.4600   -1.1119 H   0  0  0  0  0  0  0  0  0  0  0  0
    5.4344   -0.4704   -2.7674 H   0  0  0  0  0  0  0  0  0  0  0  0
    3.2391    0.5030   -2.2146 H   0  0  0  0  0  0  0  0  0  0  0  0
    3.5483   -1.9187   -1.8695 H   0  0  0  0  0  0  0  0  0  0  0  0
    1.6376   -3.1678   -1.1067 H   0  0  0  0  0  0  0  0  0  0  0  0
    2.2540   -3.0254    0.5571 H   0  0  0  0  0  0  0  0  0  0  0  0
   -0.4050   -1.8820   -0.4081 H   0  0  0  0  0  0  0  0  0  0  0  0
    0.2294   -4.3901    1.2135 H   0  0  0  0  0  0  0  0  0  0  0  0
   -2.2152   -4.6843    1.2987 H   0  0  0  0  0  0  0  0  0  0  0  0
   -1.1431   -3.4377    3.1335 H   0  0  0  0  0  0  0  0  0  0  0  0
   -1.0064   -0.9760    3.0579 H   0  0  0  0  0  0  0  0  0  0  0  0
   -1.3707    4.8405   -0.8349 H   0  0  0  0  0  0  0  0  0  0  0  0
    2.0720    4.8690    1.6970 H   0  0  0  0  0  0  0  0  0  0  0  0
    0.1992    0.4833    2.2232 H   0  0  0  0  0  0  0  0  0  0  0  0
    1.5576    2.5449    3.4835 H   0  0  0  0  0  0  0  0  0  0  0  0
    0.2054    6.9248    0.5915 H   0  0  0  0  0  0  0  0  0  0  0  0
   -4.6253    2.5096   -0.4266 H   0  0  0  0  0  0  0  0  0  0  0  0
   -4.5781   -2.1836   -1.9702 H   0  0  0  0  0  0  0  0  0  0  0  0
   -2.5769   -1.2267   -0.9121 H   0  0  0  0  0  0  0  0  0  0  0  0
   -6.8520   -0.8053   -3.3468 H   0  0  0  0  0  0  0  0  0  0  0  0
   -6.8831    2.1821   -2.3649 H   0  0  0  0  0  0  0  0  0  0  0  0
   -3.0947   -2.1997    3.7396 H   0  0  0  0  0  0  0  0  0  0  0  0
   -3.5560   -2.8917    0.4628 H   0  0  0  0  0  0  0  0  0  0  0  0
   -0.8216   -5.4022   -0.6786 H   0  0  0  0  0  0  0  0  0  0  0  0
    2.8509    1.0821    0.0707 H   0  0  0  0  0  0  0  0  0  0  0  0
    5.2253    1.9068   -2.8910 H   0  0  0  0  0  0  0  0  0  0  0  0
    6.6911    0.1588    1.1267 H   0  0  0  0  0  0  0  0  0  0  0  0
  1  2  1  0  0  0  0
  2  3  1  0  0  0  0
  3  4  1  0  0  0  0
  4  5  1  0  0  0  0
  5  6  1  0  0  0  0
  6  7  1  0  0  0  0
  2  7  1  0  0  0  0
  6  8  1  0  0  0  0
  8  9  1  0  0  0  0
  9 10  1  0  0  0  0
 10 11  1  0  0  0  0
 11 12  1  0  0  0  0
 12 13  1  0  0  0  0
 13 14  1  0  0  0  0
 14 15  1  0  0  0  0
 10 15  1  0  0  0  0
 14 16  1  0  0  0  0
 16 17  1  0  0  0  0
 17 18  2  0  0  0  0
 18 19  1  0  0  0  0
 19 20  2  0  0  0  0
 20 21  1  0  0  0  0
 21 22  2  0  0  0  0
 22 23  1  0  0  0  0
 23 24  2  0  0  0  0
 24 25  1  0  0  0  0
 20 25  1  0  0  0  0
 25 26  2  0  0  0  0
 17 26  1  0  0  0  0
 24 27  1  0  0  0  0
 22 28  1  0  0  0  0
 18 29  1  0  0  0  0
 29 30  2  0  0  0  0
 30 31  1  0  0  0  0
 31 32  2  0  0  0  0
 32 33  1  0  0  0  0
 33 34  2  0  0  0  0
 29 34  1  0  0  0  0
 32 35  1  0  0  0  0
 31 36  1  0  0  0  0
 13 37  1  0  0  0  0
 12 38  1  0  0  0  0
 11 39  1  0  0  0  0
  5 40  1  0  0  0  0
  4 41  1  0  0  0  0
  3 42  1  0  0  0  0
  1 43  1  0  0  0  0
  1 44  1  0  0  0  0
  1 45  1  0  0  0  0
  2 46  1  0  0  0  0
  3 47  1  0  0  0  0
  4 48  1  0  0  0  0
  5 49  1  0  0  0  0
  6 50  1  0  0  0  0
  9 51  1  0  0  0  0
  9 52  1  0  0  0  0
 10 53  1  0  0  0  0
 11 54  1  0  0  0  0
 12 55  1  0  0  0  0
 13 56  1  0  0  0  0
 14 57  1  0  0  0  0
 21 58  1  0  0  0  0
 23 59  1  0  0  0  0
 26 60  1  0  0  0  0
 27 61  1  0  0  0  0
 28 62  1  0  0  0  0
 30 63  1  0  0  0  0
 33 64  1  0  0  0  0
 34 65  1  0  0  0  0
 35 66  1  0  0  0  0
 36 67  1  0  0  0  0
 37 68  1  0  0  0  0
 38 69  1  0  0  0  0
 39 70  1  0  0  0  0
 40 71  1  0  0  0  0
 41 72  1  0  0  0  0
 42 73  1  0  0  0  0
M  CHG  1  19   1
M  END
$$$$
