C25H36O6
APtclcactv06211806523D 0   0.00000     0.00000
 
 67 70  0  0  0  0  0  0  0  0999 V2000
   -4.2863    0.7128   -1.7102 C   0  0  0  0  0  0  0  0  0  0  0  0
   -3.2402    0.6006   -0.5992 C   0  0  0  0  0  0  0  0  0  0  0  0
   -3.4556    1.7219    0.4191 C   0  0  0  0  0  0  0  0  0  0  0  0
   -3.2008    3.0537   -0.2386 C   0  0  0  0  0  0  0  0  0  0  0  0
   -2.8799    3.1010   -1.4025 O   0  0  0  0  0  0  0  0  0  0  0  0
   -3.3304    4.1872    0.4685 O   0  0  0  0  0  0  0  0  0  0  0  0
   -3.3793   -0.7545    0.0973 C   0  0  0  0  0  0  0  0  0  0  0  0
   -3.4281   -1.9094   -0.9348 C   0  0  0  0  0  0  0  0  0  0  0  0
   -1.9841   -2.3307   -1.1054 C   0  0  0  0  0  0  0  0  0  0  0  0
   -1.2463   -1.8722   -0.1191 C   0  0  0  0  0  0  0  0  0  0  0  0
   -2.1035   -1.1081    0.8792 C   0  0  0  0  0  0  0  0  0  0  0  0
   -1.3093    0.1434    1.2610 C   0  0  0  0  0  0  0  0  0  0  0  0
    0.0087   -0.2985    1.9017 C   0  0  0  0  0  0  0  0  0  0  0  0
    0.7954   -1.2090    1.0064 C   0  0  0  0  0  0  0  0  0  0  0  0
    0.2249   -1.9687    0.0525 C   0  0  0  0  0  0  0  0  0  0  0  0
    1.0349   -2.8676   -0.7937 C   0  0  0  0  0  0  0  0  0  0  0  0
    1.3210   -2.5397   -1.9280 O   0  0  0  0  0  0  0  0  0  0  0  0
    1.4567   -4.0513   -0.3079 O   0  0  0  0  0  0  0  0  0  0  0  0
    2.2906   -1.2765    1.1823 C   0  0  0  0  0  0  0  0  0  0  0  0
    2.9484   -0.1408    0.3960 C   0  0  0  0  0  0  0  0  0  0  0  0
    2.5561   -0.0559   -1.1096 C   0  0  0  0  0  0  0  0  0  0  0  0
    2.8748    1.4189   -1.4646 C   0  0  0  0  0  0  0  0  0  0  0  0
    3.4090    1.9903   -0.1170 C   0  0  0  0  0  0  0  0  0  0  0  0
    2.6290    1.2149    0.8514 O   0  0  0  0  0  0  0  0  0  0  0  0
    4.8249    1.3651    0.0631 C   0  0  0  0  0  0  0  0  0  0  0  0
    4.5064   -0.1287    0.4170 C   0  0  0  0  0  0  0  0  0  0  0  0
    5.6239    1.4486   -1.2390 C   0  0  0  0  0  0  0  0  0  0  0  0
    5.5772    2.0476    1.2073 C   0  0  0  0  0  0  0  0  0  0  0  0
   -1.0397    0.9181    0.0908 O   0  0  0  0  0  0  0  0  0  0  0  0
   -2.4271   -1.9672    2.1032 C   0  0  0  0  0  0  0  0  0  0  0  0
   -4.6084   -0.7781    1.0081 C   0  0  0  0  0  0  0  0  0  0  0  0
   -4.2751    1.7231   -2.1191 H   0  0  0  0  0  0  0  0  0  0  0  0
   -4.0551   -0.0016   -2.5003 H   0  0  0  0  0  0  0  0  0  0  0  0
   -5.2738    0.4967   -1.3025 H   0  0  0  0  0  0  0  0  0  0  0  0
   -2.2425    0.6873   -1.0295 H   0  0  0  0  0  0  0  0  0  0  0  0
   -4.4817    1.6880    0.7854 H   0  0  0  0  0  0  0  0  0  0  0  0
   -2.7673    1.5915    1.2542 H   0  0  0  0  0  0  0  0  0  0  0  0
   -3.1566    5.0170    0.0035 H   0  0  0  0  0  0  0  0  0  0  0  0
   -4.0228   -2.7379   -0.5502 H   0  0  0  0  0  0  0  0  0  0  0  0
   -3.8352   -1.5556   -1.8820 H   0  0  0  0  0  0  0  0  0  0  0  0
   -1.6112   -2.9267   -1.9252 H   0  0  0  0  0  0  0  0  0  0  0  0
   -1.8818    0.7388    1.9722 H   0  0  0  0  0  0  0  0  0  0  0  0
    0.6082    0.5845    2.1232 H   0  0  0  0  0  0  0  0  0  0  0  0
   -0.2083   -0.8198    2.8340 H   0  0  0  0  0  0  0  0  0  0  0  0
    1.9842   -4.6056   -0.8992 H   0  0  0  0  0  0  0  0  0  0  0  0
    2.5369   -1.1768    2.2394 H   0  0  0  0  0  0  0  0  0  0  0  0
    2.6571   -2.2342    0.8126 H   0  0  0  0  0  0  0  0  0  0  0  0
    3.1636   -0.7366   -1.7059 H   0  0  0  0  0  0  0  0  0  0  0  0
    1.4948   -0.2648   -1.2445 H   0  0  0  0  0  0  0  0  0  0  0  0
    3.6412    1.4729   -2.2378 H   0  0  0  0  0  0  0  0  0  0  0  0
    1.9724    1.9447   -1.7764 H   0  0  0  0  0  0  0  0  0  0  0  0
    3.3494    3.0736   -0.0124 H   0  0  0  0  0  0  0  0  0  0  0  0
    4.8834   -0.3794    1.4085 H   0  0  0  0  0  0  0  0  0  0  0  0
    4.9194   -0.8003   -0.3356 H   0  0  0  0  0  0  0  0  0  0  0  0
    5.6132    2.4747   -1.6067 H   0  0  0  0  0  0  0  0  0  0  0  0
    6.6528    1.1396   -1.0544 H   0  0  0  0  0  0  0  0  0  0  0  0
    5.1751    0.7911   -1.9835 H   0  0  0  0  0  0  0  0  0  0  0  0
    5.0177    1.9244    2.1346 H   0  0  0  0  0  0  0  0  0  0  0  0
    6.5630    1.5951    1.3148 H   0  0  0  0  0  0  0  0  0  0  0  0
    5.6870    3.1096    0.9875 H   0  0  0  0  0  0  0  0  0  0  0  0
   -0.5384    1.7271    0.2616 H   0  0  0  0  0  0  0  0  0  0  0  0
   -1.5017   -2.2408    2.6100 H   0  0  0  0  0  0  0  0  0  0  0  0
   -3.0620   -1.4024    2.7859 H   0  0  0  0  0  0  0  0  0  0  0  0
   -2.9483   -2.8703    1.7857 H   0  0  0  0  0  0  0  0  0  0  0  0
   -5.5030   -0.5839    0.4162 H   0  0  0  0  0  0  0  0  0  0  0  0
   -4.6912   -1.7564    1.4815 H   0  0  0  0  0  0  0  0  0  0  0  0
   -4.5068   -0.0106    1.7754 H   0  0  0  0  0  0  0  0  0  0  0  0
  1  2  1  0  0  0  0
  2  3  1  0  0  0  0
  3  4  1  0  0  0  0
  4  5  2  0  0  0  0
  4  6  1  0  0  0  0
  2  7  1  0  0  0  0
  7  8  1  0  0  0  0
  8  9  1  0  0  0  0
  9 10  2  0  0  0  0
 10 11  1  0  0  0  0
  7 11  1  0  0  0  0
 11 12  1  0  0  0  0
 12 13  1  0  0  0  0
 13 14  1  0  0  0  0
 14 15  2  0  0  0  0
 10 15  1  0  0  0  0
 15 16  1  0  0  0  0
 16 17  2  0  0  0  0
 16 18  1  0  0  0  0
 14 19  1  0  0  0  0
 19 20  1  0  0  0  0
 20 21  1  0  0  0  0
 21 22  1  0  0  0  0
 22 23  1  0  0  0  0
 23 24  1  0  0  0  0
 20 24  1  0  0  0  0
 23 25  1  0  0  0  0
 25 26  1  0  0  0  0
 20 26  1  0  0  0  0
 25 27  1  0  0  0  0
 25 28  1  0  0  0  0
 12 29  1  0  0  0  0
 11 30  1  0  0  0  0
  7 31  1  0  0  0  0
  1 32  1  0  0  0  0
  1 33  1  0  0  0  0
  1 34  1  0  0  0  0
  2 35  1  0  0  0  0
  3 36  1  0  0  0  0
  3 37  1  0  0  0  0
  6 38  1  0  0  0  0
  8 39  1  0  0  0  0
  8 40  1  0  0  0  0
  9 41  1  0  0  0  0
 12 42  1  0  0  0  0
 13 43  1  0  0  0  0
 13 44  1  0  0  0  0
 18 45  1  0  0  0  0
 19 46  1  0  0  0  0
 19 47  1  0  0  0  0
 21 48  1  0  0  0  0
 21 49  1  0  0  0  0
 22 50  1  0  0  0  0
 22 51  1  0  0  0  0
 23 52  1  0  0  0  0
 26 53  1  0  0  0  0
 26 54  1  0  0  0  0
 27 55  1  0  0  0  0
 27 56  1  0  0  0  0
 27 57  1  0  0  0  0
 28 58  1  0  0  0  0
 28 59  1  0  0  0  0
 28 60  1  0  0  0  0
 29 61  1  0  0  0  0
 30 62  1  0  0  0  0
 30 63  1  0  0  0  0
 30 64  1  0  0  0  0
 31 65  1  0  0  0  0
 31 66  1  0  0  0  0
 31 67  1  0  0  0  0
M  END
$$$$
