C15H14O6
APtclcactv06211806523D 0   0.00000     0.00000
 
 35 37  0  0  0  0  0  0  0  0999 V2000
    5.2924    1.9234    0.2510 C   0  0  0  0  0  0  0  0  0  0  0  0
    5.0423    0.5228    0.1171 O   0  0  0  0  0  0  0  0  0  0  0  0
    3.7415    0.1306    0.0607 C   0  0  0  0  0  0  0  0  0  0  0  0
    3.4313   -1.2225   -0.0697 C   0  0  0  0  0  0  0  0  0  0  0  0
    2.1106   -1.6259   -0.1269 C   0  0  0  0  0  0  0  0  0  0  0  0
    1.0948   -0.6774   -0.0539 C   0  0  0  0  0  0  0  0  0  0  0  0
   -0.3789   -0.7525   -0.0824 C   0  0  0  0  0  0  0  0  0  0  0  0
   -1.2897   -1.7998   -0.1928 C   0  0  0  0  0  0  0  0  0  0  0  0
   -2.6468   -1.5345   -0.1875 C   0  0  0  0  0  0  0  0  0  0  0  0
   -3.1001   -0.2225   -0.0725 C   0  0  0  0  0  0  0  0  0  0  0  0
   -2.1980    0.8246    0.0377 C   0  0  0  0  0  0  0  0  0  0  0  0
   -0.8289    0.5688    0.0339 C   0  0  0  0  0  0  0  0  0  0  0  0
    0.2478    1.3832    0.1255 O   0  0  0  0  0  0  0  0  0  0  0  0
    1.4037    0.6834    0.0772 C   0  0  0  0  0  0  0  0  0  0  0  0
    2.7351    1.0759    0.1389 C   0  0  0  0  0  0  0  0  0  0  0  0
   -2.6505    2.1030    0.1496 O   0  0  0  0  0  0  0  0  0  0  0  0
   -2.7832    2.8524   -1.0599 C   0  0  0  0  0  0  0  0  0  0  0  0
   -4.4368    0.0333   -0.0688 O   0  0  0  0  0  0  0  0  0  0  0  0
   -5.0923    0.0406    1.2010 C   0  0  0  0  0  0  0  0  0  0  0  0
   -3.5397   -2.5555   -0.2951 O   0  0  0  0  0  0  0  0  0  0  0  0
    4.4285   -2.1454   -0.1411 O   0  0  0  0  0  0  0  0  0  0  0  0
    6.3676    2.0990    0.2838 H   0  0  0  0  0  0  0  0  0  0  0  0
    4.8637    2.4521   -0.6004 H   0  0  0  0  0  0  0  0  0  0  0  0
    4.8365    2.2875    1.1717 H   0  0  0  0  0  0  0  0  0  0  0  0
    1.8679   -2.6734   -0.2283 H   0  0  0  0  0  0  0  0  0  0  0  0
   -0.9371   -2.8166   -0.2826 H   0  0  0  0  0  0  0  0  0  0  0  0
    2.9845    2.1212    0.2459 H   0  0  0  0  0  0  0  0  0  0  0  0
   -3.5366    2.3867   -1.6951 H   0  0  0  0  0  0  0  0  0  0  0  0
   -3.0869    3.8723   -0.8239 H   0  0  0  0  0  0  0  0  0  0  0  0
   -1.8272    2.8699   -1.5832 H   0  0  0  0  0  0  0  0  0  0  0  0
   -5.0418   -0.9550    1.6417 H   0  0  0  0  0  0  0  0  0  0  0  0
   -4.5996    0.7552    1.8602 H   0  0  0  0  0  0  0  0  0  0  0  0
   -6.1358    0.3272    1.0695 H   0  0  0  0  0  0  0  0  0  0  0  0
   -3.8103   -2.9324    0.5533 H   0  0  0  0  0  0  0  0  0  0  0  0
    4.7039   -2.4940    0.7178 H   0  0  0  0  0  0  0  0  0  0  0  0
  1  2  1  0  0  0  0
  2  3  1  0  0  0  0
  3  4  2  0  0  0  0
  4  5  1  0  0  0  0
  5  6  2  0  0  0  0
  6  7  1  0  0  0  0
  7  8  2  0  0  0  0
  8  9  1  0  0  0  0
  9 10  2  0  0  0  0
 10 11  1  0  0  0  0
 11 12  2  0  0  0  0
  7 12  1  0  0  0  0
 12 13  1  0  0  0  0
 13 14  1  0  0  0  0
  6 14  1  0  0  0  0
 14 15  2  0  0  0  0
  3 15  1  0  0  0  0
 11 16  1  0  0  0  0
 16 17  1  0  0  0  0
 10 18  1  0  0  0  0
 18 19  1  0  0  0  0
  9 20  1  0  0  0  0
  4 21  1  0  0  0  0
  1 22  1  0  0  0  0
  1 23  1  0  0  0  0
  1 24  1  0  0  0  0
  5 25  1  0  0  0  0
  8 26  1  0  0  0  0
 15 27  1  0  0  0  0
 17 28  1  0  0  0  0
 17 29  1  0  0  0  0
 17 30  1  0  0  0  0
 19 31  1  0  0  0  0
 19 32  1  0  0  0  0
 19 33  1  0  0  0  0
 20 34  1  0  0  0  0
 21 35  1  0  0  0  0
M  END
$$$$
