C27H42O3
APtclcactv06211806463D 0   0.00000     0.00000
 
 72 77  0  0  0  0  0  0  0  0999 V2000
    7.7369   -1.5668    0.1077 C   0  0  0  0  0  0  0  0  0  0  0  0
    6.6068   -0.5771    0.3976 C   0  0  0  0  0  0  0  0  0  0  0  0
    5.9745   -0.1211   -0.9210 C   0  0  0  0  0  0  0  0  0  0  0  0
    4.8119    0.8291   -0.6122 C   0  0  0  0  0  0  0  0  0  0  0  0
    3.8314    0.1476    0.3280 C   0  0  0  0  0  0  0  0  0  0  0  0
    2.6994    1.1439    0.7222 C   0  0  0  0  0  0  0  0  0  0  0  0
    1.8759    1.1506   -0.5556 C   0  0  0  0  0  0  0  0  0  0  0  0
    2.1554   -0.2427   -1.2085 C   0  0  0  0  0  0  0  0  0  0  0  0
    3.1100   -0.8962   -0.3527 O   0  0  0  0  0  0  0  0  0  0  0  0
    0.8171   -1.0219   -1.1703 C   0  0  0  0  0  0  0  0  0  0  0  0
   -0.0570   -0.2234   -0.1925 C   0  0  0  0  0  0  0  0  0  0  0  0
    0.3586    1.2298   -0.4878 C   0  0  0  0  0  0  0  0  0  0  0  0
   -0.2761    2.1900    0.4769 C   0  0  0  0  0  0  0  0  0  0  0  0
   -1.7620    1.8763    0.7017 C   0  0  0  0  0  0  0  0  0  0  0  0
   -2.3238    0.8730   -0.2870 C   0  0  0  0  0  0  0  0  0  0  0  0
   -1.5392   -0.4383   -0.2814 C   0  0  0  0  0  0  0  0  0  0  0  0
   -1.9692   -1.2519   -1.5038 C   0  0  0  0  0  0  0  0  0  0  0  0
   -3.4643   -1.4190   -1.4485 C   0  0  0  0  0  0  0  0  0  0  0  0
   -4.2518   -0.6398   -0.7764 C   0  0  0  0  0  0  0  0  0  0  0  0
   -3.7916    0.5592    0.0173 C   0  0  0  0  0  0  0  0  0  0  0  0
   -4.0160    0.2738    1.4958 C   0  0  0  0  0  0  0  0  0  0  0  0
   -5.1031   -0.7822    1.6830 C   0  0  0  0  0  0  0  0  0  0  0  0
   -6.2402   -0.6489    0.6789 C   0  0  0  0  0  0  0  0  0  0  0  0
   -5.7421   -0.9339   -0.7434 C   0  0  0  0  0  0  0  0  0  0  0  0
   -7.2718   -1.5881    1.0091 O   0  0  0  0  0  0  0  0  0  0  0  0
   -4.6187    1.7773   -0.3990 C   0  0  0  0  0  0  0  0  0  0  0  0
   -0.0510    1.6291   -1.9280 C   0  0  0  0  0  0  0  0  0  0  0  0
    2.0314    0.6499    1.9962 C   0  0  0  0  0  0  0  0  0  0  0  0
    4.4660   -0.3433    1.4955 O   0  0  0  0  0  0  0  0  0  0  0  0
    5.5387   -1.2576    1.2580 C   0  0  0  0  0  0  0  0  0  0  0  0
    8.4940   -1.0832   -0.5095 H   0  0  0  0  0  0  0  0  0  0  0  0
    8.1860   -1.8906    1.0466 H   0  0  0  0  0  0  0  0  0  0  0  0
    7.3357   -2.4318   -0.4205 H   0  0  0  0  0  0  0  0  0  0  0  0
    7.0059    0.2871    0.9281 H   0  0  0  0  0  0  0  0  0  0  0  0
    6.7202    0.3985   -1.5228 H   0  0  0  0  0  0  0  0  0  0  0  0
    5.6034   -0.9877   -1.4675 H   0  0  0  0  0  0  0  0  0  0  0  0
    5.2012    1.7352   -0.1440 H   0  0  0  0  0  0  0  0  0  0  0  0
    4.3089    1.0971   -1.5424 H   0  0  0  0  0  0  0  0  0  0  0  0
    3.1536    2.1325    0.9026 H   0  0  0  0  0  0  0  0  0  0  0  0
    2.2413    1.9447   -1.2443 H   0  0  0  0  0  0  0  0  0  0  0  0
    2.5356   -0.1337   -2.2244 H   0  0  0  0  0  0  0  0  0  0  0  0
    0.3630   -1.0734   -2.1578 H   0  0  0  0  0  0  0  0  0  0  0  0
    0.9785   -2.0343   -0.7855 H   0  0  0  0  0  0  0  0  0  0  0  0
    0.2439   -0.5129    0.8312 H   0  0  0  0  0  0  0  0  0  0  0  0
    0.2357    2.2312    1.4354 H   0  0  0  0  0  0  0  0  0  0  0  0
   -0.2071    3.2115    0.0499 H   0  0  0  0  0  0  0  0  0  0  0  0
   -1.8835    1.4863    1.7223 H   0  0  0  0  0  0  0  0  0  0  0  0
   -2.3276    2.8144    0.6456 H   0  0  0  0  0  0  0  0  0  0  0  0
   -2.3403    1.3027   -1.2926 H   0  0  0  0  0  0  0  0  0  0  0  0
   -1.8513   -1.0139    0.6180 H   0  0  0  0  0  0  0  0  0  0  0  0
   -1.6976   -0.7293   -2.4177 H   0  0  0  0  0  0  0  0  0  0  0  0
   -1.4958   -2.2324   -1.4799 H   0  0  0  0  0  0  0  0  0  0  0  0
   -3.9031   -2.2346   -2.0022 H   0  0  0  0  0  0  0  0  0  0  0  0
   -3.0879   -0.0879    1.9426 H   0  0  0  0  0  0  0  0  0  0  0  0
   -4.3160    1.1930    2.0020 H   0  0  0  0  0  0  0  0  0  0  0  0
   -4.6539   -1.7736    1.5855 H   0  0  0  0  0  0  0  0  0  0  0  0
   -5.5101   -0.6904    2.6943 H   0  0  0  0  0  0  0  0  0  0  0  0
   -6.6614    0.3562    0.7289 H   0  0  0  0  0  0  0  0  0  0  0  0
   -6.2679   -0.3037   -1.4604 H   0  0  0  0  0  0  0  0  0  0  0  0
   -5.9152   -1.9843   -0.9907 H   0  0  0  0  0  0  0  0  0  0  0  0
   -8.0323   -1.5629    0.4125 H   0  0  0  0  0  0  0  0  0  0  0  0
   -5.6731    1.5861   -0.1991 H   0  0  0  0  0  0  0  0  0  0  0  0
   -4.2934    2.6488    0.1692 H   0  0  0  0  0  0  0  0  0  0  0  0
   -4.4789    1.9648   -1.4636 H   0  0  0  0  0  0  0  0  0  0  0  0
   -1.1370    1.6985   -1.9909 H   0  0  0  0  0  0  0  0  0  0  0  0
    0.3898    2.5944   -2.1767 H   0  0  0  0  0  0  0  0  0  0  0  0
    0.3060    0.8751   -2.6295 H   0  0  0  0  0  0  0  0  0  0  0  0
    2.7727    0.5821    2.7924 H   0  0  0  0  0  0  0  0  0  0  0  0
    1.2465    1.3474    2.2889 H   0  0  0  0  0  0  0  0  0  0  0  0
    1.5961   -0.3339    1.8203 H   0  0  0  0  0  0  0  0  0  0  0  0
    5.1609   -2.1383    0.7388 H   0  0  0  0  0  0  0  0  0  0  0  0
    5.9779   -1.5583    2.2098 H   0  0  0  0  0  0  0  0  0  0  0  0
  1  2  1  0  0  0  0
  2  3  1  0  0  0  0
  3  4  1  0  0  0  0
  4  5  1  0  0  0  0
  5  6  1  0  0  0  0
  6  7  1  0  0  0  0
  7  8  1  0  0  0  0
  8  9  1  0  0  0  0
  5  9  1  0  0  0  0
  8 10  1  0  0  0  0
 10 11  1  0  0  0  0
 11 12  1  0  0  0  0
  7 12  1  0  0  0  0
 12 13  1  0  0  0  0
 13 14  1  0  0  0  0
 14 15  1  0  0  0  0
 15 16  1  0  0  0  0
 11 16  1  0  0  0  0
 16 17  1  0  0  0  0
 17 18  1  0  0  0  0
 18 19  2  0  0  0  0
 19 20  1  0  0  0  0
 15 20  1  0  0  0  0
 20 21  1  0  0  0  0
 21 22  1  0  0  0  0
 22 23  1  0  0  0  0
 23 24  1  0  0  0  0
 19 24  1  0  0  0  0
 23 25  1  0  0  0  0
 20 26  1  0  0  0  0
 12 27  1  0  0  0  0
  6 28  1  0  0  0  0
  5 29  1  0  0  0  0
 29 30  1  0  0  0  0
  2 30  1  0  0  0  0
  1 31  1  0  0  0  0
  1 32  1  0  0  0  0
  1 33  1  0  0  0  0
  2 34  1  0  0  0  0
  3 35  1  0  0  0  0
  3 36  1  0  0  0  0
  4 37  1  0  0  0  0
  4 38  1  0  0  0  0
  6 39  1  0  0  0  0
  7 40  1  0  0  0  0
  8 41  1  0  0  0  0
 10 42  1  0  0  0  0
 10 43  1  0  0  0  0
 11 44  1  0  0  0  0
 13 45  1  0  0  0  0
 13 46  1  0  0  0  0
 14 47  1  0  0  0  0
 14 48  1  0  0  0  0
 15 49  1  0  0  0  0
 16 50  1  0  0  0  0
 17 51  1  0  0  0  0
 17 52  1  0  0  0  0
 18 53  1  0  0  0  0
 21 54  1  0  0  0  0
 21 55  1  0  0  0  0
 22 56  1  0  0  0  0
 22 57  1  0  0  0  0
 23 58  1  0  0  0  0
 24 59  1  0  0  0  0
 24 60  1  0  0  0  0
 25 61  1  0  0  0  0
 26 62  1  0  0  0  0
 26 63  1  0  0  0  0
 26 64  1  0  0  0  0
 27 65  1  0  0  0  0
 27 66  1  0  0  0  0
 27 67  1  0  0  0  0
 28 68  1  0  0  0  0
 28 69  1  0  0  0  0
 28 70  1  0  0  0  0
 30 71  1  0  0  0  0
 30 72  1  0  0  0  0
M  END
$$$$
