C16H18NO3
APtclcactv06291802493D 0   0.00000     0.00000
 
 38 40  0  0  0  0  0  0  0  0999 V2000
    1.8424   -2.6485    0.1530 C   0  0  0  0  0  0  0  0  0  0  0  0
    0.4085   -2.6811    0.6831 C   0  0  0  0  0  0  0  0  0  0  0  0
   -0.3990   -1.7255   -0.0903 N   0  3  0  0  0  0  0  0  0  0  0  0
   -0.2241   -1.8552   -1.0755 H   0  0  0  0  0  0  0  0  0  0  0  0
   -1.3779   -1.8774    0.1017 H   0  0  0  0  0  0  0  0  0  0  0  0
   -0.0266   -0.3623    0.2986 C   0  0  0  0  0  0  0  0  0  0  0  0
    1.4596   -0.1593    0.1622 C   0  0  0  0  0  0  0  0  0  0  0  0
    1.9469    1.1380    0.1018 C   0  0  0  0  0  0  0  0  0  0  0  0
    3.3053    1.3704   -0.0211 C   0  0  0  0  0  0  0  0  0  0  0  0
    4.1867    0.2953   -0.0839 C   0  0  0  0  0  0  0  0  0  0  0  0
    3.6960   -0.9973   -0.0239 C   0  0  0  0  0  0  0  0  0  0  0  0
    2.3339   -1.2243    0.0979 C   0  0  0  0  0  0  0  0  0  0  0  0
    5.5236    0.5139   -0.2041 O   0  0  0  0  0  0  0  0  0  0  0  0
    3.7773    2.6444   -0.0808 O   0  0  0  0  0  0  0  0  0  0  0  0
   -0.7568    0.6363   -0.6016 C   0  0  0  0  0  0  0  0  0  0  0  0
   -2.2409    0.5407   -0.3576 C   0  0  0  0  0  0  0  0  0  0  0  0
   -2.8337    1.3314    0.6094 C   0  0  0  0  0  0  0  0  0  0  0  0
   -4.1939    1.2456    0.8350 C   0  0  0  0  0  0  0  0  0  0  0  0
   -4.9652    0.3652    0.0902 C   0  0  0  0  0  0  0  0  0  0  0  0
   -4.3679   -0.4271   -0.8795 C   0  0  0  0  0  0  0  0  0  0  0  0
   -3.0082   -0.3334   -1.1051 C   0  0  0  0  0  0  0  0  0  0  0  0
   -6.3034    0.2786    0.3105 O   0  0  0  0  0  0  0  0  0  0  0  0
    2.4864   -3.2288    0.8138 H   0  0  0  0  0  0  0  0  0  0  0  0
    1.8687   -3.0799   -0.8476 H   0  0  0  0  0  0  0  0  0  0  0  0
   -0.0017   -3.6844    0.5677 H   0  0  0  0  0  0  0  0  0  0  0  0
    0.4010   -2.3987    1.7359 H   0  0  0  0  0  0  0  0  0  0  0  0
   -0.3190   -0.1917    1.3347 H   0  0  0  0  0  0  0  0  0  0  0  0
    1.2619    1.9716    0.1505 H   0  0  0  0  0  0  0  0  0  0  0  0
    4.3777   -1.8336   -0.0725 H   0  0  0  0  0  0  0  0  0  0  0  0
    5.9874    0.5890    0.6411 H   0  0  0  0  0  0  0  0  0  0  0  0
    3.9912    3.0254    0.7819 H   0  0  0  0  0  0  0  0  0  0  0  0
   -0.4157    1.6465   -0.3751 H   0  0  0  0  0  0  0  0  0  0  0  0
   -0.5447    0.4068   -1.6458 H   0  0  0  0  0  0  0  0  0  0  0  0
   -2.2328    2.0164    1.1892 H   0  0  0  0  0  0  0  0  0  0  0  0
   -4.6564    1.8631    1.5907 H   0  0  0  0  0  0  0  0  0  0  0  0
   -4.9662   -1.1132   -1.4606 H   0  0  0  0  0  0  0  0  0  0  0  0
   -2.5428   -0.9500   -1.8599 H   0  0  0  0  0  0  0  0  0  0  0  0
   -6.8306    0.8851   -0.2274 H   0  0  0  0  0  0  0  0  0  0  0  0
  1  2  1  0  0  0  0
  2  3  1  0  0  0  0
  3  4  1  0  0  0  0
  3  5  1  0  0  0  0
  3  6  1  0  0  0  0
  6  7  1  0  0  0  0
  7  8  2  0  0  0  0
  8  9  1  0  0  0  0
  9 10  2  0  0  0  0
 10 11  1  0  0  0  0
 11 12  2  0  0  0  0
  7 12  1  0  0  0  0
  1 12  1  0  0  0  0
 10 13  1  0  0  0  0
  9 14  1  0  0  0  0
  6 15  1  0  0  0  0
 15 16  1  0  0  0  0
 16 17  2  0  0  0  0
 17 18  1  0  0  0  0
 18 19  2  0  0  0  0
 19 20  1  0  0  0  0
 20 21  2  0  0  0  0
 16 21  1  0  0  0  0
 19 22  1  0  0  0  0
  1 23  1  0  0  0  0
  1 24  1  0  0  0  0
  2 25  1  0  0  0  0
  2 26  1  0  0  0  0
  6 27  1  0  0  0  0
  8 28  1  0  0  0  0
 11 29  1  0  0  0  0
 13 30  1  0  0  0  0
 14 31  1  0  0  0  0
 15 32  1  0  0  0  0
 15 33  1  0  0  0  0
 17 34  1  0  0  0  0
 18 35  1  0  0  0  0
 20 36  1  0  0  0  0
 21 37  1  0  0  0  0
 22 38  1  0  0  0  0
M  CHG  1   3   1
M  END
$$$$
