C15H24
APtclcactv06211806533D 0   0.00000     0.00000
 
 39 41  0  0  0  0  0  0  0  0999 V2000
    3.4574    0.0548   -1.6351 C   0  0  0  0  0  0  0  0  0  0  0  0
    2.3480    0.3363   -0.6548 C   0  0  0  0  0  0  0  0  0  0  0  0
    2.5043    1.2040    0.3184 C   0  0  0  0  0  0  0  0  0  0  0  0
    1.3617    1.4595    1.2713 C   0  0  0  0  0  0  0  0  0  0  0  0
    0.1876    0.5340    0.9328 C   0  0  0  0  0  0  0  0  0  0  0  0
   -0.1658    0.6056   -0.5664 C   0  0  0  0  0  0  0  0  0  0  0  0
    1.0089   -0.3676   -0.7608 C   0  0  0  0  0  0  0  0  0  0  0  0
    0.6189   -0.9131    0.6416 C   0  0  0  0  0  0  0  0  0  0  0  0
   -0.5768   -1.8711    0.5573 C   0  0  0  0  0  0  0  0  0  0  0  0
   -1.3375   -1.5826   -0.7449 C   0  0  0  0  0  0  0  0  0  0  0  0
   -1.5137   -0.0623   -0.8712 C   0  0  0  0  0  0  0  0  0  0  0  0
   -2.5624    0.4207    0.1327 C   0  0  0  0  0  0  0  0  0  0  0  0
   -2.7336    1.9355    0.0023 C   0  0  0  0  0  0  0  0  0  0  0  0
   -3.8976   -0.2698   -0.1526 C   0  0  0  0  0  0  0  0  0  0  0  0
    1.7873   -1.4248    1.4866 C   0  0  0  0  0  0  0  0  0  0  0  0
    4.3259    0.6644   -1.3858 H   0  0  0  0  0  0  0  0  0  0  0  0
    3.7275   -1.0001   -1.5850 H   0  0  0  0  0  0  0  0  0  0  0  0
    3.1213    0.2963   -2.6434 H   0  0  0  0  0  0  0  0  0  0  0  0
    3.4407    1.7291    0.4361 H   0  0  0  0  0  0  0  0  0  0  0  0
    1.6915    1.2679    2.2924 H   0  0  0  0  0  0  0  0  0  0  0  0
    1.0417    2.4978    1.1835 H   0  0  0  0  0  0  0  0  0  0  0  0
   -0.6622    0.6406    1.6071 H   0  0  0  0  0  0  0  0  0  0  0  0
   -0.0310    1.5849   -1.0257 H   0  0  0  0  0  0  0  0  0  0  0  0
    0.9221   -1.0595   -1.5986 H   0  0  0  0  0  0  0  0  0  0  0  0
   -0.2219   -2.9017    0.5546 H   0  0  0  0  0  0  0  0  0  0  0  0
   -1.2359   -1.7115    1.4106 H   0  0  0  0  0  0  0  0  0  0  0  0
   -0.7658   -1.9542   -1.5953 H   0  0  0  0  0  0  0  0  0  0  0  0
   -2.3132   -2.0677   -0.7164 H   0  0  0  0  0  0  0  0  0  0  0  0
   -1.8304    0.1882   -1.8836 H   0  0  0  0  0  0  0  0  0  0  0  0
   -2.2364    0.1776    1.1440 H   0  0  0  0  0  0  0  0  0  0  0  0
   -1.7824    2.4274    0.2055 H   0  0  0  0  0  0  0  0  0  0  0  0
   -3.0596    2.1786   -1.0090 H   0  0  0  0  0  0  0  0  0  0  0  0
   -3.4807    2.2796    0.7175 H   0  0  0  0  0  0  0  0  0  0  0  0
   -3.7757   -1.3490   -0.0597 H   0  0  0  0  0  0  0  0  0  0  0  0
   -4.6447    0.0743    0.5626 H   0  0  0  0  0  0  0  0  0  0  0  0
   -4.2236   -0.0268   -1.1639 H   0  0  0  0  0  0  0  0  0  0  0  0
    2.3039   -0.5798    1.9418 H   0  0  0  0  0  0  0  0  0  0  0  0
    1.4091   -2.0834    2.2685 H   0  0  0  0  0  0  0  0  0  0  0  0
    2.4811   -1.9756    0.8516 H   0  0  0  0  0  0  0  0  0  0  0  0
  1  2  1  0  0  0  0
  2  3  2  0  0  0  0
  3  4  1  0  0  0  0
  4  5  1  0  0  0  0
  5  6  1  0  0  0  0
  6  7  1  0  0  0  0
  2  7  1  0  0  0  0
  7  8  1  0  0  0  0
  5  8  1  0  0  0  0
  8  9  1  0  0  0  0
  9 10  1  0  0  0  0
 10 11  1  0  0  0  0
  6 11  1  0  0  0  0
 11 12  1  0  0  0  0
 12 13  1  0  0  0  0
 12 14  1  0  0  0  0
  8 15  1  0  0  0  0
  1 16  1  0  0  0  0
  1 17  1  0  0  0  0
  1 18  1  0  0  0  0
  3 19  1  0  0  0  0
  4 20  1  0  0  0  0
  4 21  1  0  0  0  0
  5 22  1  0  0  0  0
  6 23  1  0  0  0  0
  7 24  1  0  0  0  0
  9 25  1  0  0  0  0
  9 26  1  0  0  0  0
 10 27  1  0  0  0  0
 10 28  1  0  0  0  0
 11 29  1  0  0  0  0
 12 30  1  0  0  0  0
 13 31  1  0  0  0  0
 13 32  1  0  0  0  0
 13 33  1  0  0  0  0
 14 34  1  0  0  0  0
 14 35  1  0  0  0  0
 14 36  1  0  0  0  0
 15 37  1  0  0  0  0
 15 38  1  0  0  0  0
 15 39  1  0  0  0  0
M  END
$$$$
