C27H32O14
APtclcactv06211806533D 0   0.00000     0.00000
 
 73 77  0  0  0  0  0  0  0  0999 V2000
    5.7470    0.7768   -2.4392 C   0  0  0  0  0  0  0  0  0  0  0  0
    6.2797    1.1596   -1.0569 C   0  0  0  0  0  0  0  0  0  0  0  0
    6.3677    2.6841   -0.9480 C   0  0  0  0  0  0  0  0  0  0  0  0
    4.9634    3.2800   -1.0864 C   0  0  0  0  0  0  0  0  0  0  0  0
    4.0547    2.6720   -0.0136 C   0  0  0  0  0  0  0  0  0  0  0  0
    4.0560    1.1480   -0.1586 C   0  0  0  0  0  0  0  0  0  0  0  0
    5.3954    0.6617   -0.0508 O   0  0  0  0  0  0  0  0  0  0  0  0
    3.2547    0.5703    0.8739 O   0  0  0  0  0  0  0  0  0  0  0  0
    3.0965   -0.8456    0.7634 C   0  0  0  0  0  0  0  0  0  0  0  0
    2.9245   -1.4520    2.1594 C   0  0  0  0  0  0  0  0  0  0  0  0
    2.6782   -2.9577    2.0233 C   0  0  0  0  0  0  0  0  0  0  0  0
    1.4530   -3.1882    1.1347 C   0  0  0  0  0  0  0  0  0  0  0  0
    1.6662   -2.5728   -0.1373 O   0  0  0  0  0  0  0  0  0  0  0  0
    1.8552   -1.1576   -0.0765 C   0  0  0  0  0  0  0  0  0  0  0  0
    0.7093   -0.5491    0.5224 O   0  0  0  0  0  0  0  0  0  0  0  0
   -0.4625   -0.6425   -0.1551 C   0  0  0  0  0  0  0  0  0  0  0  0
   -0.5010   -1.3091   -1.3733 C   0  0  0  0  0  0  0  0  0  0  0  0
   -1.6922   -1.4121   -2.0697 C   0  0  0  0  0  0  0  0  0  0  0  0
   -2.8574   -0.8408   -1.5349 C   0  0  0  0  0  0  0  0  0  0  0  0
   -4.1367   -0.9460   -2.2450 C   0  0  0  0  0  0  0  0  0  0  0  0
   -4.2830   -1.6955   -3.1884 O   0  0  0  0  0  0  0  0  0  0  0  0
   -5.2685   -0.0696   -1.7391 C   0  0  0  0  0  0  0  0  0  0  0  0
   -5.2021   -0.0827   -0.2049 C   0  0  0  0  0  0  0  0  0  0  0  0
   -3.9280    0.4038    0.2166 O   0  0  0  0  0  0  0  0  0  0  0  0
   -2.8128   -0.1605   -0.3035 C   0  0  0  0  0  0  0  0  0  0  0  0
   -1.6127   -0.0755    0.3794 C   0  0  0  0  0  0  0  0  0  0  0  0
   -6.2877    0.8011    0.3531 C   0  0  0  0  0  0  0  0  0  0  0  0
   -7.4596    0.2399    0.8259 C   0  0  0  0  0  0  0  0  0  0  0  0
   -8.4563    1.0479    1.3379 C   0  0  0  0  0  0  0  0  0  0  0  0
   -8.2807    2.4234    1.3774 C   0  0  0  0  0  0  0  0  0  0  0  0
   -7.1040    2.9841    0.9024 C   0  0  0  0  0  0  0  0  0  0  0  0
   -6.1080    2.1713    0.3965 C   0  0  0  0  0  0  0  0  0  0  0  0
   -9.2599    3.2205    1.8802 O   0  0  0  0  0  0  0  0  0  0  0  0
   -1.7336   -2.0598   -3.2604 O   0  0  0  0  0  0  0  0  0  0  0  0
    1.2359   -4.6907    0.9447 C   0  0  0  0  0  0  0  0  0  0  0  0
    0.0277   -4.9087    0.2134 O   0  0  0  0  0  0  0  0  0  0  0  0
    3.8214   -3.5769    1.4303 O   0  0  0  0  0  0  0  0  0  0  0  0
    4.1091   -1.2289    2.9268 O   0  0  0  0  0  0  0  0  0  0  0  0
    4.5406    3.0288    1.2821 O   0  0  0  0  0  0  0  0  0  0  0  0
    5.0262    4.6971   -0.9127 O   0  0  0  0  0  0  0  0  0  0  0  0
    6.9149    3.0412    0.3229 O   0  0  0  0  0  0  0  0  0  0  0  0
    6.4211    1.1575   -3.2066 H   0  0  0  0  0  0  0  0  0  0  0  0
    5.6844   -0.3086   -2.5166 H   0  0  0  0  0  0  0  0  0  0  0  0
    4.7561    1.2088   -2.5792 H   0  0  0  0  0  0  0  0  0  0  0  0
    7.2704    0.7274   -0.9167 H   0  0  0  0  0  0  0  0  0  0  0  0
    7.0069    3.0698   -1.7422 H   0  0  0  0  0  0  0  0  0  0  0  0
    4.5654    3.0498   -2.0746 H   0  0  0  0  0  0  0  0  0  0  0  0
    3.0397    3.0490   -0.1395 H   0  0  0  0  0  0  0  0  0  0  0  0
    3.6474    0.8751   -1.1316 H   0  0  0  0  0  0  0  0  0  0  0  0
    3.9776   -1.2744    0.2860 H   0  0  0  0  0  0  0  0  0  0  0  0
    2.0733   -0.9868    2.6567 H   0  0  0  0  0  0  0  0  0  0  0  0
    2.4997   -3.3882    3.0086 H   0  0  0  0  0  0  0  0  0  0  0  0
    0.5737   -2.7506    1.6074 H   0  0  0  0  0  0  0  0  0  0  0  0
    1.9902   -0.7653   -1.0845 H   0  0  0  0  0  0  0  0  0  0  0  0
    0.3998   -1.7470   -1.7774 H   0  0  0  0  0  0  0  0  0  0  0  0
   -5.1427    0.9485   -2.1075 H   0  0  0  0  0  0  0  0  0  0  0  0
   -6.2258   -0.4703   -2.0727 H   0  0  0  0  0  0  0  0  0  0  0  0
   -5.3402   -1.1017    0.1565 H   0  0  0  0  0  0  0  0  0  0  0  0
   -1.5689    0.4372    1.3290 H   0  0  0  0  0  0  0  0  0  0  0  0
   -7.5960   -0.8310    0.7946 H   0  0  0  0  0  0  0  0  0  0  0  0
   -9.3716    0.6091    1.7068 H   0  0  0  0  0  0  0  0  0  0  0  0
   -6.9649    4.0547    0.9320 H   0  0  0  0  0  0  0  0  0  0  0  0
   -5.1917    2.6072    0.0266 H   0  0  0  0  0  0  0  0  0  0  0  0
   -9.1859    3.3824    2.8307 H   0  0  0  0  0  0  0  0  0  0  0  0
   -1.9246   -3.0050   -3.1876 H   0  0  0  0  0  0  0  0  0  0  0  0
    2.0759   -5.1122    0.3925 H   0  0  0  0  0  0  0  0  0  0  0  0
    1.1629   -5.1734    1.9192 H   0  0  0  0  0  0  0  0  0  0  0  0
   -0.1737   -5.8412    0.0556 H   0  0  0  0  0  0  0  0  0  0  0  0
    3.7348   -4.5329    1.3137 H   0  0  0  0  0  0  0  0  0  0  0  0
    4.0699   -1.5875    3.8240 H   0  0  0  0  0  0  0  0  0  0  0  0
    4.0118    2.6768    2.0111 H   0  0  0  0  0  0  0  0  0  0  0  0
    4.1703    5.1408   -0.9877 H   0  0  0  0  0  0  0  0  0  0  0  0
    7.8029    2.6926    0.4808 H   0  0  0  0  0  0  0  0  0  0  0  0
  1  2  1  0  0  0  0
  2  3  1  0  0  0  0
  3  4  1  0  0  0  0
  4  5  1  0  0  0  0
  5  6  1  0  0  0  0
  6  7  1  0  0  0  0
  2  7  1  0  0  0  0
  6  8  1  0  0  0  0
  8  9  1  0  0  0  0
  9 10  1  0  0  0  0
 10 11  1  0  0  0  0
 11 12  1  0  0  0  0
 12 13  1  0  0  0  0
 13 14  1  0  0  0  0
  9 14  1  0  0  0  0
 14 15  1  0  0  0  0
 15 16  1  0  0  0  0
 16 17  2  0  0  0  0
 17 18  1  0  0  0  0
 18 19  2  0  0  0  0
 19 20  1  0  0  0  0
 20 21  2  0  0  0  0
 20 22  1  0  0  0  0
 22 23  1  0  0  0  0
 23 24  1  0  0  0  0
 24 25  1  0  0  0  0
 19 25  1  0  0  0  0
 25 26  2  0  0  0  0
 16 26  1  0  0  0  0
 23 27  1  0  0  0  0
 27 28  2  0  0  0  0
 28 29  1  0  0  0  0
 29 30  2  0  0  0  0
 30 31  1  0  0  0  0
 31 32  2  0  0  0  0
 27 32  1  0  0  0  0
 30 33  1  0  0  0  0
 18 34  1  0  0  0  0
 12 35  1  0  0  0  0
 35 36  1  0  0  0  0
 11 37  1  0  0  0  0
 10 38  1  0  0  0  0
  5 39  1  0  0  0  0
  4 40  1  0  0  0  0
  3 41  1  0  0  0  0
  1 42  1  0  0  0  0
  1 43  1  0  0  0  0
  1 44  1  0  0  0  0
  2 45  1  0  0  0  0
  3 46  1  0  0  0  0
  4 47  1  0  0  0  0
  5 48  1  0  0  0  0
  6 49  1  0  0  0  0
  9 50  1  0  0  0  0
 10 51  1  0  0  0  0
 11 52  1  0  0  0  0
 12 53  1  0  0  0  0
 14 54  1  0  0  0  0
 17 55  1  0  0  0  0
 22 56  1  0  0  0  0
 22 57  1  0  0  0  0
 23 58  1  0  0  0  0
 26 59  1  0  0  0  0
 28 60  1  0  0  0  0
 29 61  1  0  0  0  0
 31 62  1  0  0  0  0
 32 63  1  0  0  0  0
 33 64  1  0  0  0  0
 34 65  1  0  0  0  0
 35 66  1  0  0  0  0
 35 67  1  0  0  0  0
 36 68  1  0  0  0  0
 37 69  1  0  0  0  0
 38 70  1  0  0  0  0
 39 71  1  0  0  0  0
 40 72  1  0  0  0  0
 41 73  1  0  0  0  0
M  END
$$$$
