C35H40O23
APtclcactv06291802503D 0   0.00000     0.00000
 
 98103  0  0  0  0  0  0  0  0999 V2000
    3.9807   -4.8363    1.9883 C   0  0  0  0  0  0  0  0  0  0  0  0
    2.9871   -5.9351    1.5505 C   0  0  0  0  0  0  0  0  0  0  0  0
    1.7864   -5.1491    0.9779 C   0  0  0  0  0  0  0  0  0  0  0  0
    2.1967   -3.6683    1.1374 C   0  0  0  0  0  0  0  0  0  0  0  0
    3.6401   -3.6880    1.1812 O   0  0  0  0  0  0  0  0  0  0  0  0
    1.7433   -2.9032    0.0189 O   0  0  0  0  0  0  0  0  0  0  0  0
    1.9828   -1.4996    0.1394 C   0  0  0  0  0  0  0  0  0  0  0  0
    2.1843   -0.8933   -1.2528 C   0  0  0  0  0  0  0  0  0  0  0  0
    2.3623    0.6220   -1.1168 C   0  0  0  0  0  0  0  0  0  0  0  0
    1.1444    1.2086   -0.3984 C   0  0  0  0  0  0  0  0  0  0  0  0
    0.9964    0.5799    0.8763 O   0  0  0  0  0  0  0  0  0  0  0  0
    0.7795   -0.8310    0.8093 C   0  0  0  0  0  0  0  0  0  0  0  0
   -0.3991   -1.0962    0.0461 O   0  0  0  0  0  0  0  0  0  0  0  0
   -1.5773   -0.6596    0.5599 C   0  0  0  0  0  0  0  0  0  0  0  0
   -1.5908    0.0115    1.7775 C   0  0  0  0  0  0  0  0  0  0  0  0
   -2.7854    0.4610    2.3099 C   0  0  0  0  0  0  0  0  0  0  0  0
   -3.9790    0.2350    1.6135 C   0  0  0  0  0  0  0  0  0  0  0  0
   -3.9625   -0.4437    0.3826 C   0  0  0  0  0  0  0  0  0  0  0  0
   -2.7550   -0.8821   -0.1374 C   0  0  0  0  0  0  0  0  0  0  0  0
   -5.1187   -0.6579   -0.2804 O   0  0  0  0  0  0  0  0  0  0  0  0
   -6.3044   -0.2433    0.1936 C   0  0  0  0  0  0  0  0  0  0  0  0
   -6.4279    0.4215    1.3739 C   0  0  0  0  0  0  0  0  0  0  0  0
   -5.2732    0.6961    2.1442 C   0  0  0  0  0  0  0  0  0  0  0  0
   -5.3469    1.2902    3.2077 O   0  0  0  0  0  0  0  0  0  0  0  0
   -7.5196   -0.5189   -0.5959 C   0  0  0  0  0  0  0  0  0  0  0  0
   -7.4248   -1.1996   -1.8128 C   0  0  0  0  0  0  0  0  0  0  0  0
   -8.5661   -1.4555   -2.5481 C   0  0  0  0  0  0  0  0  0  0  0  0
   -9.8083   -1.0348   -2.0761 C   0  0  0  0  0  0  0  0  0  0  0  0
   -9.9025   -0.3587   -0.8674 C   0  0  0  0  0  0  0  0  0  0  0  0
   -8.7689   -0.1050   -0.1259 C   0  0  0  0  0  0  0  0  0  0  0  0
  -10.9294   -1.2866   -2.8009 O   0  0  0  0  0  0  0  0  0  0  0  0
   -8.4776   -2.1177   -3.7327 O   0  0  0  0  0  0  0  0  0  0  0  0
   -2.8008    1.1159    3.4984 O   0  0  0  0  0  0  0  0  0  0  0  0
    1.3419    2.7135   -0.2052 C   0  0  0  0  0  0  0  0  0  0  0  0
    0.1390    3.2898    0.3686 O   0  0  0  0  0  0  0  0  0  0  0  0
    0.1482    4.6115    0.6025 C   0  0  0  0  0  0  0  0  0  0  0  0
    1.1289    5.2653    0.3366 O   0  0  0  0  0  0  0  0  0  0  0  0
   -1.0647    5.2800    1.1967 C   0  0  0  0  0  0  0  0  0  0  0  0
   -0.7975    6.7544    1.3572 C   0  0  0  0  0  0  0  0  0  0  0  0
    0.2684    7.2151    1.0233 O   0  0  0  0  0  0  0  0  0  0  0  0
   -1.7437    7.5559    1.8711 O   0  0  0  0  0  0  0  0  0  0  0  0
    3.5423    0.8981   -0.3596 O   0  0  0  0  0  0  0  0  0  0  0  0
    4.1819    2.1277   -0.7077 C   0  0  0  0  0  0  0  0  0  0  0  0
    5.3542    2.3806    0.2438 C   0  0  0  0  0  0  0  0  0  0  0  0
    6.3844    1.2587    0.0818 C   0  0  0  0  0  0  0  0  0  0  0  0
    6.8279    1.1953   -1.3830 C   0  0  0  0  0  0  0  0  0  0  0  0
    5.5986    0.9881   -2.2717 C   0  0  0  0  0  0  0  0  0  0  0  0
    4.6675    2.0491   -2.0494 O   0  0  0  0  0  0  0  0  0  0  0  0
    6.0260    0.9837   -3.7408 C   0  0  0  0  0  0  0  0  0  0  0  0
    4.8993    0.6748   -4.5637 O   0  0  0  0  0  0  0  0  0  0  0  0
    7.4742    2.4188   -1.7396 O   0  0  0  0  0  0  0  0  0  0  0  0
    7.5160    1.5251    0.9128 O   0  0  0  0  0  0  0  0  0  0  0  0
    5.9615    3.6356   -0.0697 O   0  0  0  0  0  0  0  0  0  0  0  0
    3.3492   -1.4593   -1.8566 O   0  0  0  0  0  0  0  0  0  0  0  0
    1.5906   -5.4686   -0.4011 O   0  0  0  0  0  0  0  0  0  0  0  0
    3.6106   -6.8227    0.4715 C   0  0  0  0  0  0  0  0  0  0  0  0
    4.7712   -7.4689    0.9982 O   0  0  0  0  0  0  0  0  0  0  0  0
    2.5818   -6.7201    2.6738 O   0  0  0  0  0  0  0  0  0  0  0  0
    3.8520   -4.6080    3.0464 H   0  0  0  0  0  0  0  0  0  0  0  0
    5.0053   -5.1499    1.7888 H   0  0  0  0  0  0  0  0  0  0  0  0
    0.8837   -5.3593    1.5515 H   0  0  0  0  0  0  0  0  0  0  0  0
    1.7944   -3.2610    2.0649 H   0  0  0  0  0  0  0  0  0  0  0  0
    2.8756   -1.3328    0.7420 H   0  0  0  0  0  0  0  0  0  0  0  0
    1.3122   -1.1039   -1.8719 H   0  0  0  0  0  0  0  0  0  0  0  0
    2.4511    1.0686   -2.1072 H   0  0  0  0  0  0  0  0  0  0  0  0
    0.2502    1.0330   -0.9963 H   0  0  0  0  0  0  0  0  0  0  0  0
    0.6573   -1.2283    1.8170 H   0  0  0  0  0  0  0  0  0  0  0  0
   -0.6662    0.1818    2.3090 H   0  0  0  0  0  0  0  0  0  0  0  0
   -2.7321   -1.4044   -1.0824 H   0  0  0  0  0  0  0  0  0  0  0  0
   -7.4005    0.7386    1.7201 H   0  0  0  0  0  0  0  0  0  0  0  0
   -6.4617   -1.5244   -2.1778 H   0  0  0  0  0  0  0  0  0  0  0  0
  -10.8669   -0.0341   -0.5055 H   0  0  0  0  0  0  0  0  0  0  0  0
   -8.8451    0.4212    0.8142 H   0  0  0  0  0  0  0  0  0  0  0  0
  -11.3541   -2.1289   -2.5885 H   0  0  0  0  0  0  0  0  0  0  0  0
   -8.5516   -3.0785   -3.6528 H   0  0  0  0  0  0  0  0  0  0  0  0
   -2.7041    2.0748    3.4204 H   0  0  0  0  0  0  0  0  0  0  0  0
    2.1833    2.8863    0.4658 H   0  0  0  0  0  0  0  0  0  0  0  0
    1.5441    3.1801   -1.1693 H   0  0  0  0  0  0  0  0  0  0  0  0
   -1.9195    5.1354    0.5361 H   0  0  0  0  0  0  0  0  0  0  0  0
   -1.2803    4.8416    2.1711 H   0  0  0  0  0  0  0  0  0  0  0  0
   -1.5262    8.4944    1.9547 H   0  0  0  0  0  0  0  0  0  0  0  0
    3.4656    2.9454   -0.6275 H   0  0  0  0  0  0  0  0  0  0  0  0
    4.9920    2.3969    1.2718 H   0  0  0  0  0  0  0  0  0  0  0  0
    5.9358    0.3075    0.3685 H   0  0  0  0  0  0  0  0  0  0  0  0
    7.5196    0.3639   -1.5185 H   0  0  0  0  0  0  0  0  0  0  0  0
    5.1293    0.0353   -2.0266 H   0  0  0  0  0  0  0  0  0  0  0  0
    6.4136    1.9665   -4.0093 H   0  0  0  0  0  0  0  0  0  0  0  0
    6.8023    0.2335   -3.8911 H   0  0  0  0  0  0  0  0  0  0  0  0
    5.0972    0.6547   -5.5100 H   0  0  0  0  0  0  0  0  0  0  0  0
    8.2603    2.6166   -1.2123 H   0  0  0  0  0  0  0  0  0  0  0  0
    7.3067    1.5855    1.8549 H   0  0  0  0  0  0  0  0  0  0  0  0
    5.3639    4.3919    0.0072 H   0  0  0  0  0  0  0  0  0  0  0  0
    3.3081   -2.4190   -1.9673 H   0  0  0  0  0  0  0  0  0  0  0  0
    0.8491   -5.0029   -0.8113 H   0  0  0  0  0  0  0  0  0  0  0  0
    2.8871   -7.5749    0.1570 H   0  0  0  0  0  0  0  0  0  0  0  0
    3.8930   -6.2099   -0.3846 H   0  0  0  0  0  0  0  0  0  0  0  0
    5.2188   -8.0491    0.3673 H   0  0  0  0  0  0  0  0  0  0  0  0
    3.3076   -7.1877    3.1092 H   0  0  0  0  0  0  0  0  0  0  0  0
  1  2  1  0  0  0  0
  2  3  1  0  0  0  0
  3  4  1  0  0  0  0
  4  5  1  0  0  0  0
  1  5  1  0  0  0  0
  4  6  1  0  0  0  0
  6  7  1  0  0  0  0
  7  8  1  0  0  0  0
  8  9  1  0  0  0  0
  9 10  1  0  0  0  0
 10 11  1  0  0  0  0
 11 12  1  0  0  0  0
  7 12  1  0  0  0  0
 12 13  1  0  0  0  0
 13 14  1  0  0  0  0
 14 15  2  0  0  0  0
 15 16  1  0  0  0  0
 16 17  2  0  0  0  0
 17 18  1  0  0  0  0
 18 19  2  0  0  0  0
 14 19  1  0  0  0  0
 18 20  1  0  0  0  0
 20 21  1  0  0  0  0
 21 22  2  0  0  0  0
 22 23  1  0  0  0  0
 17 23  1  0  0  0  0
 23 24  2  0  0  0  0
 21 25  1  0  0  0  0
 25 26  2  0  0  0  0
 26 27  1  0  0  0  0
 27 28  2  0  0  0  0
 28 29  1  0  0  0  0
 29 30  2  0  0  0  0
 25 30  1  0  0  0  0
 28 31  1  0  0  0  0
 27 32  1  0  0  0  0
 16 33  1  0  0  0  0
 10 34  1  0  0  0  0
 34 35  1  0  0  0  0
 35 36  1  0  0  0  0
 36 37  2  0  0  0  0
 36 38  1  0  0  0  0
 38 39  1  0  0  0  0
 39 40  2  0  0  0  0
 39 41  1  0  0  0  0
  9 42  1  0  0  0  0
 42 43  1  0  0  0  0
 43 44  1  0  0  0  0
 44 45  1  0  0  0  0
 45 46  1  0  0  0  0
 46 47  1  0  0  0  0
 47 48  1  0  0  0  0
 43 48  1  0  0  0  0
 47 49  1  0  0  0  0
 49 50  1  0  0  0  0
 46 51  1  0  0  0  0
 45 52  1  0  0  0  0
 44 53  1  0  0  0  0
  8 54  1  0  0  0  0
  3 55  1  0  0  0  0
  2 56  1  0  0  0  0
 56 57  1  0  0  0  0
  2 58  1  0  0  0  0
  1 59  1  0  0  0  0
  1 60  1  0  0  0  0
  3 61  1  0  0  0  0
  4 62  1  0  0  0  0
  7 63  1  0  0  0  0
  8 64  1  0  0  0  0
  9 65  1  0  0  0  0
 10 66  1  0  0  0  0
 12 67  1  0  0  0  0
 15 68  1  0  0  0  0
 19 69  1  0  0  0  0
 22 70  1  0  0  0  0
 26 71  1  0  0  0  0
 29 72  1  0  0  0  0
 30 73  1  0  0  0  0
 31 74  1  0  0  0  0
 32 75  1  0  0  0  0
 33 76  1  0  0  0  0
 34 77  1  0  0  0  0
 34 78  1  0  0  0  0
 38 79  1  0  0  0  0
 38 80  1  0  0  0  0
 41 81  1  0  0  0  0
 43 82  1  0  0  0  0
 44 83  1  0  0  0  0
 45 84  1  0  0  0  0
 46 85  1  0  0  0  0
 47 86  1  0  0  0  0
 49 87  1  0  0  0  0
 49 88  1  0  0  0  0
 50 89  1  0  0  0  0
 51 90  1  0  0  0  0
 52 91  1  0  0  0  0
 53 92  1  0  0  0  0
 54 93  1  0  0  0  0
 55 94  1  0  0  0  0
 56 95  1  0  0  0  0
 56 96  1  0  0  0  0
 57 97  1  0  0  0  0
 58 98  1  0  0  0  0
M  END
$$$$
