C16H12O5
APtclcactv06291802493D 0   0.00000     0.00000
 
 33 35  0  0  0  0  0  0  0  0999 V2000
   -4.1840    2.7375    0.4512 C   0  0  0  0  0  0  0  0  0  0  0  0
   -4.4879    1.3437    0.3684 O   0  0  0  0  0  0  0  0  0  0  0  0
   -3.4492    0.4981    0.1309 C   0  0  0  0  0  0  0  0  0  0  0  0
   -3.6756   -0.8778    0.0378 C   0  0  0  0  0  0  0  0  0  0  0  0
   -2.6302   -1.7491   -0.2072 C   0  0  0  0  0  0  0  0  0  0  0  0
   -1.3384   -1.2607   -0.3632 C   0  0  0  0  0  0  0  0  0  0  0  0
   -1.1139    0.1234   -0.2608 C   0  0  0  0  0  0  0  0  0  0  0  0
   -2.1732    0.9996   -0.0237 C   0  0  0  0  0  0  0  0  0  0  0  0
    0.2695    0.6141   -0.4099 C   0  0  0  0  0  0  0  0  0  0  0  0
    0.5250    1.7969   -0.5577 O   0  0  0  0  0  0  0  0  0  0  0  0
    1.3244   -0.4166   -0.3684 C   0  0  0  0  0  0  0  0  0  0  0  0
    0.9499   -1.7190   -0.4675 C   0  0  0  0  0  0  0  0  0  0  0  0
   -0.3178   -2.1023   -0.6167 O   0  0  0  0  0  0  0  0  0  0  0  0
    2.7519   -0.0421   -0.2223 C   0  0  0  0  0  0  0  0  0  0  0  0
    3.4483    0.4946   -1.3023 C   0  0  0  0  0  0  0  0  0  0  0  0
    4.7773    0.8417   -1.1612 C   0  0  0  0  0  0  0  0  0  0  0  0
    5.4202    0.6583    0.0497 C   0  0  0  0  0  0  0  0  0  0  0  0
    4.7380    0.1262    1.1283 C   0  0  0  0  0  0  0  0  0  0  0  0
    3.4032   -0.2209    1.0023 C   0  0  0  0  0  0  0  0  0  0  0  0
    2.7318   -0.7438    2.0616 O   0  0  0  0  0  0  0  0  0  0  0  0
   -4.9346   -1.3639    0.1899 O   0  0  0  0  0  0  0  0  0  0  0  0
   -3.7447    3.0701   -0.4893 H   0  0  0  0  0  0  0  0  0  0  0  0
   -5.0988    3.2981    0.6433 H   0  0  0  0  0  0  0  0  0  0  0  0
   -3.4765    2.9075    1.2628 H   0  0  0  0  0  0  0  0  0  0  0  0
   -2.8177   -2.8104   -0.2771 H   0  0  0  0  0  0  0  0  0  0  0  0
   -1.9943    2.0623    0.0472 H   0  0  0  0  0  0  0  0  0  0  0  0
    1.7156   -2.4794   -0.4233 H   0  0  0  0  0  0  0  0  0  0  0  0
    2.9495    0.6388   -2.2493 H   0  0  0  0  0  0  0  0  0  0  0  0
    5.3167    1.2575   -1.9994 H   0  0  0  0  0  0  0  0  0  0  0  0
    6.4599    0.9316    0.1530 H   0  0  0  0  0  0  0  0  0  0  0  0
    5.2453   -0.0146    2.0712 H   0  0  0  0  0  0  0  0  0  0  0  0
    2.3021   -0.0819    2.6206 H   0  0  0  0  0  0  0  0  0  0  0  0
   -5.4355   -1.4235   -0.6351 H   0  0  0  0  0  0  0  0  0  0  0  0
  1  2  1  0  0  0  0
  2  3  1  0  0  0  0
  3  4  2  0  0  0  0
  4  5  1  0  0  0  0
  5  6  2  0  0  0  0
  6  7  1  0  0  0  0
  7  8  2  0  0  0  0
  3  8  1  0  0  0  0
  7  9  1  0  0  0  0
  9 10  2  0  0  0  0
  9 11  1  0  0  0  0
 11 12  2  0  0  0  0
 12 13  1  0  0  0  0
  6 13  1  0  0  0  0
 11 14  1  0  0  0  0
 14 15  2  0  0  0  0
 15 16  1  0  0  0  0
 16 17  2  0  0  0  0
 17 18  1  0  0  0  0
 18 19  2  0  0  0  0
 14 19  1  0  0  0  0
 19 20  1  0  0  0  0
  4 21  1  0  0  0  0
  1 22  1  0  0  0  0
  1 23  1  0  0  0  0
  1 24  1  0  0  0  0
  5 25  1  0  0  0  0
  8 26  1  0  0  0  0
 12 27  1  0  0  0  0
 15 28  1  0  0  0  0
 16 29  1  0  0  0  0
 17 30  1  0  0  0  0
 18 31  1  0  0  0  0
 20 32  1  0  0  0  0
 21 33  1  0  0  0  0
M  END
$$$$
