C20H22O6
APtclcactv06291802493D 0   0.00000     0.00000
 
 48 50  0  0  0  0  0  0  0  0999 V2000
    5.2586    1.6445    0.8591 C   0  0  0  0  0  0  0  0  0  0  0  0
    4.5499    1.5589   -0.4942 C   0  0  0  0  0  0  0  0  0  0  0  0
    5.5913    1.4392   -1.6086 C   0  0  0  0  0  0  0  0  0  0  0  0
    3.6371    0.3312   -0.5151 C   0  0  0  0  0  0  0  0  0  0  0  0
    2.5956    0.4509    0.5993 C   0  0  0  0  0  0  0  0  0  0  0  0
    1.6966   -0.7584    0.5787 C   0  0  0  0  0  0  0  0  0  0  0  0
    2.0252   -1.8810    1.3242 C   0  0  0  0  0  0  0  0  0  0  0  0
    1.2024   -3.0047    1.3129 C   0  0  0  0  0  0  0  0  0  0  0  0
    0.0608   -3.0145    0.5632 C   0  0  0  0  0  0  0  0  0  0  0  0
   -0.2816   -1.8912   -0.1951 C   0  0  0  0  0  0  0  0  0  0  0  0
    0.5376   -0.7483   -0.1806 C   0  0  0  0  0  0  0  0  0  0  0  0
    0.2087    0.3498   -0.8998 O   0  0  0  0  0  0  0  0  0  0  0  0
   -0.6637    0.2000   -2.0197 C   0  0  0  0  0  0  0  0  0  0  0  0
   -1.9337   -0.5427   -1.5795 C   0  0  0  0  0  0  0  0  0  0  0  0
   -1.5008   -1.8840   -1.0177 C   0  0  0  0  0  0  0  0  0  0  0  0
   -2.1235   -2.9009   -1.2423 O   0  0  0  0  0  0  0  0  0  0  0  0
   -2.6471    0.2479   -0.5132 C   0  0  0  0  0  0  0  0  0  0  0  0
   -3.9462    0.6858   -0.7274 C   0  0  0  0  0  0  0  0  0  0  0  0
   -4.6022    1.4128    0.2543 C   0  0  0  0  0  0  0  0  0  0  0  0
   -3.9581    1.7003    1.4475 C   0  0  0  0  0  0  0  0  0  0  0  0
   -2.6586    1.2600    1.6570 C   0  0  0  0  0  0  0  0  0  0  0  0
   -2.0090    0.5313    0.6794 C   0  0  0  0  0  0  0  0  0  0  0  0
   -4.5983    2.4130    2.4113 O   0  0  0  0  0  0  0  0  0  0  0  0
   -4.5749    0.4028   -1.8985 O   0  0  0  0  0  0  0  0  0  0  0  0
    3.1582   -1.8846    2.0705 O   0  0  0  0  0  0  0  0  0  0  0  0
    3.7678    2.7375   -0.6977 O   0  0  0  0  0  0  0  0  0  0  0  0
    5.9088    2.5192    0.8740 H   0  0  0  0  0  0  0  0  0  0  0  0
    4.5166    1.7298    1.6530 H   0  0  0  0  0  0  0  0  0  0  0  0
    5.8551    0.7455    1.0143 H   0  0  0  0  0  0  0  0  0  0  0  0
    6.1878    0.5403   -1.4534 H   0  0  0  0  0  0  0  0  0  0  0  0
    5.0864    1.3783   -2.5727 H   0  0  0  0  0  0  0  0  0  0  0  0
    6.2416    2.3139   -1.5937 H   0  0  0  0  0  0  0  0  0  0  0  0
    3.1322    0.2702   -1.4792 H   0  0  0  0  0  0  0  0  0  0  0  0
    4.2336   -0.5678   -0.3599 H   0  0  0  0  0  0  0  0  0  0  0  0
    3.1005    0.5119    1.5634 H   0  0  0  0  0  0  0  0  0  0  0  0
    1.9991    1.3499    0.4441 H   0  0  0  0  0  0  0  0  0  0  0  0
    1.4683   -3.8719    1.8991 H   0  0  0  0  0  0  0  0  0  0  0  0
   -0.5750   -3.8875    0.5559 H   0  0  0  0  0  0  0  0  0  0  0  0
   -0.9327    1.1834   -2.4053 H   0  0  0  0  0  0  0  0  0  0  0  0
   -0.1599   -0.3714   -2.7993 H   0  0  0  0  0  0  0  0  0  0  0  0
   -2.5920   -0.6918   -2.4353 H   0  0  0  0  0  0  0  0  0  0  0  0
   -5.6132    1.7548    0.0893 H   0  0  0  0  0  0  0  0  0  0  0  0
   -2.1562    1.4841    2.5864 H   0  0  0  0  0  0  0  0  0  0  0  0
   -0.9978    0.1896    0.8442 H   0  0  0  0  0  0  0  0  0  0  0  0
   -5.0942    1.8693    3.0387 H   0  0  0  0  0  0  0  0  0  0  0  0
   -5.0671   -0.4295   -1.8894 H   0  0  0  0  0  0  0  0  0  0  0  0
    3.0353   -1.5617    2.9737 H   0  0  0  0  0  0  0  0  0  0  0  0
    3.2894    2.7519   -1.5379 H   0  0  0  0  0  0  0  0  0  0  0  0
  1  2  1  0  0  0  0
  2  3  1  0  0  0  0
  2  4  1  0  0  0  0
  4  5  1  0  0  0  0
  5  6  1  0  0  0  0
  6  7  2  0  0  0  0
  7  8  1  0  0  0  0
  8  9  2  0  0  0  0
  9 10  1  0  0  0  0
 10 11  2  0  0  0  0
  6 11  1  0  0  0  0
 11 12  1  0  0  0  0
 12 13  1  0  0  0  0
 13 14  1  0  0  0  0
 14 15  1  0  0  0  0
 10 15  1  0  0  0  0
 15 16  2  0  0  0  0
 14 17  1  0  0  0  0
 17 18  2  0  0  0  0
 18 19  1  0  0  0  0
 19 20  2  0  0  0  0
 20 21  1  0  0  0  0
 21 22  2  0  0  0  0
 17 22  1  0  0  0  0
 20 23  1  0  0  0  0
 18 24  1  0  0  0  0
  7 25  1  0  0  0  0
  2 26  1  0  0  0  0
  1 27  1  0  0  0  0
  1 28  1  0  0  0  0
  1 29  1  0  0  0  0
  3 30  1  0  0  0  0
  3 31  1  0  0  0  0
  3 32  1  0  0  0  0
  4 33  1  0  0  0  0
  4 34  1  0  0  0  0
  5 35  1  0  0  0  0
  5 36  1  0  0  0  0
  8 37  1  0  0  0  0
  9 38  1  0  0  0  0
 13 39  1  0  0  0  0
 13 40  1  0  0  0  0
 14 41  1  0  0  0  0
 19 42  1  0  0  0  0
 21 43  1  0  0  0  0
 22 44  1  0  0  0  0
 23 45  1  0  0  0  0
 24 46  1  0  0  0  0
 25 47  1  0  0  0  0
 26 48  1  0  0  0  0
M  END
$$$$
