C30H32O6
APtclcactv06291802503D 0   0.00000     0.00000
 
 68 71  0  0  0  0  0  0  0  0999 V2000
   -3.0191    4.4190    2.1478 C   0  0  0  0  0  0  0  0  0  0  0  0
   -4.3760    4.7214    1.5661 C   0  0  0  0  0  0  0  0  0  0  0  0
   -4.6950    4.2700    0.3785 C   0  0  0  0  0  0  0  0  0  0  0  0
   -3.7583    3.3422   -0.3515 C   0  0  0  0  0  0  0  0  0  0  0  0
   -4.5033    2.0612   -0.7322 C   0  0  0  0  0  0  0  0  0  0  0  0
   -3.5666    1.1334   -1.4622 C   0  0  0  0  0  0  0  0  0  0  0  0
   -2.9297    0.1957   -0.8055 C   0  0  0  0  0  0  0  0  0  0  0  0
   -2.0072   -0.7438   -1.5385 C   0  0  0  0  0  0  0  0  0  0  0  0
   -0.6483   -0.7232   -0.8874 C   0  0  0  0  0  0  0  0  0  0  0  0
   -0.3173   -1.6648    0.0391 C   0  0  0  0  0  0  0  0  0  0  0  0
    0.8794   -1.6898    0.6471 O   0  0  0  0  0  0  0  0  0  0  0  0
    1.8429   -0.7814    0.3821 C   0  0  0  0  0  0  0  0  0  0  0  0
    3.0683   -0.8444    1.0317 C   0  0  0  0  0  0  0  0  0  0  0  0
    4.0479    0.0896    0.7550 C   0  0  0  0  0  0  0  0  0  0  0  0
    3.8115    1.1093   -0.1839 C   0  0  0  0  0  0  0  0  0  0  0  0
    4.8875    2.0882   -0.4464 C   0  0  0  0  0  0  0  0  0  0  0  0
    6.1227    1.7812   -0.0538 C   0  0  0  0  0  0  0  0  0  0  0  0
    6.3912    0.4634    0.6237 C   0  0  0  0  0  0  0  0  0  0  0  0
    5.2531    0.0453    1.3780 O   0  0  0  0  0  0  0  0  0  0  0  0
    6.7098   -0.5931   -0.4362 C   0  0  0  0  0  0  0  0  0  0  0  0
    7.5907    0.6135    1.5616 C   0  0  0  0  0  0  0  0  0  0  0  0
    2.5886    1.1855   -0.8442 C   0  0  0  0  0  0  0  0  0  0  0  0
    1.6015    0.2350   -0.5597 C   0  0  0  0  0  0  0  0  0  0  0  0
    0.2941    0.2701   -1.2383 C   0  0  0  0  0  0  0  0  0  0  0  0
    0.0331    1.1267   -2.0678 O   0  0  0  0  0  0  0  0  0  0  0  0
    2.3570    2.1670   -1.7513 O   0  0  0  0  0  0  0  0  0  0  0  0
   -1.3104   -2.6948    0.3879 C   0  0  0  0  0  0  0  0  0  0  0  0
   -1.7091   -3.6413   -0.5681 C   0  0  0  0  0  0  0  0  0  0  0  0
   -2.6431   -4.6059   -0.2320 C   0  0  0  0  0  0  0  0  0  0  0  0
   -3.1819   -4.6353    1.0459 C   0  0  0  0  0  0  0  0  0  0  0  0
   -2.7877   -3.6975    1.9952 C   0  0  0  0  0  0  0  0  0  0  0  0
   -1.8557   -2.7370    1.6750 C   0  0  0  0  0  0  0  0  0  0  0  0
   -4.0980   -5.5827    1.3716 O   0  0  0  0  0  0  0  0  0  0  0  0
   -1.1813   -3.6109   -1.8180 O   0  0  0  0  0  0  0  0  0  0  0  0
   -3.3625    1.2843   -2.9477 C   0  0  0  0  0  0  0  0  0  0  0  0
   -5.3660    5.5432    2.3507 C   0  0  0  0  0  0  0  0  0  0  0  0
   -2.2451    4.7437    1.4524 H   0  0  0  0  0  0  0  0  0  0  0  0
   -2.9031    4.9482    3.0936 H   0  0  0  0  0  0  0  0  0  0  0  0
   -2.9277    3.3463    2.3181 H   0  0  0  0  0  0  0  0  0  0  0  0
   -5.6292    4.5627   -0.0775 H   0  0  0  0  0  0  0  0  0  0  0  0
   -3.3924    3.8316   -1.2541 H   0  0  0  0  0  0  0  0  0  0  0  0
   -2.9159    3.0943    0.2943 H   0  0  0  0  0  0  0  0  0  0  0  0
   -4.8692    1.5718    0.1704 H   0  0  0  0  0  0  0  0  0  0  0  0
   -5.3456    2.3091   -1.3781 H   0  0  0  0  0  0  0  0  0  0  0  0
   -3.0658    0.0960    0.2613 H   0  0  0  0  0  0  0  0  0  0  0  0
   -2.4130   -1.7548   -1.5004 H   0  0  0  0  0  0  0  0  0  0  0  0
   -1.9171   -0.4274   -2.5776 H   0  0  0  0  0  0  0  0  0  0  0  0
    3.2559   -1.6246    1.7546 H   0  0  0  0  0  0  0  0  0  0  0  0
    4.6784    3.0245   -0.9424 H   0  0  0  0  0  0  0  0  0  0  0  0
    6.9314    2.4770   -0.2215 H   0  0  0  0  0  0  0  0  0  0  0  0
    7.5901   -0.2868   -1.0013 H   0  0  0  0  0  0  0  0  0  0  0  0
    6.9048   -1.5487    0.0505 H   0  0  0  0  0  0  0  0  0  0  0  0
    5.8615   -0.6963   -1.1127 H   0  0  0  0  0  0  0  0  0  0  0  0
    7.3718    1.3724    2.3127 H   0  0  0  0  0  0  0  0  0  0  0  0
    7.7882   -0.3387    2.0540 H   0  0  0  0  0  0  0  0  0  0  0  0
    8.4665    0.9136    0.9863 H   0  0  0  0  0  0  0  0  0  0  0  0
    2.6041    1.9325   -2.6563 H   0  0  0  0  0  0  0  0  0  0  0  0
   -2.9528   -5.3360   -0.9651 H   0  0  0  0  0  0  0  0  0  0  0  0
   -3.2116   -3.7261    2.9881 H   0  0  0  0  0  0  0  0  0  0  0  0
   -1.5520   -2.0111    2.4147 H   0  0  0  0  0  0  0  0  0  0  0  0
   -3.7137   -6.3956    1.7275 H   0  0  0  0  0  0  0  0  0  0  0  0
   -0.4234   -4.1990   -1.9393 H   0  0  0  0  0  0  0  0  0  0  0  0
   -2.4868    1.9064   -3.1328 H   0  0  0  0  0  0  0  0  0  0  0  0
   -3.2116    0.3020   -3.3953 H   0  0  0  0  0  0  0  0  0  0  0  0
   -4.2415    1.7537   -3.3894 H   0  0  0  0  0  0  0  0  0  0  0  0
   -5.2310    6.5985    2.1137 H   0  0  0  0  0  0  0  0  0  0  0  0
   -6.3794    5.2388    2.0888 H   0  0  0  0  0  0  0  0  0  0  0  0
   -5.2038    5.3867    3.4172 H   0  0  0  0  0  0  0  0  0  0  0  0
  1  2  1  0  0  0  0
  2  3  2  0  0  0  0
  3  4  1  0  0  0  0
  4  5  1  0  0  0  0
  5  6  1  0  0  0  0
  6  7  2  0  0  0  0
  7  8  1  0  0  0  0
  8  9  1  0  0  0  0
  9 10  2  0  0  0  0
 10 11  1  0  0  0  0
 11 12  1  0  0  0  0
 12 13  2  0  0  0  0
 13 14  1  0  0  0  0
 14 15  2  0  0  0  0
 15 16  1  0  0  0  0
 16 17  2  0  0  0  0
 17 18  1  0  0  0  0
 18 19  1  0  0  0  0
 14 19  1  0  0  0  0
 18 20  1  0  0  0  0
 18 21  1  0  0  0  0
 15 22  1  0  0  0  0
 22 23  2  0  0  0  0
 12 23  1  0  0  0  0
 23 24  1  0  0  0  0
  9 24  1  0  0  0  0
 24 25  2  0  0  0  0
 22 26  1  0  0  0  0
 10 27  1  0  0  0  0
 27 28  2  0  0  0  0
 28 29  1  0  0  0  0
 29 30  2  0  0  0  0
 30 31  1  0  0  0  0
 31 32  2  0  0  0  0
 27 32  1  0  0  0  0
 30 33  1  0  0  0  0
 28 34  1  0  0  0  0
  6 35  1  0  0  0  0
  2 36  1  0  0  0  0
  1 37  1  0  0  0  0
  1 38  1  0  0  0  0
  1 39  1  0  0  0  0
  3 40  1  0  0  0  0
  4 41  1  0  0  0  0
  4 42  1  0  0  0  0
  5 43  1  0  0  0  0
  5 44  1  0  0  0  0
  7 45  1  0  0  0  0
  8 46  1  0  0  0  0
  8 47  1  0  0  0  0
 13 48  1  0  0  0  0
 16 49  1  0  0  0  0
 17 50  1  0  0  0  0
 20 51  1  0  0  0  0
 20 52  1  0  0  0  0
 20 53  1  0  0  0  0
 21 54  1  0  0  0  0
 21 55  1  0  0  0  0
 21 56  1  0  0  0  0
 26 57  1  0  0  0  0
 29 58  1  0  0  0  0
 31 59  1  0  0  0  0
 32 60  1  0  0  0  0
 33 61  1  0  0  0  0
 34 62  1  0  0  0  0
 35 63  1  0  0  0  0
 35 64  1  0  0  0  0
 35 65  1  0  0  0  0
 36 66  1  0  0  0  0
 36 67  1  0  0  0  0
 36 68  1  0  0  0  0
M  END
$$$$
