C17H12O4
APtclcactv06291802493D 0   0.00000     0.00000
 
 33 37  0  0  0  0  0  0  0  0999 V2000
   -0.4750    2.3416   -0.1907 C   0  0  0  0  0  0  0  0  0  0  0  0
   -0.8899    0.9810    0.3106 C   0  0  0  0  0  0  0  0  0  0  0  0
   -0.3235   -0.0623   -0.7151 C   0  0  0  0  0  0  0  0  0  0  0  0
    1.1435   -0.0540   -0.4257 C   0  0  0  0  0  0  0  0  0  0  0  0
    1.7004    1.2303   -0.2908 C   0  0  0  0  0  0  0  0  0  0  0  0
    0.9312    2.3363   -0.4600 O   0  0  0  0  0  0  0  0  0  0  0  0
    3.0505    1.3887    0.0061 C   0  0  0  0  0  0  0  0  0  0  0  0
    3.8178    0.2380    0.1448 C   0  0  0  0  0  0  0  0  0  0  0  0
    3.2355   -1.0432   -0.0124 C   0  0  0  0  0  0  0  0  0  0  0  0
    1.8775   -1.1958   -0.3019 C   0  0  0  0  0  0  0  0  0  0  0  0
    4.3175   -1.9950    0.1906 C   0  0  0  0  0  0  0  0  0  0  0  0
    5.4140   -1.2612    0.4466 C   0  0  0  0  0  0  0  0  0  0  0  0
    5.1119    0.0536    0.4214 O   0  0  0  0  0  0  0  0  0  0  0  0
   -1.0873   -1.2080   -0.3606 O   0  0  0  0  0  0  0  0  0  0  0  0
   -2.3463   -0.7550   -0.0961 C   0  0  0  0  0  0  0  0  0  0  0  0
   -2.3221    0.5974    0.3091 C   0  0  0  0  0  0  0  0  0  0  0  0
   -3.4765    1.2838    0.6153 C   0  0  0  0  0  0  0  0  0  0  0  0
   -4.6761    0.5904    0.5202 C   0  0  0  0  0  0  0  0  0  0  0  0
   -4.7115   -0.7389    0.1333 C   0  0  0  0  0  0  0  0  0  0  0  0
   -3.5520   -1.4400   -0.1830 C   0  0  0  0  0  0  0  0  0  0  0  0
   -5.9102   -1.3751    0.0602 O   0  0  0  0  0  0  0  0  0  0  0  0
   -1.0199    2.5743   -1.1056 H   0  0  0  0  0  0  0  0  0  0  0  0
   -0.6976    3.0924    0.5674 H   0  0  0  0  0  0  0  0  0  0  0  0
   -0.4582    0.8029    1.2955 H   0  0  0  0  0  0  0  0  0  0  0  0
   -0.5195    0.2459   -1.7421 H   0  0  0  0  0  0  0  0  0  0  0  0
    3.4864    2.3698    0.1241 H   0  0  0  0  0  0  0  0  0  0  0  0
    1.4306   -2.1717   -0.4214 H   0  0  0  0  0  0  0  0  0  0  0  0
    4.2525   -3.0721    0.1451 H   0  0  0  0  0  0  0  0  0  0  0  0
    6.3956   -1.6658    0.6444 H   0  0  0  0  0  0  0  0  0  0  0  0
   -3.4497    2.3202    0.9178 H   0  0  0  0  0  0  0  0  0  0  0  0
   -5.6003    1.0982    0.7532 H   0  0  0  0  0  0  0  0  0  0  0  0
   -3.5878   -2.4766   -0.4840 H   0  0  0  0  0  0  0  0  0  0  0  0
   -6.3371   -1.3114   -0.8051 H   0  0  0  0  0  0  0  0  0  0  0  0
  1  2  1  0  0  0  0
  2  3  1  0  0  0  0
  3  4  1  0  0  0  0
  4  5  2  0  0  0  0
  5  6  1  0  0  0  0
  1  6  1  0  0  0  0
  5  7  1  0  0  0  0
  7  8  2  0  0  0  0
  8  9  1  0  0  0  0
  9 10  2  0  0  0  0
  4 10  1  0  0  0  0
  9 11  1  0  0  0  0
 11 12  2  0  0  0  0
 12 13  1  0  0  0  0
  8 13  1  0  0  0  0
  3 14  1  0  0  0  0
 14 15  1  0  0  0  0
 15 16  2  0  0  0  0
  2 16  1  0  0  0  0
 16 17  1  0  0  0  0
 17 18  2  0  0  0  0
 18 19  1  0  0  0  0
 19 20  2  0  0  0  0
 15 20  1  0  0  0  0
 19 21  1  0  0  0  0
  1 22  1  0  0  0  0
  1 23  1  0  0  0  0
  2 24  1  0  0  0  0
  3 25  1  0  0  0  0
  7 26  1  0  0  0  0
 10 27  1  0  0  0  0
 11 28  1  0  0  0  0
 12 29  1  0  0  0  0
 17 30  1  0  0  0  0
 18 31  1  0  0  0  0
 20 32  1  0  0  0  0
 21 33  1  0  0  0  0
M  END
$$$$
