C20H20O7
APtclcactv06291802513D 0   0.00000     0.00000
 
 47 49  0  0  0  0  0  0  0  0999 V2000
   -2.9617   -2.3022   -2.9181 C   0  0  0  0  0  0  0  0  0  0  0  0
   -2.2636   -1.5451   -1.9275 O   0  0  0  0  0  0  0  0  0  0  0  0
   -2.9841   -1.1127   -0.8613 C   0  0  0  0  0  0  0  0  0  0  0  0
   -2.3645   -0.3640    0.1498 C   0  0  0  0  0  0  0  0  0  0  0  0
   -3.1204    0.0765    1.2459 C   0  0  0  0  0  0  0  0  0  0  0  0
   -4.4687   -0.2313    1.3194 C   0  0  0  0  0  0  0  0  0  0  0  0
   -5.0699   -0.9702    0.3169 C   0  0  0  0  0  0  0  0  0  0  0  0
   -4.3350   -1.4045   -0.7710 C   0  0  0  0  0  0  0  0  0  0  0  0
   -2.5324    0.8015    2.2315 O   0  0  0  0  0  0  0  0  0  0  0  0
   -3.3647    1.2159    3.3167 C   0  0  0  0  0  0  0  0  0  0  0  0
   -0.9304   -0.0432    0.0615 C   0  0  0  0  0  0  0  0  0  0  0  0
   -0.5561    1.2290   -0.2981 C   0  0  0  0  0  0  0  0  0  0  0  0
    0.8215    1.5491   -0.3863 C   0  0  0  0  0  0  0  0  0  0  0  0
    1.1931    2.6684   -0.7023 O   0  0  0  0  0  0  0  0  0  0  0  0
    1.7873    0.4808   -0.0820 C   0  0  0  0  0  0  0  0  0  0  0  0
    3.1675    0.7124   -0.1446 C   0  0  0  0  0  0  0  0  0  0  0  0
    4.0448   -0.3152    0.1485 C   0  0  0  0  0  0  0  0  0  0  0  0
    3.5587   -1.5689    0.5026 C   0  0  0  0  0  0  0  0  0  0  0  0
    2.1944   -1.8054    0.5666 C   0  0  0  0  0  0  0  0  0  0  0  0
    1.2986   -0.7875    0.2763 C   0  0  0  0  0  0  0  0  0  0  0  0
   -0.0321   -1.0033    0.3407 O   0  0  0  0  0  0  0  0  0  0  0  0
    4.4288   -2.5712    0.7880 O   0  0  0  0  0  0  0  0  0  0  0  0
    5.8220   -2.2646    0.7037 C   0  0  0  0  0  0  0  0  0  0  0  0
    3.6401    1.9366   -0.4909 O   0  0  0  0  0  0  0  0  0  0  0  0
    5.0596    2.0960   -0.5328 C   0  0  0  0  0  0  0  0  0  0  0  0
   -1.4995    2.1727   -0.5675 O   0  0  0  0  0  0  0  0  0  0  0  0
   -1.5759    2.6481   -1.9130 C   0  0  0  0  0  0  0  0  0  0  0  0
   -2.2712   -2.5847   -3.7129 H   0  0  0  0  0  0  0  0  0  0  0  0
   -3.3780   -3.2006   -2.4623 H   0  0  0  0  0  0  0  0  0  0  0  0
   -3.7682   -1.6991   -3.3349 H   0  0  0  0  0  0  0  0  0  0  0  0
   -5.0526    0.1066    2.1628 H   0  0  0  0  0  0  0  0  0  0  0  0
   -6.1218   -1.2061    0.3821 H   0  0  0  0  0  0  0  0  0  0  0  0
   -4.8141   -1.9810   -1.5485 H   0  0  0  0  0  0  0  0  0  0  0  0
   -4.1735    1.8400    2.9365 H   0  0  0  0  0  0  0  0  0  0  0  0
   -3.7837    0.3382    3.8089 H   0  0  0  0  0  0  0  0  0  0  0  0
   -2.7719    1.7855    4.0323 H   0  0  0  0  0  0  0  0  0  0  0  0
    5.1101   -0.1438    0.1019 H   0  0  0  0  0  0  0  0  0  0  0  0
    1.8287   -2.7834    0.8425 H   0  0  0  0  0  0  0  0  0  0  0  0
    6.0634   -1.9471   -0.3107 H   0  0  0  0  0  0  0  0  0  0  0  0
    6.0603   -1.4622    1.4019 H   0  0  0  0  0  0  0  0  0  0  0  0
    6.4049   -3.1505    0.9557 H   0  0  0  0  0  0  0  0  0  0  0  0
    5.4778    1.8885    0.4521 H   0  0  0  0  0  0  0  0  0  0  0  0
    5.4817    1.4026   -1.2603 H   0  0  0  0  0  0  0  0  0  0  0  0
    5.3020    3.1185   -0.8224 H   0  0  0  0  0  0  0  0  0  0  0  0
   -0.5992    3.0197   -2.2230 H   0  0  0  0  0  0  0  0  0  0  0  0
   -1.8797    1.8329   -2.5697 H   0  0  0  0  0  0  0  0  0  0  0  0
   -2.3070    3.4543   -1.9725 H   0  0  0  0  0  0  0  0  0  0  0  0
  1  2  1  0  0  0  0
  2  3  1  0  0  0  0
  3  4  2  0  0  0  0
  4  5  1  0  0  0  0
  5  6  2  0  0  0  0
  6  7  1  0  0  0  0
  7  8  2  0  0  0  0
  3  8  1  0  0  0  0
  5  9  1  0  0  0  0
  9 10  1  0  0  0  0
  4 11  1  0  0  0  0
 11 12  2  0  0  0  0
 12 13  1  0  0  0  0
 13 14  2  0  0  0  0
 13 15  1  0  0  0  0
 15 16  2  0  0  0  0
 16 17  1  0  0  0  0
 17 18  2  0  0  0  0
 18 19  1  0  0  0  0
 19 20  2  0  0  0  0
 15 20  1  0  0  0  0
 20 21  1  0  0  0  0
 11 21  1  0  0  0  0
 18 22  1  0  0  0  0
 22 23  1  0  0  0  0
 16 24  1  0  0  0  0
 24 25  1  0  0  0  0
 12 26  1  0  0  0  0
 26 27  1  0  0  0  0
  1 28  1  0  0  0  0
  1 29  1  0  0  0  0
  1 30  1  0  0  0  0
  6 31  1  0  0  0  0
  7 32  1  0  0  0  0
  8 33  1  0  0  0  0
 10 34  1  0  0  0  0
 10 35  1  0  0  0  0
 10 36  1  0  0  0  0
 17 37  1  0  0  0  0
 19 38  1  0  0  0  0
 23 39  1  0  0  0  0
 23 40  1  0  0  0  0
 23 41  1  0  0  0  0
 25 42  1  0  0  0  0
 25 43  1  0  0  0  0
 25 44  1  0  0  0  0
 27 45  1  0  0  0  0
 27 46  1  0  0  0  0
 27 47  1  0  0  0  0
M  END
$$$$
