C20H18O6
APtclcactv06291802493D 0   0.00000     0.00000
 
 44 46  0  0  0  0  0  0  0  0999 V2000
    5.1488   -2.7486   -0.9907 C   0  0  0  0  0  0  0  0  0  0  0  0
    5.1888   -2.0923    0.3653 C   0  0  0  0  0  0  0  0  0  0  0  0
    4.9244   -0.8146    0.4826 C   0  0  0  0  0  0  0  0  0  0  0  0
    4.4588   -0.0284   -0.7157 C   0  0  0  0  0  0  0  0  0  0  0  0
    3.1692    0.6771   -0.3834 C   0  0  0  0  0  0  0  0  0  0  0  0
    3.1972    1.9588    0.1554 C   0  0  0  0  0  0  0  0  0  0  0  0
    2.0213    2.6245    0.4631 C   0  0  0  0  0  0  0  0  0  0  0  0
    0.7954    2.0146    0.2365 C   0  0  0  0  0  0  0  0  0  0  0  0
    0.7678    0.7142   -0.2996 C   0  0  0  0  0  0  0  0  0  0  0  0
    1.9586    0.0517   -0.6199 C   0  0  0  0  0  0  0  0  0  0  0  0
    1.9257   -1.1975   -1.1488 O   0  0  0  0  0  0  0  0  0  0  0  0
   -0.5444    0.0786   -0.5085 C   0  0  0  0  0  0  0  0  0  0  0  0
   -0.6732   -0.9414   -1.1638 O   0  0  0  0  0  0  0  0  0  0  0  0
   -1.6940    0.7540    0.1257 C   0  0  0  0  0  0  0  0  0  0  0  0
   -1.5110    2.0101    0.6077 C   0  0  0  0  0  0  0  0  0  0  0  0
   -0.3512    2.6620    0.5190 O   0  0  0  0  0  0  0  0  0  0  0  0
   -3.0109    0.0799    0.2326 C   0  0  0  0  0  0  0  0  0  0  0  0
   -4.1129    0.5883   -0.4526 C   0  0  0  0  0  0  0  0  0  0  0  0
   -5.3394   -0.0436   -0.3506 C   0  0  0  0  0  0  0  0  0  0  0  0
   -5.4707   -1.1851    0.4357 C   0  0  0  0  0  0  0  0  0  0  0  0
   -4.3740   -1.6898    1.1173 C   0  0  0  0  0  0  0  0  0  0  0  0
   -3.1470   -1.0661    1.0140 C   0  0  0  0  0  0  0  0  0  0  0  0
   -6.6767   -1.8058    0.5355 O   0  0  0  0  0  0  0  0  0  0  0  0
   -6.4167    0.4504   -1.0177 O   0  0  0  0  0  0  0  0  0  0  0  0
    4.3903    2.5648    0.3830 O   0  0  0  0  0  0  0  0  0  0  0  0
    5.5330   -2.9058    1.5863 C   0  0  0  0  0  0  0  0  0  0  0  0
    5.8067   -2.2114   -1.6739 H   0  0  0  0  0  0  0  0  0  0  0  0
    5.4818   -3.7829   -0.9037 H   0  0  0  0  0  0  0  0  0  0  0  0
    4.1292   -2.7263   -1.3752 H   0  0  0  0  0  0  0  0  0  0  0  0
    5.0401   -0.3248    1.4382 H   0  0  0  0  0  0  0  0  0  0  0  0
    5.2167    0.7075   -0.9843 H   0  0  0  0  0  0  0  0  0  0  0  0
    4.2968   -0.7058   -1.5541 H   0  0  0  0  0  0  0  0  0  0  0  0
    2.0590    3.6198    0.8805 H   0  0  0  0  0  0  0  0  0  0  0  0
    1.8893   -1.2147   -2.1150 H   0  0  0  0  0  0  0  0  0  0  0  0
   -2.3439    2.5043    1.0855 H   0  0  0  0  0  0  0  0  0  0  0  0
   -4.0096    1.4741   -1.0618 H   0  0  0  0  0  0  0  0  0  0  0  0
   -4.4790   -2.5751    1.7270 H   0  0  0  0  0  0  0  0  0  0  0  0
   -2.2940   -1.4614    1.5457 H   0  0  0  0  0  0  0  0  0  0  0  0
   -6.8241   -2.4887   -0.1330 H   0  0  0  0  0  0  0  0  0  0  0  0
   -6.5270    0.0900   -1.9082 H   0  0  0  0  0  0  0  0  0  0  0  0
    4.7173    3.0830   -0.3651 H   0  0  0  0  0  0  0  0  0  0  0  0
    6.6111   -2.8835    1.7456 H   0  0  0  0  0  0  0  0  0  0  0  0
    5.0284   -2.4861    2.4566 H   0  0  0  0  0  0  0  0  0  0  0  0
    5.2086   -3.9360    1.4398 H   0  0  0  0  0  0  0  0  0  0  0  0
  1  2  1  0  0  0  0
  2  3  2  0  0  0  0
  3  4  1  0  0  0  0
  4  5  1  0  0  0  0
  5  6  2  0  0  0  0
  6  7  1  0  0  0  0
  7  8  2  0  0  0  0
  8  9  1  0  0  0  0
  9 10  2  0  0  0  0
  5 10  1  0  0  0  0
 10 11  1  0  0  0  0
  9 12  1  0  0  0  0
 12 13  2  0  0  0  0
 12 14  1  0  0  0  0
 14 15  2  0  0  0  0
 15 16  1  0  0  0  0
  8 16  1  0  0  0  0
 14 17  1  0  0  0  0
 17 18  2  0  0  0  0
 18 19  1  0  0  0  0
 19 20  2  0  0  0  0
 20 21  1  0  0  0  0
 21 22  2  0  0  0  0
 17 22  1  0  0  0  0
 20 23  1  0  0  0  0
 19 24  1  0  0  0  0
  6 25  1  0  0  0  0
  2 26  1  0  0  0  0
  1 27  1  0  0  0  0
  1 28  1  0  0  0  0
  1 29  1  0  0  0  0
  3 30  1  0  0  0  0
  4 31  1  0  0  0  0
  4 32  1  0  0  0  0
  7 33  1  0  0  0  0
 11 34  1  0  0  0  0
 15 35  1  0  0  0  0
 18 36  1  0  0  0  0
 21 37  1  0  0  0  0
 22 38  1  0  0  0  0
 23 39  1  0  0  0  0
 24 40  1  0  0  0  0
 25 41  1  0  0  0  0
 26 42  1  0  0  0  0
 26 43  1  0  0  0  0
 26 44  1  0  0  0  0
M  END
$$$$
