C19H18O9
APtclcactv06291802503D 0   0.00000     0.00000
 
 46 48  0  0  0  0  0  0  0  0999 V2000
    3.5489    3.1448   -1.6703 C   0  0  0  0  0  0  0  0  0  0  0  0
    4.3734    2.2724   -0.8949 O   0  0  0  0  0  0  0  0  0  0  0  0
    3.7566    1.2344   -0.2690 C   0  0  0  0  0  0  0  0  0  0  0  0
    2.3911    1.0623   -0.3997 C   0  0  0  0  0  0  0  0  0  0  0  0
    1.7579   -0.0048    0.2439 C   0  0  0  0  0  0  0  0  0  0  0  0
    2.5077   -0.8946    1.0177 C   0  0  0  0  0  0  0  0  0  0  0  0
    3.8733   -0.7171    1.1446 C   0  0  0  0  0  0  0  0  0  0  0  0
    4.5017    0.3430    0.4980 C   0  0  0  0  0  0  0  0  0  0  0  0
    5.8447    0.5147    0.6243 O   0  0  0  0  0  0  0  0  0  0  0  0
    6.6756   -0.1392   -0.3370 C   0  0  0  0  0  0  0  0  0  0  0  0
    4.6036   -1.5824    1.8979 O   0  0  0  0  0  0  0  0  0  0  0  0
    0.3016   -0.1909    0.1069 C   0  0  0  0  0  0  0  0  0  0  0  0
   -0.1761   -1.4319   -0.1911 C   0  0  0  0  0  0  0  0  0  0  0  0
   -1.5747   -1.6277   -0.3258 C   0  0  0  0  0  0  0  0  0  0  0  0
   -2.0386   -2.7251   -0.5918 O   0  0  0  0  0  0  0  0  0  0  0  0
   -2.4446   -0.4566   -0.1319 C   0  0  0  0  0  0  0  0  0  0  0  0
   -3.8365   -0.5595   -0.2457 C   0  0  0  0  0  0  0  0  0  0  0  0
   -4.6213    0.5663   -0.0554 C   0  0  0  0  0  0  0  0  0  0  0  0
   -4.0264    1.7899    0.2466 C   0  0  0  0  0  0  0  0  0  0  0  0
   -2.6494    1.8961    0.3600 C   0  0  0  0  0  0  0  0  0  0  0  0
   -1.8483    0.7801    0.1730 C   0  0  0  0  0  0  0  0  0  0  0  0
   -0.5058    0.8684    0.2861 O   0  0  0  0  0  0  0  0  0  0  0  0
   -4.8035    2.8887    0.4310 O   0  0  0  0  0  0  0  0  0  0  0  0
   -5.9756    0.4773   -0.1642 O   0  0  0  0  0  0  0  0  0  0  0  0
   -6.7030    0.1677    1.0262 C   0  0  0  0  0  0  0  0  0  0  0  0
   -4.4127   -1.7537   -0.5406 O   0  0  0  0  0  0  0  0  0  0  0  0
    0.6818   -2.4750   -0.3587 O   0  0  0  0  0  0  0  0  0  0  0  0
    0.7653   -3.0425   -1.6676 C   0  0  0  0  0  0  0  0  0  0  0  0
    4.1644    3.9273   -2.1141 H   0  0  0  0  0  0  0  0  0  0  0  0
    3.0596    2.5753   -2.4605 H   0  0  0  0  0  0  0  0  0  0  0  0
    2.7937    3.5974   -1.0276 H   0  0  0  0  0  0  0  0  0  0  0  0
    1.8141    1.7518   -0.9982 H   0  0  0  0  0  0  0  0  0  0  0  0
    2.0212   -1.7198    1.5164 H   0  0  0  0  0  0  0  0  0  0  0  0
    6.5119   -1.2157   -0.2863 H   0  0  0  0  0  0  0  0  0  0  0  0
    6.4271    0.2195   -1.3359 H   0  0  0  0  0  0  0  0  0  0  0  0
    7.7215    0.0797   -0.1220 H   0  0  0  0  0  0  0  0  0  0  0  0
    4.9468   -2.3401    1.4049 H   0  0  0  0  0  0  0  0  0  0  0  0
   -2.1996    2.8496    0.5945 H   0  0  0  0  0  0  0  0  0  0  0  0
   -5.0855    3.0218    1.3464 H   0  0  0  0  0  0  0  0  0  0  0  0
   -6.5193    0.9382    1.7750 H   0  0  0  0  0  0  0  0  0  0  0  0
   -7.7686    0.1270    0.8006 H   0  0  0  0  0  0  0  0  0  0  0  0
   -6.3760   -0.7982    1.4111 H   0  0  0  0  0  0  0  0  0  0  0  0
   -4.6362   -2.2850    0.2358 H   0  0  0  0  0  0  0  0  0  0  0  0
    1.1728   -2.3043   -2.3583 H   0  0  0  0  0  0  0  0  0  0  0  0
    1.4165   -3.9162   -1.6439 H   0  0  0  0  0  0  0  0  0  0  0  0
   -0.2297   -3.3397   -1.9988 H   0  0  0  0  0  0  0  0  0  0  0  0
  1  2  1  0  0  0  0
  2  3  1  0  0  0  0
  3  4  2  0  0  0  0
  4  5  1  0  0  0  0
  5  6  2  0  0  0  0
  6  7  1  0  0  0  0
  7  8  2  0  0  0  0
  3  8  1  0  0  0  0
  8  9  1  0  0  0  0
  9 10  1  0  0  0  0
  7 11  1  0  0  0  0
  5 12  1  0  0  0  0
 12 13  2  0  0  0  0
 13 14  1  0  0  0  0
 14 15  2  0  0  0  0
 14 16  1  0  0  0  0
 16 17  2  0  0  0  0
 17 18  1  0  0  0  0
 18 19  2  0  0  0  0
 19 20  1  0  0  0  0
 20 21  2  0  0  0  0
 16 21  1  0  0  0  0
 21 22  1  0  0  0  0
 12 22  1  0  0  0  0
 19 23  1  0  0  0  0
 18 24  1  0  0  0  0
 24 25  1  0  0  0  0
 17 26  1  0  0  0  0
 13 27  1  0  0  0  0
 27 28  1  0  0  0  0
  1 29  1  0  0  0  0
  1 30  1  0  0  0  0
  1 31  1  0  0  0  0
  4 32  1  0  0  0  0
  6 33  1  0  0  0  0
 10 34  1  0  0  0  0
 10 35  1  0  0  0  0
 10 36  1  0  0  0  0
 11 37  1  0  0  0  0
 20 38  1  0  0  0  0
 23 39  1  0  0  0  0
 25 40  1  0  0  0  0
 25 41  1  0  0  0  0
 25 42  1  0  0  0  0
 26 43  1  0  0  0  0
 28 44  1  0  0  0  0
 28 45  1  0  0  0  0
 28 46  1  0  0  0  0
M  END
$$$$
