C16H12O16S3
APtclcactv06291802513D 0   0.00000     0.00000
 
 47 49  0  0  0  0  0  0  0  0999 V2000
    5.4418    4.5066   -0.8262 C   0  0  0  0  0  0  0  0  0  0  0  0
    4.0179    4.3889   -0.7979 O   0  0  0  0  0  0  0  0  0  0  0  0
    3.5057    3.1422   -0.6356 C   0  0  0  0  0  0  0  0  0  0  0  0
    4.3648    2.0563   -0.5065 C   0  0  0  0  0  0  0  0  0  0  0  0
    3.8541    0.7824   -0.3403 C   0  0  0  0  0  0  0  0  0  0  0  0
    2.4663    0.5948   -0.3030 C   0  0  0  0  0  0  0  0  0  0  0  0
    1.5999    1.6945   -0.4338 C   0  0  0  0  0  0  0  0  0  0  0  0
    2.1314    2.9649   -0.5944 C   0  0  0  0  0  0  0  0  0  0  0  0
    0.2643    1.5051   -0.3977 O   0  0  0  0  0  0  0  0  0  0  0  0
   -0.2850    0.2887   -0.2394 C   0  0  0  0  0  0  0  0  0  0  0  0
    0.4658   -0.8402   -0.1035 C   0  0  0  0  0  0  0  0  0  0  0  0
    1.8813   -0.7442   -0.1284 C   0  0  0  0  0  0  0  0  0  0  0  0
    2.5863   -1.7337   -0.0100 O   0  0  0  0  0  0  0  0  0  0  0  0
   -0.1370   -2.0500    0.0550 O   0  0  0  0  0  0  0  0  0  0  0  0
    0.1405   -3.0324   -1.0739 S   0  0  0  0  0  0  0  0  0  0  0  0
   -0.8023   -4.0858   -0.9299 O   0  0  0  0  0  0  0  0  0  0  0  0
    0.2654   -2.2577   -2.2585 O   0  0  0  0  0  0  0  0  0  0  0  0
    1.5101   -3.6430   -0.8132 O   0  0  0  0  0  0  0  0  0  0  0  0
   -1.7546    0.1715   -0.2113 C   0  0  0  0  0  0  0  0  0  0  0  0
   -2.3924   -0.3776    0.9047 C   0  0  0  0  0  0  0  0  0  0  0  0
   -3.7699   -0.4846    0.9260 C   0  0  0  0  0  0  0  0  0  0  0  0
   -4.5200   -0.0460   -0.1637 C   0  0  0  0  0  0  0  0  0  0  0  0
   -3.8869    0.4988   -1.2722 C   0  0  0  0  0  0  0  0  0  0  0  0
   -2.5136    0.6145   -1.2981 C   0  0  0  0  0  0  0  0  0  0  0  0
   -5.8744   -0.1525   -0.1410 O   0  0  0  0  0  0  0  0  0  0  0  0
   -6.5813    1.0636    0.4401 S   0  0  0  0  0  0  0  0  0  0  0  0
   -7.9502    0.7064    0.5733 O   0  0  0  0  0  0  0  0  0  0  0  0
   -5.7846    1.5084    1.5295 O   0  0  0  0  0  0  0  0  0  0  0  0
   -6.5244    2.1629   -0.6110 O   0  0  0  0  0  0  0  0  0  0  0  0
   -4.3937   -1.0183    2.0102 O   0  0  0  0  0  0  0  0  0  0  0  0
    4.6910   -0.2786   -0.2146 O   0  0  0  0  0  0  0  0  0  0  0  0
    5.0866   -0.5882    1.2221 S   0  0  0  0  0  0  0  0  0  0  0  0
    6.1042   -1.5777    1.1538 O   0  0  0  0  0  0  0  0  0  0  0  0
    5.2632    0.6649    1.8686 O   0  0  0  0  0  0  0  0  0  0  0  0
    3.8879   -1.2496    1.8870 O   0  0  0  0  0  0  0  0  0  0  0  0
    5.7172    5.5526   -0.9610 H   0  0  0  0  0  0  0  0  0  0  0  0
    5.8554    4.1401    0.1133 H   0  0  0  0  0  0  0  0  0  0  0  0
    5.8388    3.9170   -1.6526 H   0  0  0  0  0  0  0  0  0  0  0  0
    5.4336    2.2086   -0.5365 H   0  0  0  0  0  0  0  0  0  0  0  0
    1.4743    3.8159   -0.6957 H   0  0  0  0  0  0  0  0  0  0  0  0
    1.7551   -4.3401   -1.4370 H   0  0  0  0  0  0  0  0  0  0  0  0
   -1.8100   -0.7177    1.7482 H   0  0  0  0  0  0  0  0  0  0  0  0
   -4.4720    0.8367   -2.1147 H   0  0  0  0  0  0  0  0  0  0  0  0
   -2.0236    1.0392   -2.1617 H   0  0  0  0  0  0  0  0  0  0  0  0
   -6.9495    2.9882   -0.3404 H   0  0  0  0  0  0  0  0  0  0  0  0
   -4.6310   -0.3692    2.6866 H   0  0  0  0  0  0  0  0  0  0  0  0
    4.0341   -1.4897    2.8122 H   0  0  0  0  0  0  0  0  0  0  0  0
  1  2  1  0  0  0  0
  2  3  1  0  0  0  0
  3  4  2  0  0  0  0
  4  5  1  0  0  0  0
  5  6  2  0  0  0  0
  6  7  1  0  0  0  0
  7  8  2  0  0  0  0
  3  8  1  0  0  0  0
  7  9  1  0  0  0  0
  9 10  1  0  0  0  0
 10 11  2  0  0  0  0
 11 12  1  0  0  0  0
  6 12  1  0  0  0  0
 12 13  2  0  0  0  0
 11 14  1  0  0  0  0
 14 15  1  0  0  0  0
 15 16  2  0  0  0  0
 15 17  2  0  0  0  0
 15 18  1  0  0  0  0
 10 19  1  0  0  0  0
 19 20  2  0  0  0  0
 20 21  1  0  0  0  0
 21 22  2  0  0  0  0
 22 23  1  0  0  0  0
 23 24  2  0  0  0  0
 19 24  1  0  0  0  0
 22 25  1  0  0  0  0
 25 26  1  0  0  0  0
 26 27  2  0  0  0  0
 26 28  2  0  0  0  0
 26 29  1  0  0  0  0
 21 30  1  0  0  0  0
  5 31  1  0  0  0  0
 31 32  1  0  0  0  0
 32 33  2  0  0  0  0
 32 34  2  0  0  0  0
 32 35  1  0  0  0  0
  1 36  1  0  0  0  0
  1 37  1  0  0  0  0
  1 38  1  0  0  0  0
  4 39  1  0  0  0  0
  8 40  1  0  0  0  0
 18 41  1  0  0  0  0
 20 42  1  0  0  0  0
 23 43  1  0  0  0  0
 24 44  1  0  0  0  0
 29 45  1  0  0  0  0
 30 46  1  0  0  0  0
 35 47  1  0  0  0  0
M  END
$$$$
