C20H20O5
APtclcactv06291802503D 0   0.00000     0.00000
 
 45 48  0  0  0  0  0  0  0  0999 V2000
    3.6163   -2.8862   -0.9525 C   0  0  0  0  0  0  0  0  0  0  0  0
    3.8959   -2.2827    0.3998 C   0  0  0  0  0  0  0  0  0  0  0  0
    3.9607   -0.9814    0.5356 C   0  0  0  0  0  0  0  0  0  0  0  0
    3.7556   -0.0878   -0.6605 C   0  0  0  0  0  0  0  0  0  0  0  0
    2.6556    0.8996   -0.3671 C   0  0  0  0  0  0  0  0  0  0  0  0
    2.9611    2.1238    0.2050 C   0  0  0  0  0  0  0  0  0  0  0  0
    1.9568    3.0414    0.4803 C   0  0  0  0  0  0  0  0  0  0  0  0
    0.6403    2.7264    0.1888 C   0  0  0  0  0  0  0  0  0  0  0  0
    0.3375    1.5129   -0.3693 C   0  0  0  0  0  0  0  0  0  0  0  0
    1.3419    0.5825   -0.6758 C   0  0  0  0  0  0  0  0  0  0  0  0
    1.0393   -0.5932   -1.2771 O   0  0  0  0  0  0  0  0  0  0  0  0
   -0.2288   -1.2358   -1.0953 C   0  0  0  0  0  0  0  0  0  0  0  0
   -1.0638   -0.4206   -0.1402 C   0  0  0  0  0  0  0  0  0  0  0  0
   -1.0485    1.0550   -0.6824 C   0  0  0  0  0  0  0  0  0  0  0  0
   -2.1361    1.6059    0.0494 O   0  0  0  0  0  0  0  0  0  0  0  0
   -3.0969    0.6385    0.0821 C   0  0  0  0  0  0  0  0  0  0  0  0
   -2.5256   -0.6501   -0.0495 C   0  0  0  0  0  0  0  0  0  0  0  0
   -3.3009   -1.7887   -0.0650 C   0  0  0  0  0  0  0  0  0  0  0  0
   -4.6742   -1.6282    0.0663 C   0  0  0  0  0  0  0  0  0  0  0  0
   -5.2436   -0.3736    0.2074 C   0  0  0  0  0  0  0  0  0  0  0  0
   -4.4719    0.7846    0.2189 C   0  0  0  0  0  0  0  0  0  0  0  0
   -6.5922   -0.2696    0.3381 O   0  0  0  0  0  0  0  0  0  0  0  0
   -0.4854   -0.4644    1.1658 O   0  0  0  0  0  0  0  0  0  0  0  0
    4.2525    2.4281    0.4991 O   0  0  0  0  0  0  0  0  0  0  0  0
    4.1010   -3.1762    1.5959 C   0  0  0  0  0  0  0  0  0  0  0  0
    4.3965   -2.5870   -1.6523 H   0  0  0  0  0  0  0  0  0  0  0  0
    3.6003   -3.9729   -0.8691 H   0  0  0  0  0  0  0  0  0  0  0  0
    2.6497   -2.5353   -1.3141 H   0  0  0  0  0  0  0  0  0  0  0  0
    4.1611   -0.5489    1.5047 H   0  0  0  0  0  0  0  0  0  0  0  0
    4.6791    0.4500   -0.8748 H   0  0  0  0  0  0  0  0  0  0  0  0
    3.4793   -0.6937   -1.5235 H   0  0  0  0  0  0  0  0  0  0  0  0
    2.2010    3.9970    0.9203 H   0  0  0  0  0  0  0  0  0  0  0  0
   -0.1459    3.4358    0.4014 H   0  0  0  0  0  0  0  0  0  0  0  0
   -0.7406   -1.3097   -2.0548 H   0  0  0  0  0  0  0  0  0  0  0  0
   -0.0760   -2.2339   -0.6849 H   0  0  0  0  0  0  0  0  0  0  0  0
   -1.2375    1.0824   -1.7555 H   0  0  0  0  0  0  0  0  0  0  0  0
   -2.8583   -2.7676   -0.1751 H   0  0  0  0  0  0  0  0  0  0  0  0
   -5.3115   -2.5001    0.0578 H   0  0  0  0  0  0  0  0  0  0  0  0
   -4.9245    1.7589    0.3294 H   0  0  0  0  0  0  0  0  0  0  0  0
   -6.9023   -0.3018    1.2535 H   0  0  0  0  0  0  0  0  0  0  0  0
   -0.4097   -1.3559    1.5327 H   0  0  0  0  0  0  0  0  0  0  0  0
    4.7268    2.8670   -0.2203 H   0  0  0  0  0  0  0  0  0  0  0  0
    5.1590   -3.4215    1.6890 H   0  0  0  0  0  0  0  0  0  0  0  0
    3.7669   -2.6605    2.4962 H   0  0  0  0  0  0  0  0  0  0  0  0
    3.5254   -4.0929    1.4675 H   0  0  0  0  0  0  0  0  0  0  0  0
  1  2  1  0  0  0  0
  2  3  2  0  0  0  0
  3  4  1  0  0  0  0
  4  5  1  0  0  0  0
  5  6  2  0  0  0  0
  6  7  1  0  0  0  0
  7  8  2  0  0  0  0
  8  9  1  0  0  0  0
  9 10  2  0  0  0  0
  5 10  1  0  0  0  0
 10 11  1  0  0  0  0
 11 12  1  0  0  0  0
 12 13  1  0  0  0  0
 13 14  1  0  0  0  0
  9 14  1  0  0  0  0
 14 15  1  0  0  0  0
 15 16  1  0  0  0  0
 16 17  2  0  0  0  0
 13 17  1  0  0  0  0
 17 18  1  0  0  0  0
 18 19  2  0  0  0  0
 19 20  1  0  0  0  0
 20 21  2  0  0  0  0
 16 21  1  0  0  0  0
 20 22  1  0  0  0  0
 13 23  1  0  0  0  0
  6 24  1  0  0  0  0
  2 25  1  0  0  0  0
  1 26  1  0  0  0  0
  1 27  1  0  0  0  0
  1 28  1  0  0  0  0
  3 29  1  0  0  0  0
  4 30  1  0  0  0  0
  4 31  1  0  0  0  0
  7 32  1  0  0  0  0
  8 33  1  0  0  0  0
 12 34  1  0  0  0  0
 12 35  1  0  0  0  0
 14 36  1  0  0  0  0
 18 37  1  0  0  0  0
 19 38  1  0  0  0  0
 21 39  1  0  0  0  0
 22 40  1  0  0  0  0
 23 41  1  0  0  0  0
 24 42  1  0  0  0  0
 25 43  1  0  0  0  0
 25 44  1  0  0  0  0
 25 45  1  0  0  0  0
M  END
$$$$
