C25H24O7
APtclcactv06291802513D 0   0.00000     0.00000
 
 56 60  0  0  0  0  0  0  0  0999 V2000
   -6.3980    2.3252    0.4843 C   0  0  0  0  0  0  0  0  0  0  0  0
   -5.3792    2.7368   -0.5471 C   0  0  0  0  0  0  0  0  0  0  0  0
   -4.1015    2.5793   -0.3050 C   0  0  0  0  0  0  0  0  0  0  0  0
   -3.6536    1.8728    0.9485 C   0  0  0  0  0  0  0  0  0  0  0  0
   -2.7307    0.7387    0.5835 C   0  0  0  0  0  0  0  0  0  0  0  0
   -1.3661    0.9953    0.5056 C   0  0  0  0  0  0  0  0  0  0  0  0
   -0.4964   -0.0333    0.1532 C   0  0  0  0  0  0  0  0  0  0  0  0
   -1.0804   -1.2576   -0.1736 C   0  0  0  0  0  0  0  0  0  0  0  0
   -0.3494   -2.4863   -0.6591 C   0  0  0  0  0  0  0  0  0  0  0  0
    0.9449   -2.5435    0.1486 C   0  0  0  0  0  0  0  0  0  0  0  0
    1.6423   -1.2015    0.1092 C   0  0  0  0  0  0  0  0  0  0  0  0
    0.9739   -0.0065    0.1399 C   0  0  0  0  0  0  0  0  0  0  0  0
    1.6078    1.1764    0.1628 O   0  0  0  0  0  0  0  0  0  0  0  0
    2.9442    1.2748    0.0383 C   0  0  0  0  0  0  0  0  0  0  0  0
    3.5590    2.5163   -0.0282 C   0  0  0  0  0  0  0  0  0  0  0  0
    4.9369    2.6041   -0.1505 C   0  0  0  0  0  0  0  0  0  0  0  0
    5.7180    1.4556   -0.2063 C   0  0  0  0  0  0  0  0  0  0  0  0
    5.1237    0.2085   -0.1423 C   0  0  0  0  0  0  0  0  0  0  0  0
    3.7317    0.1128   -0.0260 C   0  0  0  0  0  0  0  0  0  0  0  0
    3.0565   -1.1933    0.0300 C   0  0  0  0  0  0  0  0  0  0  0  0
    3.6935   -2.2344    0.0093 O   0  0  0  0  0  0  0  0  0  0  0  0
    5.8841   -0.9145   -0.1932 O   0  0  0  0  0  0  0  0  0  0  0  0
    5.5294    3.8238   -0.2170 O   0  0  0  0  0  0  0  0  0  0  0  0
   -1.3676   -3.5731   -0.2589 C   0  0  0  0  0  0  0  0  0  0  0  0
   -2.6321   -2.8604   -0.3022 O   0  0  0  0  0  0  0  0  0  0  0  0
   -2.4185   -1.5567   -0.0285 C   0  0  0  0  0  0  0  0  0  0  0  0
   -3.2861   -0.5180    0.3457 C   0  0  0  0  0  0  0  0  0  0  0  0
   -4.6222   -0.7297    0.4689 O   0  0  0  0  0  0  0  0  0  0  0  0
   -1.3585   -4.7226   -1.2685 C   0  0  0  0  0  0  0  0  0  0  0  0
   -1.0837   -4.0880    1.1536 C   0  0  0  0  0  0  0  0  0  0  0  0
   -0.8864    2.2377    0.7703 O   0  0  0  0  0  0  0  0  0  0  0  0
   -5.8304    3.3297   -1.8571 C   0  0  0  0  0  0  0  0  0  0  0  0
   -6.1778    2.8201    1.4301 H   0  0  0  0  0  0  0  0  0  0  0  0
   -7.3936    2.6130    0.1467 H   0  0  0  0  0  0  0  0  0  0  0  0
   -6.3593    1.2446    0.6220 H   0  0  0  0  0  0  0  0  0  0  0  0
   -3.3690    2.9557   -1.0037 H   0  0  0  0  0  0  0  0  0  0  0  0
   -3.1273    2.5762    1.5937 H   0  0  0  0  0  0  0  0  0  0  0  0
   -4.5235    1.4786    1.4739 H   0  0  0  0  0  0  0  0  0  0  0  0
   -0.1609   -2.4619   -1.7324 H   0  0  0  0  0  0  0  0  0  0  0  0
    0.7147   -2.8009    1.1825 H   0  0  0  0  0  0  0  0  0  0  0  0
    1.6012   -3.3044   -0.2737 H   0  0  0  0  0  0  0  0  0  0  0  0
    2.9631    3.4160    0.0151 H   0  0  0  0  0  0  0  0  0  0  0  0
    6.7909    1.5373   -0.2993 H   0  0  0  0  0  0  0  0  0  0  0  0
    6.1782   -1.2299    0.6723 H   0  0  0  0  0  0  0  0  0  0  0  0
    5.7785    4.1875    0.6437 H   0  0  0  0  0  0  0  0  0  0  0  0
   -4.8971   -1.0037    1.3546 H   0  0  0  0  0  0  0  0  0  0  0  0
   -0.3641   -5.1678   -1.3032 H   0  0  0  0  0  0  0  0  0  0  0  0
   -2.0842   -5.4776   -0.9662 H   0  0  0  0  0  0  0  0  0  0  0  0
   -1.6205   -4.3414   -2.2555 H   0  0  0  0  0  0  0  0  0  0  0  0
   -1.1534   -3.2626    1.8621 H   0  0  0  0  0  0  0  0  0  0  0  0
   -1.8141   -4.8537    1.4148 H   0  0  0  0  0  0  0  0  0  0  0  0
   -0.0813   -4.5146    1.1902 H   0  0  0  0  0  0  0  0  0  0  0  0
   -0.6582    2.3815    1.6989 H   0  0  0  0  0  0  0  0  0  0  0  0
   -5.9015    4.4131   -1.7603 H   0  0  0  0  0  0  0  0  0  0  0  0
   -5.1096    3.0810   -2.6359 H   0  0  0  0  0  0  0  0  0  0  0  0
   -6.8066    2.9239   -2.1225 H   0  0  0  0  0  0  0  0  0  0  0  0
  1  2  1  0  0  0  0
  2  3  2  0  0  0  0
  3  4  1  0  0  0  0
  4  5  1  0  0  0  0
  5  6  2  0  0  0  0
  6  7  1  0  0  0  0
  7  8  2  0  0  0  0
  8  9  1  0  0  0  0
  9 10  1  0  0  0  0
 10 11  1  0  0  0  0
 11 12  2  0  0  0  0
  7 12  1  0  0  0  0
 12 13  1  0  0  0  0
 13 14  1  0  0  0  0
 14 15  2  0  0  0  0
 15 16  1  0  0  0  0
 16 17  2  0  0  0  0
 17 18  1  0  0  0  0
 18 19  2  0  0  0  0
 14 19  1  0  0  0  0
 19 20  1  0  0  0  0
 11 20  1  0  0  0  0
 20 21  2  0  0  0  0
 18 22  1  0  0  0  0
 16 23  1  0  0  0  0
  9 24  1  0  0  0  0
 24 25  1  0  0  0  0
 25 26  1  0  0  0  0
  8 26  1  0  0  0  0
 26 27  2  0  0  0  0
  5 27  1  0  0  0  0
 27 28  1  0  0  0  0
 24 29  1  0  0  0  0
 24 30  1  0  0  0  0
  6 31  1  0  0  0  0
  2 32  1  0  0  0  0
  1 33  1  0  0  0  0
  1 34  1  0  0  0  0
  1 35  1  0  0  0  0
  3 36  1  0  0  0  0
  4 37  1  0  0  0  0
  4 38  1  0  0  0  0
  9 39  1  0  0  0  0
 10 40  1  0  0  0  0
 10 41  1  0  0  0  0
 15 42  1  0  0  0  0
 17 43  1  0  0  0  0
 22 44  1  0  0  0  0
 23 45  1  0  0  0  0
 28 46  1  0  0  0  0
 29 47  1  0  0  0  0
 29 48  1  0  0  0  0
 29 49  1  0  0  0  0
 30 50  1  0  0  0  0
 30 51  1  0  0  0  0
 30 52  1  0  0  0  0
 31 53  1  0  0  0  0
 32 54  1  0  0  0  0
 32 55  1  0  0  0  0
 32 56  1  0  0  0  0
M  END
$$$$
