C16H12O6
APtclcactv06291802513D 0   0.00000     0.00000
 
 34 36  0  0  0  0  0  0  0  0999 V2000
    5.4909    0.2781   -0.0160 C   0  0  0  0  0  0  0  0  0  0  0  0
    3.9932    0.4445   -0.0254 C   0  0  0  0  0  0  0  0  0  0  0  0
    3.4371    1.7163   -0.1099 C   0  0  0  0  0  0  0  0  0  0  0  0
    2.0614    1.8870   -0.1202 C   0  0  0  0  0  0  0  0  0  0  0  0
    1.2245    0.7843   -0.0455 C   0  0  0  0  0  0  0  0  0  0  0  0
    1.7842   -0.5029    0.0400 C   0  0  0  0  0  0  0  0  0  0  0  0
    3.1753   -0.6680    0.0441 C   0  0  0  0  0  0  0  0  0  0  0  0
    3.7161   -1.9100    0.1266 O   0  0  0  0  0  0  0  0  0  0  0  0
    0.8781   -1.6598    0.1185 C   0  0  0  0  0  0  0  0  0  0  0  0
    1.3095   -2.7992    0.1946 O   0  0  0  0  0  0  0  0  0  0  0  0
   -0.5167   -1.3991    0.1027 C   0  0  0  0  0  0  0  0  0  0  0  0
   -0.9570   -0.1125    0.0171 C   0  0  0  0  0  0  0  0  0  0  0  0
   -0.1166    0.9340   -0.0536 O   0  0  0  0  0  0  0  0  0  0  0  0
   -2.4095    0.1412    0.0019 C   0  0  0  0  0  0  0  0  0  0  0  0
   -2.9580    1.1249    0.8298 C   0  0  0  0  0  0  0  0  0  0  0  0
   -4.3154    1.3587    0.8119 C   0  0  0  0  0  0  0  0  0  0  0  0
   -5.1391    0.6182   -0.0271 C   0  0  0  0  0  0  0  0  0  0  0  0
   -4.5982   -0.3606   -0.8518 C   0  0  0  0  0  0  0  0  0  0  0  0
   -3.2413   -0.5974   -0.8447 C   0  0  0  0  0  0  0  0  0  0  0  0
   -6.4768    0.8515   -0.0407 O   0  0  0  0  0  0  0  0  0  0  0  0
   -1.4073   -2.4258    0.1721 O   0  0  0  0  0  0  0  0  0  0  0  0
    4.2495    2.8015   -0.1824 O   0  0  0  0  0  0  0  0  0  0  0  0
    5.8532    0.3066    1.0117 H   0  0  0  0  0  0  0  0  0  0  0  0
    5.7530   -0.6789   -0.4672 H   0  0  0  0  0  0  0  0  0  0  0  0
    5.9499    1.0862   -0.5855 H   0  0  0  0  0  0  0  0  0  0  0  0
    1.6413    2.8798   -0.1862 H   0  0  0  0  0  0  0  0  0  0  0  0
    3.8683   -2.3304   -0.7308 H   0  0  0  0  0  0  0  0  0  0  0  0
   -2.3186    1.7004    1.4828 H   0  0  0  0  0  0  0  0  0  0  0  0
   -4.7401    2.1185    1.4513 H   0  0  0  0  0  0  0  0  0  0  0  0
   -5.2422   -0.9340   -1.5020 H   0  0  0  0  0  0  0  0  0  0  0  0
   -2.8217   -1.3581   -1.4863 H   0  0  0  0  0  0  0  0  0  0  0  0
   -6.7530    1.5191   -0.6835 H   0  0  0  0  0  0  0  0  0  0  0  0
   -0.9967   -3.2994    0.2299 H   0  0  0  0  0  0  0  0  0  0  0  0
    4.4846    3.0573   -1.0849 H   0  0  0  0  0  0  0  0  0  0  0  0
  1  2  1  0  0  0  0
  2  3  2  0  0  0  0
  3  4  1  0  0  0  0
  4  5  2  0  0  0  0
  5  6  1  0  0  0  0
  6  7  2  0  0  0  0
  2  7  1  0  0  0  0
  7  8  1  0  0  0  0
  6  9  1  0  0  0  0
  9 10  2  0  0  0  0
  9 11  1  0  0  0  0
 11 12  2  0  0  0  0
 12 13  1  0  0  0  0
  5 13  1  0  0  0  0
 12 14  1  0  0  0  0
 14 15  2  0  0  0  0
 15 16  1  0  0  0  0
 16 17  2  0  0  0  0
 17 18  1  0  0  0  0
 18 19  2  0  0  0  0
 14 19  1  0  0  0  0
 17 20  1  0  0  0  0
 11 21  1  0  0  0  0
  3 22  1  0  0  0  0
  1 23  1  0  0  0  0
  1 24  1  0  0  0  0
  1 25  1  0  0  0  0
  4 26  1  0  0  0  0
  8 27  1  0  0  0  0
 15 28  1  0  0  0  0
 16 29  1  0  0  0  0
 18 30  1  0  0  0  0
 19 31  1  0  0  0  0
 20 32  1  0  0  0  0
 21 33  1  0  0  0  0
 22 34  1  0  0  0  0
M  END
$$$$
