C17H14O6
APtclcactv06291802513D 0   0.00000     0.00000
 
 37 39  0  0  0  0  0  0  0  0999 V2000
    1.5867    3.4576    0.0074 C   0  0  0  0  0  0  0  0  0  0  0  0
    2.2080    2.0849   -0.0193 C   0  0  0  0  0  0  0  0  0  0  0  0
    3.5817    1.9506   -0.0201 C   0  0  0  0  0  0  0  0  0  0  0  0
    4.1716    0.6939   -0.0441 C   0  0  0  0  0  0  0  0  0  0  0  0
    3.3806   -0.4466   -0.0677 C   0  0  0  0  0  0  0  0  0  0  0  0
    1.9880   -0.3168   -0.0670 C   0  0  0  0  0  0  0  0  0  0  0  0
    1.3975    0.9579   -0.0374 C   0  0  0  0  0  0  0  0  0  0  0  0
    0.0526    1.0749   -0.0361 O   0  0  0  0  0  0  0  0  0  0  0  0
   -0.7618    0.0066   -0.0623 C   0  0  0  0  0  0  0  0  0  0  0  0
   -0.2901   -1.2723   -0.0921 C   0  0  0  0  0  0  0  0  0  0  0  0
    1.1096   -1.4994   -0.0910 C   0  0  0  0  0  0  0  0  0  0  0  0
    1.5687   -2.6300   -0.1177 O   0  0  0  0  0  0  0  0  0  0  0  0
   -1.1555   -2.3223   -0.1180 O   0  0  0  0  0  0  0  0  0  0  0  0
   -1.1701   -3.1792    1.0255 C   0  0  0  0  0  0  0  0  0  0  0  0
   -2.2199    0.2254   -0.0581 C   0  0  0  0  0  0  0  0  0  0  0  0
   -2.7926    1.1159    0.8548 C   0  0  0  0  0  0  0  0  0  0  0  0
   -4.1552    1.3171    0.8551 C   0  0  0  0  0  0  0  0  0  0  0  0
   -4.9604    0.6361   -0.0498 C   0  0  0  0  0  0  0  0  0  0  0  0
   -4.3955   -0.2500   -0.9590 C   0  0  0  0  0  0  0  0  0  0  0  0
   -3.0332   -0.4528   -0.9707 C   0  0  0  0  0  0  0  0  0  0  0  0
   -6.3034    0.8368   -0.0453 O   0  0  0  0  0  0  0  0  0  0  0  0
    3.9539   -1.6778   -0.0916 O   0  0  0  0  0  0  0  0  0  0  0  0
    5.5275    0.5801   -0.0449 O   0  0  0  0  0  0  0  0  0  0  0  0
    1.4384    3.8092   -1.0136 H   0  0  0  0  0  0  0  0  0  0  0  0
    0.6253    3.4114    0.5190 H   0  0  0  0  0  0  0  0  0  0  0  0
    2.2470    4.1450    0.5361 H   0  0  0  0  0  0  0  0  0  0  0  0
    4.2046    2.8327   -0.0021 H   0  0  0  0  0  0  0  0  0  0  0  0
   -0.1626   -3.5495    1.2149 H   0  0  0  0  0  0  0  0  0  0  0  0
   -1.5212   -2.6210    1.8934 H   0  0  0  0  0  0  0  0  0  0  0  0
   -1.8377   -4.0207    0.8403 H   0  0  0  0  0  0  0  0  0  0  0  0
   -2.1676    1.6450    1.5589 H   0  0  0  0  0  0  0  0  0  0  0  0
   -4.5985    2.0048    1.5599 H   0  0  0  0  0  0  0  0  0  0  0  0
   -5.0252   -0.7772   -1.6605 H   0  0  0  0  0  0  0  0  0  0  0  0
   -2.5949   -1.1415   -1.6779 H   0  0  0  0  0  0  0  0  0  0  0  0
   -6.5959    1.5532   -0.6252 H   0  0  0  0  0  0  0  0  0  0  0  0
    4.1190   -2.0519    0.7847 H   0  0  0  0  0  0  0  0  0  0  0  0
    5.9186    0.5299    0.8381 H   0  0  0  0  0  0  0  0  0  0  0  0
  1  2  1  0  0  0  0
  2  3  2  0  0  0  0
  3  4  1  0  0  0  0
  4  5  2  0  0  0  0
  5  6  1  0  0  0  0
  6  7  2  0  0  0  0
  2  7  1  0  0  0  0
  7  8  1  0  0  0  0
  8  9  1  0  0  0  0
  9 10  2  0  0  0  0
 10 11  1  0  0  0  0
  6 11  1  0  0  0  0
 11 12  2  0  0  0  0
 10 13  1  0  0  0  0
 13 14  1  0  0  0  0
  9 15  1  0  0  0  0
 15 16  2  0  0  0  0
 16 17  1  0  0  0  0
 17 18  2  0  0  0  0
 18 19  1  0  0  0  0
 19 20  2  0  0  0  0
 15 20  1  0  0  0  0
 18 21  1  0  0  0  0
  5 22  1  0  0  0  0
  4 23  1  0  0  0  0
  1 24  1  0  0  0  0
  1 25  1  0  0  0  0
  1 26  1  0  0  0  0
  3 27  1  0  0  0  0
 14 28  1  0  0  0  0
 14 29  1  0  0  0  0
 14 30  1  0  0  0  0
 16 31  1  0  0  0  0
 17 32  1  0  0  0  0
 19 33  1  0  0  0  0
 20 34  1  0  0  0  0
 21 35  1  0  0  0  0
 22 36  1  0  0  0  0
 23 37  1  0  0  0  0
M  END
$$$$
