C17H16O5
APtclcactv06291802503D 0   0.00000     0.00000
 
 38 40  0  0  0  0  0  0  0  0999 V2000
    5.9187    1.7307   -0.4971 C   0  0  0  0  0  0  0  0  0  0  0  0
    5.3047    0.4458   -0.3788 O   0  0  0  0  0  0  0  0  0  0  0  0
    3.9522    0.4182   -0.2420 C   0  0  0  0  0  0  0  0  0  0  0  0
    3.2927   -0.8003   -0.1220 C   0  0  0  0  0  0  0  0  0  0  0  0
    1.9129   -0.8309    0.0182 C   0  0  0  0  0  0  0  0  0  0  0  0
    1.1893    0.3691    0.0381 C   0  0  0  0  0  0  0  0  0  0  0  0
    1.8632    1.5879   -0.0833 C   0  0  0  0  0  0  0  0  0  0  0  0
    3.2350    1.6070   -0.2168 C   0  0  0  0  0  0  0  0  0  0  0  0
   -0.2758    0.3463    0.1860 C   0  0  0  0  0  0  0  0  0  0  0  0
   -1.0554   -0.0152   -0.8544 C   0  0  0  0  0  0  0  0  0  0  0  0
   -2.5167   -0.0092   -0.6571 C   0  0  0  0  0  0  0  0  0  0  0  0
   -3.0398    0.6872    0.4448 C   0  0  0  0  0  0  0  0  0  0  0  0
   -4.4044    0.7103    0.6554 C   0  0  0  0  0  0  0  0  0  0  0  0
   -5.2498    0.0456   -0.2230 C   0  0  0  0  0  0  0  0  0  0  0  0
   -4.7324   -0.6433   -1.3134 C   0  0  0  0  0  0  0  0  0  0  0  0
   -3.3705   -0.6745   -1.5335 C   0  0  0  0  0  0  0  0  0  0  0  0
   -6.5922    0.0684   -0.0147 O   0  0  0  0  0  0  0  0  0  0  0  0
   -2.1860    1.3271    1.2839 O   0  0  0  0  0  0  0  0  0  0  0  0
   -0.9082    0.7204    1.5010 C   0  0  0  0  0  0  0  0  0  0  0  0
    1.2652   -2.0203    0.1352 O   0  0  0  0  0  0  0  0  0  0  0  0
    1.0834   -2.5327    1.4568 C   0  0  0  0  0  0  0  0  0  0  0  0
    4.0007   -1.9625   -0.1425 O   0  0  0  0  0  0  0  0  0  0  0  0
    5.5250    2.2420   -1.3756 H   0  0  0  0  0  0  0  0  0  0  0  0
    5.7023    2.3202    0.3938 H   0  0  0  0  0  0  0  0  0  0  0  0
    6.9971    1.6100   -0.5999 H   0  0  0  0  0  0  0  0  0  0  0  0
    1.3092    2.5149   -0.0684 H   0  0  0  0  0  0  0  0  0  0  0  0
    3.7533    2.5499   -0.3104 H   0  0  0  0  0  0  0  0  0  0  0  0
   -0.6226   -0.2997   -1.8021 H   0  0  0  0  0  0  0  0  0  0  0  0
   -4.8129    1.2435    1.5011 H   0  0  0  0  0  0  0  0  0  0  0  0
   -5.3987   -1.1572   -1.9904 H   0  0  0  0  0  0  0  0  0  0  0  0
   -2.9693   -1.2102   -2.3811 H   0  0  0  0  0  0  0  0  0  0  0  0
   -7.0447    0.8061   -0.4462 H   0  0  0  0  0  0  0  0  0  0  0  0
   -1.0331   -0.1716    2.1149 H   0  0  0  0  0  0  0  0  0  0  0  0
   -0.2588    1.4254    2.0200 H   0  0  0  0  0  0  0  0  0  0  0  0
    0.5542   -3.4843    1.4079 H   0  0  0  0  0  0  0  0  0  0  0  0
    2.0560   -2.6815    1.9258 H   0  0  0  0  0  0  0  0  0  0  0  0
    0.5013   -1.8230    2.0447 H   0  0  0  0  0  0  0  0  0  0  0  0
    4.2940   -2.2598    0.7297 H   0  0  0  0  0  0  0  0  0  0  0  0
  1  2  1  0  0  0  0
  2  3  1  0  0  0  0
  3  4  2  0  0  0  0
  4  5  1  0  0  0  0
  5  6  2  0  0  0  0
  6  7  1  0  0  0  0
  7  8  2  0  0  0  0
  3  8  1  0  0  0  0
  6  9  1  0  0  0  0
  9 10  2  0  0  0  0
 10 11  1  0  0  0  0
 11 12  2  0  0  0  0
 12 13  1  0  0  0  0
 13 14  2  0  0  0  0
 14 15  1  0  0  0  0
 15 16  2  0  0  0  0
 11 16  1  0  0  0  0
 14 17  1  0  0  0  0
 12 18  1  0  0  0  0
 18 19  1  0  0  0  0
  9 19  1  0  0  0  0
  5 20  1  0  0  0  0
 20 21  1  0  0  0  0
  4 22  1  0  0  0  0
  1 23  1  0  0  0  0
  1 24  1  0  0  0  0
  1 25  1  0  0  0  0
  7 26  1  0  0  0  0
  8 27  1  0  0  0  0
 10 28  1  0  0  0  0
 13 29  1  0  0  0  0
 15 30  1  0  0  0  0
 16 31  1  0  0  0  0
 17 32  1  0  0  0  0
 19 33  1  0  0  0  0
 19 34  1  0  0  0  0
 21 35  1  0  0  0  0
 21 36  1  0  0  0  0
 21 37  1  0  0  0  0
 22 38  1  0  0  0  0
M  END
$$$$
