C18H16O4
APtclcactv06291802503D 0   0.00000     0.00000
 
 38 40  0  0  0  0  0  0  0  0999 V2000
    4.7080   -0.0192    0.1586 C   0  0  0  0  0  0  0  0  0  0  0  0
    3.2166    0.1909    0.1062 C   0  0  0  0  0  0  0  0  0  0  0  0
    2.7020    1.4729   -0.0522 C   0  0  0  0  0  0  0  0  0  0  0  0
    1.3325    1.6836   -0.1019 C   0  0  0  0  0  0  0  0  0  0  0  0
    0.4613    0.6112    0.0066 C   0  0  0  0  0  0  0  0  0  0  0  0
    0.9789   -0.6861    0.1664 C   0  0  0  0  0  0  0  0  0  0  0  0
    2.3634   -0.8923    0.2101 C   0  0  0  0  0  0  0  0  0  0  0  0
    2.8637   -2.1443    0.3642 O   0  0  0  0  0  0  0  0  0  0  0  0
    3.1206   -2.8915   -0.8265 C   0  0  0  0  0  0  0  0  0  0  0  0
    0.0344   -1.8100    0.2796 C   0  0  0  0  0  0  0  0  0  0  0  0
    0.4271   -2.9568    0.4200 O   0  0  0  0  0  0  0  0  0  0  0  0
   -1.3481   -1.5076    0.2195 C   0  0  0  0  0  0  0  0  0  0  0  0
   -1.7455   -0.2176    0.0628 C   0  0  0  0  0  0  0  0  0  0  0  0
   -0.8747    0.7988   -0.0389 O   0  0  0  0  0  0  0  0  0  0  0  0
   -3.1912    0.0774    0.0024 C   0  0  0  0  0  0  0  0  0  0  0  0
   -3.7031    1.2102    0.6388 C   0  0  0  0  0  0  0  0  0  0  0  0
   -5.0545    1.4800    0.5780 C   0  0  0  0  0  0  0  0  0  0  0  0
   -5.9024    0.6313   -0.1116 C   0  0  0  0  0  0  0  0  0  0  0  0
   -5.4019   -0.4928   -0.7445 C   0  0  0  0  0  0  0  0  0  0  0  0
   -4.0519   -0.7719   -0.6962 C   0  0  0  0  0  0  0  0  0  0  0  0
    3.5487    2.5286   -0.1587 O   0  0  0  0  0  0  0  0  0  0  0  0
    2.9584    3.8200   -0.3196 C   0  0  0  0  0  0  0  0  0  0  0  0
    5.0484    0.0485    1.1919 H   0  0  0  0  0  0  0  0  0  0  0  0
    4.9503   -1.0044   -0.2399 H   0  0  0  0  0  0  0  0  0  0  0  0
    5.2040    0.7463   -0.4383 H   0  0  0  0  0  0  0  0  0  0  0  0
    0.9444    2.6839   -0.2249 H   0  0  0  0  0  0  0  0  0  0  0  0
    2.1932   -3.0135   -1.3861 H   0  0  0  0  0  0  0  0  0  0  0  0
    3.8477   -2.3590   -1.4397 H   0  0  0  0  0  0  0  0  0  0  0  0
    3.5170   -3.8718   -0.5619 H   0  0  0  0  0  0  0  0  0  0  0  0
   -2.0812   -2.2968    0.2974 H   0  0  0  0  0  0  0  0  0  0  0  0
   -3.0425    1.8733    1.1777 H   0  0  0  0  0  0  0  0  0  0  0  0
   -5.4518    2.3555    1.0700 H   0  0  0  0  0  0  0  0  0  0  0  0
   -6.9596    0.8471   -0.1558 H   0  0  0  0  0  0  0  0  0  0  0  0
   -6.0694   -1.1512   -1.2807 H   0  0  0  0  0  0  0  0  0  0  0  0
   -3.6627   -1.6497   -1.1906 H   0  0  0  0  0  0  0  0  0  0  0  0
    2.3571    3.8339   -1.2286 H   0  0  0  0  0  0  0  0  0  0  0  0
    2.3239    4.0390    0.5392 H   0  0  0  0  0  0  0  0  0  0  0  0
    3.7440    4.5721   -0.3921 H   0  0  0  0  0  0  0  0  0  0  0  0
  1  2  1  0  0  0  0
  2  3  2  0  0  0  0
  3  4  1  0  0  0  0
  4  5  2  0  0  0  0
  5  6  1  0  0  0  0
  6  7  2  0  0  0  0
  2  7  1  0  0  0  0
  7  8  1  0  0  0  0
  8  9  1  0  0  0  0
  6 10  1  0  0  0  0
 10 11  2  0  0  0  0
 10 12  1  0  0  0  0
 12 13  2  0  0  0  0
 13 14  1  0  0  0  0
  5 14  1  0  0  0  0
 13 15  1  0  0  0  0
 15 16  2  0  0  0  0
 16 17  1  0  0  0  0
 17 18  2  0  0  0  0
 18 19  1  0  0  0  0
 19 20  2  0  0  0  0
 15 20  1  0  0  0  0
  3 21  1  0  0  0  0
 21 22  1  0  0  0  0
  1 23  1  0  0  0  0
  1 24  1  0  0  0  0
  1 25  1  0  0  0  0
  4 26  1  0  0  0  0
  9 27  1  0  0  0  0
  9 28  1  0  0  0  0
  9 29  1  0  0  0  0
 12 30  1  0  0  0  0
 16 31  1  0  0  0  0
 17 32  1  0  0  0  0
 18 33  1  0  0  0  0
 19 34  1  0  0  0  0
 20 35  1  0  0  0  0
 22 36  1  0  0  0  0
 22 37  1  0  0  0  0
 22 38  1  0  0  0  0
M  END
$$$$
