C17H12O8
APtclcactv06291802513D 0   0.00000     0.00000
 
 37 40  0  0  0  0  0  0  0  0999 V2000
    1.6018    3.0499   -1.2069 C   0  0  0  0  0  0  0  0  0  0  0  0
    1.5201    2.2108   -0.0531 O   0  0  0  0  0  0  0  0  0  0  0  0
    0.5455    1.2609   -0.0477 C   0  0  0  0  0  0  0  0  0  0  0  0
    0.8747   -0.0611   -0.0766 C   0  0  0  0  0  0  0  0  0  0  0  0
   -0.0513   -1.0350   -0.0725 O   0  0  0  0  0  0  0  0  0  0  0  0
   -1.3752   -0.7723   -0.0360 C   0  0  0  0  0  0  0  0  0  0  0  0
   -2.3016   -1.8032   -0.0277 C   0  0  0  0  0  0  0  0  0  0  0  0
   -3.6588   -1.5214    0.0081 C   0  0  0  0  0  0  0  0  0  0  0  0
   -4.1057   -0.1999    0.0362 C   0  0  0  0  0  0  0  0  0  0  0  0
   -3.1937    0.8427    0.0293 C   0  0  0  0  0  0  0  0  0  0  0  0
   -1.8227    0.5606   -0.0057 C   0  0  0  0  0  0  0  0  0  0  0  0
   -0.8213    1.6390   -0.0061 C   0  0  0  0  0  0  0  0  0  0  0  0
   -1.1538    2.8132    0.0238 O   0  0  0  0  0  0  0  0  0  0  0  0
   -3.6265    2.1300    0.0555 O   0  0  0  0  0  0  0  0  0  0  0  0
   -5.4723   -0.2020    0.0684 O   0  0  0  0  0  0  0  0  0  0  0  0
   -5.8435   -1.5328    0.4736 C   0  0  0  0  0  0  0  0  0  0  0  0
   -4.7454   -2.3471    0.0228 O   0  0  0  0  0  0  0  0  0  0  0  0
    2.3000   -0.4370   -0.1141 C   0  0  0  0  0  0  0  0  0  0  0  0
    3.2054    0.1594    0.7682 C   0  0  0  0  0  0  0  0  0  0  0  0
    4.5399   -0.1965    0.7286 C   0  0  0  0  0  0  0  0  0  0  0  0
    4.9807   -1.1477   -0.1897 C   0  0  0  0  0  0  0  0  0  0  0  0
    4.0820   -1.7401   -1.0658 C   0  0  0  0  0  0  0  0  0  0  0  0
    2.7482   -1.3947   -1.0281 C   0  0  0  0  0  0  0  0  0  0  0  0
    6.2936   -1.4957   -0.2275 O   0  0  0  0  0  0  0  0  0  0  0  0
    5.4235    0.3818    1.5856 O   0  0  0  0  0  0  0  0  0  0  0  0
    1.8695    2.4482   -2.0755 H   0  0  0  0  0  0  0  0  0  0  0  0
    0.6368    3.5266   -1.3786 H   0  0  0  0  0  0  0  0  0  0  0  0
    2.3616    3.8148   -1.0468 H   0  0  0  0  0  0  0  0  0  0  0  0
   -1.9653   -2.8292   -0.0494 H   0  0  0  0  0  0  0  0  0  0  0  0
   -3.7322    2.4914    0.9462 H   0  0  0  0  0  0  0  0  0  0  0  0
   -5.9424   -1.5894    1.5577 H   0  0  0  0  0  0  0  0  0  0  0  0
   -6.7704   -1.8366   -0.0128 H   0  0  0  0  0  0  0  0  0  0  0  0
    2.8627    0.8969    1.4788 H   0  0  0  0  0  0  0  0  0  0  0  0
    4.4279   -2.4765   -1.7761 H   0  0  0  0  0  0  0  0  0  0  0  0
    2.0509   -1.8575   -1.7109 H   0  0  0  0  0  0  0  0  0  0  0  0
    6.5211   -2.2363    0.3511 H   0  0  0  0  0  0  0  0  0  0  0  0
    5.5259   -0.0907    2.4231 H   0  0  0  0  0  0  0  0  0  0  0  0
  1  2  1  0  0  0  0
  2  3  1  0  0  0  0
  3  4  2  0  0  0  0
  4  5  1  0  0  0  0
  5  6  1  0  0  0  0
  6  7  2  0  0  0  0
  7  8  1  0  0  0  0
  8  9  2  0  0  0  0
  9 10  1  0  0  0  0
 10 11  2  0  0  0  0
  6 11  1  0  0  0  0
 11 12  1  0  0  0  0
  3 12  1  0  0  0  0
 12 13  2  0  0  0  0
 10 14  1  0  0  0  0
  9 15  1  0  0  0  0
 15 16  1  0  0  0  0
 16 17  1  0  0  0  0
  8 17  1  0  0  0  0
  4 18  1  0  0  0  0
 18 19  2  0  0  0  0
 19 20  1  0  0  0  0
 20 21  2  0  0  0  0
 21 22  1  0  0  0  0
 22 23  2  0  0  0  0
 18 23  1  0  0  0  0
 21 24  1  0  0  0  0
 20 25  1  0  0  0  0
  1 26  1  0  0  0  0
  1 27  1  0  0  0  0
  1 28  1  0  0  0  0
  7 29  1  0  0  0  0
 14 30  1  0  0  0  0
 16 31  1  0  0  0  0
 16 32  1  0  0  0  0
 19 33  1  0  0  0  0
 22 34  1  0  0  0  0
 23 35  1  0  0  0  0
 24 36  1  0  0  0  0
 25 37  1  0  0  0  0
M  END
$$$$
