C26H28O15
APtclcactv06211806533D 0   0.00000     0.00000
 
 69 73  0  0  0  0  0  0  0  0999 V2000
   -1.0805   -3.8944    1.7638 C   0  0  0  0  0  0  0  0  0  0  0  0
   -1.0342   -4.7801    0.5160 C   0  0  0  0  0  0  0  0  0  0  0  0
   -1.6838   -4.0348   -0.6540 C   0  0  0  0  0  0  0  0  0  0  0  0
   -0.9594   -2.7011   -0.8607 C   0  0  0  0  0  0  0  0  0  0  0  0
   -1.0086   -1.8956    0.4403 C   0  0  0  0  0  0  0  0  0  0  0  0
   -0.4163   -2.6582    1.4938 O   0  0  0  0  0  0  0  0  0  0  0  0
   -0.2470   -0.6074    0.2629 C   0  0  0  0  0  0  0  0  0  0  0  0
    1.1391   -0.6184    0.2492 C   0  0  0  0  0  0  0  0  0  0  0  0
    1.8557    0.5623    0.0864 C   0  0  0  0  0  0  0  0  0  0  0  0
    1.1892    1.7642   -0.0644 C   0  0  0  0  0  0  0  0  0  0  0  0
   -0.2113    1.7825   -0.0520 C   0  0  0  0  0  0  0  0  0  0  0  0
   -0.9330    0.5872    0.1079 C   0  0  0  0  0  0  0  0  0  0  0  0
   -2.2826    0.6153    0.1182 O   0  0  0  0  0  0  0  0  0  0  0  0
   -2.9771    1.7558   -0.0203 C   0  0  0  0  0  0  0  0  0  0  0  0
   -2.3737    2.9643   -0.1806 C   0  0  0  0  0  0  0  0  0  0  0  0
   -0.9610    3.0403   -0.2093 C   0  0  0  0  0  0  0  0  0  0  0  0
   -0.3862    4.1076   -0.3510 O   0  0  0  0  0  0  0  0  0  0  0  0
   -4.4508    1.6961    0.0019 C   0  0  0  0  0  0  0  0  0  0  0  0
   -5.0998    0.4690    0.1646 C   0  0  0  0  0  0  0  0  0  0  0  0
   -6.4803    0.4186    0.1845 C   0  0  0  0  0  0  0  0  0  0  0  0
   -7.2226    1.5897    0.0422 C   0  0  0  0  0  0  0  0  0  0  0  0
   -6.5782    2.8085   -0.1199 C   0  0  0  0  0  0  0  0  0  0  0  0
   -5.2013    2.8671   -0.1341 C   0  0  0  0  0  0  0  0  0  0  0  0
   -8.5800    1.5382    0.0616 O   0  0  0  0  0  0  0  0  0  0  0  0
   -7.1150   -0.7737    0.3426 O   0  0  0  0  0  0  0  0  0  0  0  0
    1.8866    2.9175   -0.2229 O   0  0  0  0  0  0  0  0  0  0  0  0
    3.3623    0.5318    0.0749 C   0  0  0  0  0  0  0  0  0  0  0  0
    3.8657    0.7098   -1.3599 C   0  0  0  0  0  0  0  0  0  0  0  0
    5.3972    0.7380   -1.3556 C   0  0  0  0  0  0  0  0  0  0  0  0
    5.8737    1.8607   -0.4289 C   0  0  0  0  0  0  0  0  0  0  0  0
    5.2928    1.6382    0.9699 C   0  0  0  0  0  0  0  0  0  0  0  0
    3.8667    1.5915    0.8902 O   0  0  0  0  0  0  0  0  0  0  0  0
    5.8158    0.3162    1.5353 C   0  0  0  0  0  0  0  0  0  0  0  0
    5.3986    0.1815    2.8954 O   0  0  0  0  0  0  0  0  0  0  0  0
    7.3010    1.8500   -0.3605 O   0  0  0  0  0  0  0  0  0  0  0  0
    5.8971   -0.5152   -0.8846 O   0  0  0  0  0  0  0  0  0  0  0  0
    3.4103   -0.3799   -2.1644 O   0  0  0  0  0  0  0  0  0  0  0  0
    1.8035   -1.7931    0.3965 O   0  0  0  0  0  0  0  0  0  0  0  0
    0.4019   -2.9475   -1.2187 O   0  0  0  0  0  0  0  0  0  0  0  0
   -1.5796   -4.8243   -1.8405 O   0  0  0  0  0  0  0  0  0  0  0  0
    0.3251   -5.0816    0.1945 O   0  0  0  0  0  0  0  0  0  0  0  0
   -2.1186   -3.6982    2.0321 H   0  0  0  0  0  0  0  0  0  0  0  0
   -0.5814   -4.4025    2.5890 H   0  0  0  0  0  0  0  0  0  0  0  0
   -1.5784   -5.7053    0.7057 H   0  0  0  0  0  0  0  0  0  0  0  0
   -2.7340   -3.8484   -0.4295 H   0  0  0  0  0  0  0  0  0  0  0  0
   -1.4501   -2.1394   -1.6556 H   0  0  0  0  0  0  0  0  0  0  0  0
   -2.0457   -1.6733    0.6913 H   0  0  0  0  0  0  0  0  0  0  0  0
   -2.9687    3.8590   -0.2890 H   0  0  0  0  0  0  0  0  0  0  0  0
   -4.5234   -0.4378    0.2741 H   0  0  0  0  0  0  0  0  0  0  0  0
   -7.1571    3.7135   -0.2306 H   0  0  0  0  0  0  0  0  0  0  0  0
   -4.7025    3.8166   -0.2603 H   0  0  0  0  0  0  0  0  0  0  0  0
   -8.9647    1.6351    0.9435 H   0  0  0  0  0  0  0  0  0  0  0  0
   -7.2899   -1.0069    1.2647 H   0  0  0  0  0  0  0  0  0  0  0  0
    2.0797    3.1369   -1.1447 H   0  0  0  0  0  0  0  0  0  0  0  0
    3.7095   -0.4246    0.4659 H   0  0  0  0  0  0  0  0  0  0  0  0
    3.4853    1.6472   -1.7657 H   0  0  0  0  0  0  0  0  0  0  0  0
    5.7613    0.9205   -2.3667 H   0  0  0  0  0  0  0  0  0  0  0  0
    5.5338    2.8213   -0.8159 H   0  0  0  0  0  0  0  0  0  0  0  0
    5.5937    2.4574    1.6230 H   0  0  0  0  0  0  0  0  0  0  0  0
    5.4177   -0.5123    0.9494 H   0  0  0  0  0  0  0  0  0  0  0  0
    6.9046    0.3055    1.4865 H   0  0  0  0  0  0  0  0  0  0  0  0
    5.6952   -0.6358    3.3187 H   0  0  0  0  0  0  0  0  0  0  0  0
    7.7366    1.9808   -1.2138 H   0  0  0  0  0  0  0  0  0  0  0  0
    6.8622   -0.5679   -0.8557 H   0  0  0  0  0  0  0  0  0  0  0  0
    3.6930   -0.3320   -3.0879 H   0  0  0  0  0  0  0  0  0  0  0  0
    1.9863   -2.2487   -0.4367 H   0  0  0  0  0  0  0  0  0  0  0  0
    0.5082   -3.4585   -2.0327 H   0  0  0  0  0  0  0  0  0  0  0  0
   -2.0113   -5.6873   -1.7779 H   0  0  0  0  0  0  0  0  0  0  0  0
    0.8002   -5.5503    0.8943 H   0  0  0  0  0  0  0  0  0  0  0  0
  1  2  1  0  0  0  0
  2  3  1  0  0  0  0
  3  4  1  0  0  0  0
  4  5  1  0  0  0  0
  5  6  1  0  0  0  0
  1  6  1  0  0  0  0
  5  7  1  0  0  0  0
  7  8  2  0  0  0  0
  8  9  1  0  0  0  0
  9 10  2  0  0  0  0
 10 11  1  0  0  0  0
 11 12  2  0  0  0  0
  7 12  1  0  0  0  0
 12 13  1  0  0  0  0
 13 14  1  0  0  0  0
 14 15  2  0  0  0  0
 15 16  1  0  0  0  0
 11 16  1  0  0  0  0
 16 17  2  0  0  0  0
 14 18  1  0  0  0  0
 18 19  2  0  0  0  0
 19 20  1  0  0  0  0
 20 21  2  0  0  0  0
 21 22  1  0  0  0  0
 22 23  2  0  0  0  0
 18 23  1  0  0  0  0
 21 24  1  0  0  0  0
 20 25  1  0  0  0  0
 10 26  1  0  0  0  0
  9 27  1  0  0  0  0
 27 28  1  0  0  0  0
 28 29  1  0  0  0  0
 29 30  1  0  0  0  0
 30 31  1  0  0  0  0
 31 32  1  0  0  0  0
 27 32  1  0  0  0  0
 31 33  1  0  0  0  0
 33 34  1  0  0  0  0
 30 35  1  0  0  0  0
 29 36  1  0  0  0  0
 28 37  1  0  0  0  0
  8 38  1  0  0  0  0
  4 39  1  0  0  0  0
  3 40  1  0  0  0  0
  2 41  1  0  0  0  0
  1 42  1  0  0  0  0
  1 43  1  0  0  0  0
  2 44  1  0  0  0  0
  3 45  1  0  0  0  0
  4 46  1  0  0  0  0
  5 47  1  0  0  0  0
 15 48  1  0  0  0  0
 19 49  1  0  0  0  0
 22 50  1  0  0  0  0
 23 51  1  0  0  0  0
 24 52  1  0  0  0  0
 25 53  1  0  0  0  0
 26 54  1  0  0  0  0
 27 55  1  0  0  0  0
 28 56  1  0  0  0  0
 29 57  1  0  0  0  0
 30 58  1  0  0  0  0
 31 59  1  0  0  0  0
 33 60  1  0  0  0  0
 33 61  1  0  0  0  0
 34 62  1  0  0  0  0
 35 63  1  0  0  0  0
 36 64  1  0  0  0  0
 37 65  1  0  0  0  0
 38 66  1  0  0  0  0
 39 67  1  0  0  0  0
 40 68  1  0  0  0  0
 41 69  1  0  0  0  0
M  END
$$$$
