C15H10O7
APtclcactv06291802513D 0   0.00000     0.00000
 
 32 34  0  0  0  0  0  0  0  0999 V2000
   -4.7980    0.8248   -0.0555 C   0  0  0  0  0  0  0  0  0  0  0  0
   -3.9462    1.5081   -0.9015 C   0  0  0  0  0  0  0  0  0  0  0  0
   -2.5903    1.2230   -0.9032 C   0  0  0  0  0  0  0  0  0  0  0  0
   -2.0840    0.2387   -0.0433 C   0  0  0  0  0  0  0  0  0  0  0  0
   -2.9524   -0.4476    0.8097 C   0  0  0  0  0  0  0  0  0  0  0  0
   -4.3032   -0.1521    0.7995 C   0  0  0  0  0  0  0  0  0  0  0  0
   -5.1494   -0.8188    1.6293 O   0  0  0  0  0  0  0  0  0  0  0  0
   -0.6430   -0.0712   -0.0391 C   0  0  0  0  0  0  0  0  0  0  0  0
   -0.2467   -1.3527   -0.2797 C   0  0  0  0  0  0  0  0  0  0  0  0
    1.1369   -1.6671   -0.2796 C   0  0  0  0  0  0  0  0  0  0  0  0
    1.5290   -2.8035   -0.4915 O   0  0  0  0  0  0  0  0  0  0  0  0
    2.0808   -0.5696   -0.0146 C   0  0  0  0  0  0  0  0  0  0  0  0
    3.4642   -0.7893    0.0041 C   0  0  0  0  0  0  0  0  0  0  0  0
    4.3183    0.2682    0.2565 C   0  0  0  0  0  0  0  0  0  0  0  0
    3.8060    1.5396    0.4903 C   0  0  0  0  0  0  0  0  0  0  0  0
    2.4382    1.7645    0.4739 C   0  0  0  0  0  0  0  0  0  0  0  0
    1.5655    0.7172    0.2217 C   0  0  0  0  0  0  0  0  0  0  0  0
    0.2318    0.9216    0.1965 O   0  0  0  0  0  0  0  0  0  0  0  0
    4.6537    2.5708    0.7376 O   0  0  0  0  0  0  0  0  0  0  0  0
    3.9623   -2.0311   -0.2234 O   0  0  0  0  0  0  0  0  0  0  0  0
   -1.1706   -2.3232   -0.5178 O   0  0  0  0  0  0  0  0  0  0  0  0
   -1.7541    1.8951   -1.7362 O   0  0  0  0  0  0  0  0  0  0  0  0
   -5.8533    1.0542   -0.0555 H   0  0  0  0  0  0  0  0  0  0  0  0
   -4.3381    2.2662   -1.5633 H   0  0  0  0  0  0  0  0  0  0  0  0
   -2.5695   -1.2076    1.4748 H   0  0  0  0  0  0  0  0  0  0  0  0
   -5.2650   -0.3995    2.4930 H   0  0  0  0  0  0  0  0  0  0  0  0
    5.3859    0.1063    0.2725 H   0  0  0  0  0  0  0  0  0  0  0  0
    2.0521    2.7563    0.6573 H   0  0  0  0  0  0  0  0  0  0  0  0
    4.9388    3.0445   -0.0558 H   0  0  0  0  0  0  0  0  0  0  0  0
    4.1460   -2.2167   -1.1545 H   0  0  0  0  0  0  0  0  0  0  0  0
   -0.7902   -3.1979   -0.6770 H   0  0  0  0  0  0  0  0  0  0  0  0
   -1.4438    2.7405   -1.3839 H   0  0  0  0  0  0  0  0  0  0  0  0
  1  2  2  0  0  0  0
  2  3  1  0  0  0  0
  3  4  2  0  0  0  0
  4  5  1  0  0  0  0
  5  6  2  0  0  0  0
  1  6  1  0  0  0  0
  6  7  1  0  0  0  0
  4  8  1  0  0  0  0
  8  9  2  0  0  0  0
  9 10  1  0  0  0  0
 10 11  2  0  0  0  0
 10 12  1  0  0  0  0
 12 13  2  0  0  0  0
 13 14  1  0  0  0  0
 14 15  2  0  0  0  0
 15 16  1  0  0  0  0
 16 17  2  0  0  0  0
 12 17  1  0  0  0  0
 17 18  1  0  0  0  0
  8 18  1  0  0  0  0
 15 19  1  0  0  0  0
 13 20  1  0  0  0  0
  9 21  1  0  0  0  0
  3 22  1  0  0  0  0
  1 23  1  0  0  0  0
  2 24  1  0  0  0  0
  5 25  1  0  0  0  0
  7 26  1  0  0  0  0
 14 27  1  0  0  0  0
 16 28  1  0  0  0  0
 19 29  1  0  0  0  0
 20 30  1  0  0  0  0
 21 31  1  0  0  0  0
 22 32  1  0  0  0  0
M  END
$$$$
