C21H20O6
APtclcactv06291802493D 0   0.00000     0.00000
 
 47 49  0  0  0  0  0  0  0  0999 V2000
   -2.8817   -3.9503    0.6183 C   0  0  0  0  0  0  0  0  0  0  0  0
   -3.4293   -3.2491   -0.5980 C   0  0  0  0  0  0  0  0  0  0  0  0
   -3.8129   -1.9992   -0.5162 C   0  0  0  0  0  0  0  0  0  0  0  0
   -3.5915   -1.2249    0.7575 C   0  0  0  0  0  0  0  0  0  0  0  0
   -2.8478    0.0488    0.4483 C   0  0  0  0  0  0  0  0  0  0  0  0
   -3.5506    1.2025    0.1417 C   0  0  0  0  0  0  0  0  0  0  0  0
   -2.8821    2.3882   -0.1453 C   0  0  0  0  0  0  0  0  0  0  0  0
   -1.5001    2.4248   -0.1304 C   0  0  0  0  0  0  0  0  0  0  0  0
   -0.7840    1.2601    0.1720 C   0  0  0  0  0  0  0  0  0  0  0  0
   -1.4597    0.0648    0.4769 C   0  0  0  0  0  0  0  0  0  0  0  0
   -0.7710   -1.0495    0.7890 O   0  0  0  0  0  0  0  0  0  0  0  0
    0.5306   -1.1579    0.5188 C   0  0  0  0  0  0  0  0  0  0  0  0
    1.3166   -0.0920    0.2196 C   0  0  0  0  0  0  0  0  0  0  0  0
    0.6887    1.2449    0.1795 C   0  0  0  0  0  0  0  0  0  0  0  0
    1.3485    2.2697    0.1466 O   0  0  0  0  0  0  0  0  0  0  0  0
    2.7640   -0.2643   -0.0542 C   0  0  0  0  0  0  0  0  0  0  0  0
    3.6527   -0.5068    0.9979 C   0  0  0  0  0  0  0  0  0  0  0  0
    5.0026   -0.6667    0.7359 C   0  0  0  0  0  0  0  0  0  0  0  0
    5.4709   -0.5859   -0.5671 C   0  0  0  0  0  0  0  0  0  0  0  0
    4.5891   -0.3452   -1.6124 C   0  0  0  0  0  0  0  0  0  0  0  0
    3.2414   -0.1907   -1.3610 C   0  0  0  0  0  0  0  0  0  0  0  0
    6.7967   -0.7424   -0.8216 O   0  0  0  0  0  0  0  0  0  0  0  0
    3.1925   -0.5848    2.2740 O   0  0  0  0  0  0  0  0  0  0  0  0
   -0.8432    3.5796   -0.4068 O   0  0  0  0  0  0  0  0  0  0  0  0
   -1.6431    4.7252   -0.7064 C   0  0  0  0  0  0  0  0  0  0  0  0
   -4.9076    1.1756    0.1205 O   0  0  0  0  0  0  0  0  0  0  0  0
   -3.5356   -3.9857   -1.9085 C   0  0  0  0  0  0  0  0  0  0  0  0
   -3.6014   -3.8788    1.4337 H   0  0  0  0  0  0  0  0  0  0  0  0
   -2.7024   -4.9994    0.3829 H   0  0  0  0  0  0  0  0  0  0  0  0
   -1.9452   -3.4800    0.9180 H   0  0  0  0  0  0  0  0  0  0  0  0
   -4.2879   -1.5237   -1.3617 H   0  0  0  0  0  0  0  0  0  0  0  0
   -4.5543   -0.9832    1.2078 H   0  0  0  0  0  0  0  0  0  0  0  0
   -3.0066   -1.8277    1.4522 H   0  0  0  0  0  0  0  0  0  0  0  0
   -3.4430    3.2807   -0.3802 H   0  0  0  0  0  0  0  0  0  0  0  0
    0.9805   -2.1395    0.5394 H   0  0  0  0  0  0  0  0  0  0  0  0
    5.6914   -0.8541    1.5465 H   0  0  0  0  0  0  0  0  0  0  0  0
    4.9586   -0.2831   -2.6253 H   0  0  0  0  0  0  0  0  0  0  0  0
    2.5578   -0.0039   -2.1760 H   0  0  0  0  0  0  0  0  0  0  0  0
    7.0591   -1.6572   -0.9928 H   0  0  0  0  0  0  0  0  0  0  0  0
    2.9371   -1.4769    2.5461 H   0  0  0  0  0  0  0  0  0  0  0  0
   -2.2571    4.5204   -1.5833 H   0  0  0  0  0  0  0  0  0  0  0  0
   -2.2872    4.9510    0.1435 H   0  0  0  0  0  0  0  0  0  0  0  0
   -0.9950    5.5782   -0.9078 H   0  0  0  0  0  0  0  0  0  0  0  0
   -5.3184    1.3846    0.9706 H   0  0  0  0  0  0  0  0  0  0  0  0
   -4.5095   -4.4707   -1.9747 H   0  0  0  0  0  0  0  0  0  0  0  0
   -3.4242   -3.2802   -2.7319 H   0  0  0  0  0  0  0  0  0  0  0  0
   -2.7499   -4.7389   -1.9666 H   0  0  0  0  0  0  0  0  0  0  0  0
  1  2  1  0  0  0  0
  2  3  2  0  0  0  0
  3  4  1  0  0  0  0
  4  5  1  0  0  0  0
  5  6  2  0  0  0  0
  6  7  1  0  0  0  0
  7  8  2  0  0  0  0
  8  9  1  0  0  0  0
  9 10  2  0  0  0  0
  5 10  1  0  0  0  0
 10 11  1  0  0  0  0
 11 12  1  0  0  0  0
 12 13  2  0  0  0  0
 13 14  1  0  0  0  0
  9 14  1  0  0  0  0
 14 15  2  0  0  0  0
 13 16  1  0  0  0  0
 16 17  2  0  0  0  0
 17 18  1  0  0  0  0
 18 19  2  0  0  0  0
 19 20  1  0  0  0  0
 20 21  2  0  0  0  0
 16 21  1  0  0  0  0
 19 22  1  0  0  0  0
 17 23  1  0  0  0  0
  8 24  1  0  0  0  0
 24 25  1  0  0  0  0
  6 26  1  0  0  0  0
  2 27  1  0  0  0  0
  1 28  1  0  0  0  0
  1 29  1  0  0  0  0
  1 30  1  0  0  0  0
  3 31  1  0  0  0  0
  4 32  1  0  0  0  0
  4 33  1  0  0  0  0
  7 34  1  0  0  0  0
 12 35  1  0  0  0  0
 18 36  1  0  0  0  0
 20 37  1  0  0  0  0
 21 38  1  0  0  0  0
 22 39  1  0  0  0  0
 23 40  1  0  0  0  0
 25 41  1  0  0  0  0
 25 42  1  0  0  0  0
 25 43  1  0  0  0  0
 26 44  1  0  0  0  0
 27 45  1  0  0  0  0
 27 46  1  0  0  0  0
 27 47  1  0  0  0  0
M  END
$$$$
