C23H26O8
APtclcactv06291802513D 0   0.00000     0.00000
 
 57 59  0  0  0  0  0  0  0  0999 V2000
    6.7289    2.5624   -0.4238 C   0  0  0  0  0  0  0  0  0  0  0  0
    6.1180    1.5956    0.5926 C   0  0  0  0  0  0  0  0  0  0  0  0
    5.6003    2.3830    1.7980 C   0  0  0  0  0  0  0  0  0  0  0  0
    4.9589    0.8375   -0.0574 C   0  0  0  0  0  0  0  0  0  0  0  0
    4.2691   -0.0368    0.9917 C   0  0  0  0  0  0  0  0  0  0  0  0
    3.1274   -0.7835    0.3515 C   0  0  0  0  0  0  0  0  0  0  0  0
    3.3650   -1.9863   -0.3019 C   0  0  0  0  0  0  0  0  0  0  0  0
    2.3159   -2.6793   -0.8941 C   0  0  0  0  0  0  0  0  0  0  0  0
    1.0353   -2.1760   -0.8353 C   0  0  0  0  0  0  0  0  0  0  0  0
    0.7914   -0.9661   -0.1785 C   0  0  0  0  0  0  0  0  0  0  0  0
    1.8488   -0.2751    0.4198 C   0  0  0  0  0  0  0  0  0  0  0  0
   -0.5780   -0.4232   -0.1129 C   0  0  0  0  0  0  0  0  0  0  0  0
   -0.7785    0.8898   -0.4174 C   0  0  0  0  0  0  0  0  0  0  0  0
   -2.0901    1.4274   -0.3596 C   0  0  0  0  0  0  0  0  0  0  0  0
   -2.3076    2.5987   -0.6258 O   0  0  0  0  0  0  0  0  0  0  0  0
   -3.1783    0.5178    0.0334 C   0  0  0  0  0  0  0  0  0  0  0  0
   -4.5031    0.9641    0.1158 C   0  0  0  0  0  0  0  0  0  0  0  0
   -5.4996    0.0768    0.4891 C   0  0  0  0  0  0  0  0  0  0  0  0
   -5.1819   -1.2488    0.7794 C   0  0  0  0  0  0  0  0  0  0  0  0
   -3.8723   -1.6945    0.6990 C   0  0  0  0  0  0  0  0  0  0  0  0
   -2.8621   -0.8206    0.3272 C   0  0  0  0  0  0  0  0  0  0  0  0
   -1.5828   -1.2431    0.2396 O   0  0  0  0  0  0  0  0  0  0  0  0
   -6.1652   -2.1118    1.1450 O   0  0  0  0  0  0  0  0  0  0  0  0
   -6.7908    0.5005    0.5728 O   0  0  0  0  0  0  0  0  0  0  0  0
   -7.5871    0.3919   -0.6088 C   0  0  0  0  0  0  0  0  0  0  0  0
   -4.8088    2.2569   -0.1675 O   0  0  0  0  0  0  0  0  0  0  0  0
    0.2713    1.6793   -0.7736 O   0  0  0  0  0  0  0  0  0  0  0  0
    0.2805    2.1817   -2.1114 C   0  0  0  0  0  0  0  0  0  0  0  0
    4.6261   -2.4863   -0.3623 O   0  0  0  0  0  0  0  0  0  0  0  0
    4.7998   -3.7272   -1.0492 C   0  0  0  0  0  0  0  0  0  0  0  0
    7.1136    0.6654    1.0232 O   0  0  0  0  0  0  0  0  0  0  0  0
    7.5547    3.1025    0.0393 H   0  0  0  0  0  0  0  0  0  0  0  0
    7.0978    2.0015   -1.2825 H   0  0  0  0  0  0  0  0  0  0  0  0
    5.9695    3.2720   -0.7523 H   0  0  0  0  0  0  0  0  0  0  0  0
    4.8409    3.0925    1.4695 H   0  0  0  0  0  0  0  0  0  0  0  0
    5.1651    1.6942    2.5221 H   0  0  0  0  0  0  0  0  0  0  0  0
    6.4261    2.9230    2.2611 H   0  0  0  0  0  0  0  0  0  0  0  0
    4.2417    1.5502   -0.4649 H   0  0  0  0  0  0  0  0  0  0  0  0
    5.3416    0.2077   -0.8605 H   0  0  0  0  0  0  0  0  0  0  0  0
    4.9863   -0.7494    1.3992 H   0  0  0  0  0  0  0  0  0  0  0  0
    3.8864    0.5930    1.7948 H   0  0  0  0  0  0  0  0  0  0  0  0
    2.5053   -3.6136   -1.4015 H   0  0  0  0  0  0  0  0  0  0  0  0
    0.2207   -2.7150   -1.2962 H   0  0  0  0  0  0  0  0  0  0  0  0
    1.6649    0.6597    0.9285 H   0  0  0  0  0  0  0  0  0  0  0  0
   -3.6380   -2.7239    0.9267 H   0  0  0  0  0  0  0  0  0  0  0  0
   -6.5756   -2.5774    0.4034 H   0  0  0  0  0  0  0  0  0  0  0  0
   -8.5916    0.7630   -0.4054 H   0  0  0  0  0  0  0  0  0  0  0  0
   -7.1362    0.9824   -1.4064 H   0  0  0  0  0  0  0  0  0  0  0  0
   -7.6409   -0.6526   -0.9160 H   0  0  0  0  0  0  0  0  0  0  0  0
   -5.0225    2.4159   -1.0970 H   0  0  0  0  0  0  0  0  0  0  0  0
   -0.5565    2.8664   -2.2481 H   0  0  0  0  0  0  0  0  0  0  0  0
    1.2160    2.7103   -2.2945 H   0  0  0  0  0  0  0  0  0  0  0  0
    0.1890    1.3516   -2.8119 H   0  0  0  0  0  0  0  0  0  0  0  0
    5.8514   -4.0127   -1.0235 H   0  0  0  0  0  0  0  0  0  0  0  0
    4.2020   -4.4983   -0.5632 H   0  0  0  0  0  0  0  0  0  0  0  0
    4.4784   -3.6173   -2.0850 H   0  0  0  0  0  0  0  0  0  0  0  0
    7.8799    1.0769    1.4457 H   0  0  0  0  0  0  0  0  0  0  0  0
  1  2  1  0  0  0  0
  2  3  1  0  0  0  0
  2  4  1  0  0  0  0
  4  5  1  0  0  0  0
  5  6  1  0  0  0  0
  6  7  2  0  0  0  0
  7  8  1  0  0  0  0
  8  9  2  0  0  0  0
  9 10  1  0  0  0  0
 10 11  2  0  0  0  0
  6 11  1  0  0  0  0
 10 12  1  0  0  0  0
 12 13  2  0  0  0  0
 13 14  1  0  0  0  0
 14 15  2  0  0  0  0
 14 16  1  0  0  0  0
 16 17  2  0  0  0  0
 17 18  1  0  0  0  0
 18 19  2  0  0  0  0
 19 20  1  0  0  0  0
 20 21  2  0  0  0  0
 16 21  1  0  0  0  0
 21 22  1  0  0  0  0
 12 22  1  0  0  0  0
 19 23  1  0  0  0  0
 18 24  1  0  0  0  0
 24 25  1  0  0  0  0
 17 26  1  0  0  0  0
 13 27  1  0  0  0  0
 27 28  1  0  0  0  0
  7 29  1  0  0  0  0
 29 30  1  0  0  0  0
  2 31  1  0  0  0  0
  1 32  1  0  0  0  0
  1 33  1  0  0  0  0
  1 34  1  0  0  0  0
  3 35  1  0  0  0  0
  3 36  1  0  0  0  0
  3 37  1  0  0  0  0
  4 38  1  0  0  0  0
  4 39  1  0  0  0  0
  5 40  1  0  0  0  0
  5 41  1  0  0  0  0
  8 42  1  0  0  0  0
  9 43  1  0  0  0  0
 11 44  1  0  0  0  0
 20 45  1  0  0  0  0
 23 46  1  0  0  0  0
 25 47  1  0  0  0  0
 25 48  1  0  0  0  0
 25 49  1  0  0  0  0
 26 50  1  0  0  0  0
 28 51  1  0  0  0  0
 28 52  1  0  0  0  0
 28 53  1  0  0  0  0
 30 54  1  0  0  0  0
 30 55  1  0  0  0  0
 30 56  1  0  0  0  0
 31 57  1  0  0  0  0
M  END
$$$$
