C16H12O9S
APtclcactv06291802503D 0   0.00000     0.00000
 
 38 40  0  0  0  0  0  0  0  0999 V2000
    7.7701    0.3569    0.3956 C   0  0  0  0  0  0  0  0  0  0  0  0
    6.7153    1.2818    0.1234 O   0  0  0  0  0  0  0  0  0  0  0  0
    5.4530    0.7817    0.0780 C   0  0  0  0  0  0  0  0  0  0  0  0
    4.3781    1.6299   -0.1830 C   0  0  0  0  0  0  0  0  0  0  0  0
    3.0937    1.1230   -0.2300 C   0  0  0  0  0  0  0  0  0  0  0  0
    2.8759   -0.2408   -0.0153 C   0  0  0  0  0  0  0  0  0  0  0  0
    3.9583   -1.0853    0.2458 C   0  0  0  0  0  0  0  0  0  0  0  0
    5.2373   -0.5737    0.2860 C   0  0  0  0  0  0  0  0  0  0  0  0
    1.5067   -0.7873   -0.0639 C   0  0  0  0  0  0  0  0  0  0  0  0
    1.3258   -2.1186    0.1490 C   0  0  0  0  0  0  0  0  0  0  0  0
    0.0195   -2.6608    0.1068 C   0  0  0  0  0  0  0  0  0  0  0  0
   -0.1796   -3.8503    0.2935 O   0  0  0  0  0  0  0  0  0  0  0  0
   -1.0906   -1.7335   -0.1706 C   0  0  0  0  0  0  0  0  0  0  0  0
   -2.4155   -2.1826   -0.2303 C   0  0  0  0  0  0  0  0  0  0  0  0
   -3.4294   -1.2796   -0.4930 C   0  0  0  0  0  0  0  0  0  0  0  0
   -3.1333    0.0636   -0.6960 C   0  0  0  0  0  0  0  0  0  0  0  0
   -1.8235    0.5150   -0.6386 C   0  0  0  0  0  0  0  0  0  0  0  0
   -0.7940   -0.3749   -0.3761 C   0  0  0  0  0  0  0  0  0  0  0  0
    0.4860    0.0491   -0.3110 O   0  0  0  0  0  0  0  0  0  0  0  0
   -4.1362    0.9416   -0.9532 O   0  0  0  0  0  0  0  0  0  0  0  0
   -4.7353    1.5792    0.2922 S   0  0  0  0  0  0  0  0  0  0  0  0
   -5.8820    2.2998   -0.1380 O   0  0  0  0  0  0  0  0  0  0  0  0
   -4.7838    0.5599    1.2811 O   0  0  0  0  0  0  0  0  0  0  0  0
   -3.7389    2.6156    0.7917 O   0  0  0  0  0  0  0  0  0  0  0  0
   -2.7024   -3.4942   -0.0324 O   0  0  0  0  0  0  0  0  0  0  0  0
    4.5936    2.9565   -0.3909 O   0  0  0  0  0  0  0  0  0  0  0  0
    8.7235    0.8852    0.4036 H   0  0  0  0  0  0  0  0  0  0  0  0
    7.6040   -0.1077    1.3675 H   0  0  0  0  0  0  0  0  0  0  0  0
    7.7873   -0.4121   -0.3766 H   0  0  0  0  0  0  0  0  0  0  0  0
    2.2600    1.7792   -0.4317 H   0  0  0  0  0  0  0  0  0  0  0  0
    3.7928   -2.1395    0.4124 H   0  0  0  0  0  0  0  0  0  0  0  0
    6.0730   -1.2275    0.4875 H   0  0  0  0  0  0  0  0  0  0  0  0
    2.1735   -2.7574    0.3484 H   0  0  0  0  0  0  0  0  0  0  0  0
   -4.4537   -1.6186   -0.5410 H   0  0  0  0  0  0  0  0  0  0  0  0
   -1.6055    1.5606   -0.7983 H   0  0  0  0  0  0  0  0  0  0  0  0
   -4.0247    3.0844    1.5877 H   0  0  0  0  0  0  0  0  0  0  0  0
   -2.8756   -3.7239    0.8908 H   0  0  0  0  0  0  0  0  0  0  0  0
    4.7474    3.1896   -1.3167 H   0  0  0  0  0  0  0  0  0  0  0  0
  1  2  1  0  0  0  0
  2  3  1  0  0  0  0
  3  4  2  0  0  0  0
  4  5  1  0  0  0  0
  5  6  2  0  0  0  0
  6  7  1  0  0  0  0
  7  8  2  0  0  0  0
  3  8  1  0  0  0  0
  6  9  1  0  0  0  0
  9 10  2  0  0  0  0
 10 11  1  0  0  0  0
 11 12  2  0  0  0  0
 11 13  1  0  0  0  0
 13 14  2  0  0  0  0
 14 15  1  0  0  0  0
 15 16  2  0  0  0  0
 16 17  1  0  0  0  0
 17 18  2  0  0  0  0
 13 18  1  0  0  0  0
 18 19  1  0  0  0  0
  9 19  1  0  0  0  0
 16 20  1  0  0  0  0
 20 21  1  0  0  0  0
 21 22  2  0  0  0  0
 21 23  2  0  0  0  0
 21 24  1  0  0  0  0
 14 25  1  0  0  0  0
  4 26  1  0  0  0  0
  1 27  1  0  0  0  0
  1 28  1  0  0  0  0
  1 29  1  0  0  0  0
  5 30  1  0  0  0  0
  7 31  1  0  0  0  0
  8 32  1  0  0  0  0
 10 33  1  0  0  0  0
 15 34  1  0  0  0  0
 17 35  1  0  0  0  0
 24 36  1  0  0  0  0
 25 37  1  0  0  0  0
 26 38  1  0  0  0  0
M  END
$$$$
