C15H10O7
APtclcactv06291802493D 0   0.00000     0.00000
 
 32 34  0  0  0  0  0  0  0  0999 V2000
    4.3197    0.4365   -1.2076 C   0  0  0  0  0  0  0  0  0  0  0  0
    2.9495    0.3181   -1.3160 C   0  0  0  0  0  0  0  0  0  0  0  0
    2.2079   -0.1870   -0.2502 C   0  0  0  0  0  0  0  0  0  0  0  0
    2.8565   -0.5724    0.9272 C   0  0  0  0  0  0  0  0  0  0  0  0
    4.2319   -0.4502    1.0273 C   0  0  0  0  0  0  0  0  0  0  0  0
    4.9631    0.0535   -0.0382 C   0  0  0  0  0  0  0  0  0  0  0  0
    6.3132    0.1726    0.0626 O   0  0  0  0  0  0  0  0  0  0  0  0
    2.1387   -1.0653    1.9703 O   0  0  0  0  0  0  0  0  0  0  0  0
    0.7347   -0.3149   -0.3638 C   0  0  0  0  0  0  0  0  0  0  0  0
    0.1509   -1.5274   -0.5459 C   0  0  0  0  0  0  0  0  0  0  0  0
   -1.1667   -1.6895   -0.6716 O   0  0  0  0  0  0  0  0  0  0  0  0
   -2.0288   -0.7169   -0.3167 C   0  0  0  0  0  0  0  0  0  0  0  0
   -1.5771    0.5998   -0.1150 C   0  0  0  0  0  0  0  0  0  0  0  0
   -0.1395    0.8714   -0.2762 C   0  0  0  0  0  0  0  0  0  0  0  0
    0.3020    2.0060   -0.3419 O   0  0  0  0  0  0  0  0  0  0  0  0
   -2.4752    1.6139    0.2380 C   0  0  0  0  0  0  0  0  0  0  0  0
   -3.8144    1.3116    0.4006 C   0  0  0  0  0  0  0  0  0  0  0  0
   -4.2631    0.0089    0.2120 C   0  0  0  0  0  0  0  0  0  0  0  0
   -3.3802   -1.0009   -0.1453 C   0  0  0  0  0  0  0  0  0  0  0  0
   -3.8369   -2.2706   -0.3277 O   0  0  0  0  0  0  0  0  0  0  0  0
   -5.5803   -0.2785    0.3787 O   0  0  0  0  0  0  0  0  0  0  0  0
   -2.0342    2.8852    0.4196 O   0  0  0  0  0  0  0  0  0  0  0  0
    4.8940    0.8240   -2.0362 H   0  0  0  0  0  0  0  0  0  0  0  0
    2.4519    0.6171   -2.2267 H   0  0  0  0  0  0  0  0  0  0  0  0
    4.7355   -0.7467    1.9355 H   0  0  0  0  0  0  0  0  0  0  0  0
    6.7999   -0.6105   -0.2288 H   0  0  0  0  0  0  0  0  0  0  0  0
    2.0267   -2.0256    1.9518 H   0  0  0  0  0  0  0  0  0  0  0  0
    0.7836   -2.4015   -0.5914 H   0  0  0  0  0  0  0  0  0  0  0  0
   -4.5130    2.0881    0.6749 H   0  0  0  0  0  0  0  0  0  0  0  0
   -4.1141   -2.4624   -1.2341 H   0  0  0  0  0  0  0  0  0  0  0  0
   -6.1077   -0.1878   -0.4267 H   0  0  0  0  0  0  0  0  0  0  0  0
   -2.0487    3.4250   -0.3826 H   0  0  0  0  0  0  0  0  0  0  0  0
  1  2  2  0  0  0  0
  2  3  1  0  0  0  0
  3  4  2  0  0  0  0
  4  5  1  0  0  0  0
  5  6  2  0  0  0  0
  1  6  1  0  0  0  0
  6  7  1  0  0  0  0
  4  8  1  0  0  0  0
  3  9  1  0  0  0  0
  9 10  2  0  0  0  0
 10 11  1  0  0  0  0
 11 12  1  0  0  0  0
 12 13  2  0  0  0  0
 13 14  1  0  0  0  0
  9 14  1  0  0  0  0
 14 15  2  0  0  0  0
 13 16  1  0  0  0  0
 16 17  2  0  0  0  0
 17 18  1  0  0  0  0
 18 19  2  0  0  0  0
 12 19  1  0  0  0  0
 19 20  1  0  0  0  0
 18 21  1  0  0  0  0
 16 22  1  0  0  0  0
  1 23  1  0  0  0  0
  2 24  1  0  0  0  0
  5 25  1  0  0  0  0
  7 26  1  0  0  0  0
  8 27  1  0  0  0  0
 10 28  1  0  0  0  0
 17 29  1  0  0  0  0
 20 30  1  0  0  0  0
 21 31  1  0  0  0  0
 22 32  1  0  0  0  0
M  END
$$$$
