C14H14O3
APtclcactv06211806533D 0   0.00000     0.00000
 
 31 32  0  0  0  0  0  0  0  0999 V2000
    1.5760    3.5747   -0.2198 C   0  0  0  0  0  0  0  0  0  0  0  0
    2.3533    2.3782   -0.1409 O   0  0  0  0  0  0  0  0  0  0  0  0
    1.6725    1.2033   -0.0678 C   0  0  0  0  0  0  0  0  0  0  0  0
    0.2882    1.2044   -0.0721 C   0  0  0  0  0  0  0  0  0  0  0  0
   -0.4091    0.0003    0.0029 C   0  0  0  0  0  0  0  0  0  0  0  0
    0.2883   -1.2034    0.0820 C   0  0  0  0  0  0  0  0  0  0  0  0
    1.6726   -1.2015    0.0860 C   0  0  0  0  0  0  0  0  0  0  0  0
    2.3673    0.0007    0.0055 C   0  0  0  0  0  0  0  0  0  0  0  0
    3.7278    0.0010    0.0091 O   0  0  0  0  0  0  0  0  0  0  0  0
    2.3537   -2.3761    0.1632 O   0  0  0  0  0  0  0  0  0  0  0  0
    1.5765   -3.5730    0.2374 C   0  0  0  0  0  0  0  0  0  0  0  0
   -1.8928   -0.0000   -0.0011 C   0  0  0  0  0  0  0  0  0  0  0  0
   -2.5900   -0.9744   -0.7128 C   0  0  0  0  0  0  0  0  0  0  0  0
   -3.9701   -0.9699   -0.7130 C   0  0  0  0  0  0  0  0  0  0  0  0
   -4.6613   -0.0004   -0.0090 C   0  0  0  0  0  0  0  0  0  0  0  0
   -3.9743    0.9692    0.6992 C   0  0  0  0  0  0  0  0  0  0  0  0
   -2.5942    0.9706    0.7115 C   0  0  0  0  0  0  0  0  0  0  0  0
    2.2406    4.4370   -0.2729 H   0  0  0  0  0  0  0  0  0  0  0  0
    0.9499    3.5431   -1.1114 H   0  0  0  0  0  0  0  0  0  0  0  0
    0.9445    3.6567    0.6649 H   0  0  0  0  0  0  0  0  0  0  0  0
   -0.2511    2.1382   -0.1331 H   0  0  0  0  0  0  0  0  0  0  0  0
   -0.2508   -2.1374    0.1404 H   0  0  0  0  0  0  0  0  0  0  0  0
    4.1235   -0.0593   -0.8712 H   0  0  0  0  0  0  0  0  0  0  0  0
    0.9450   -3.5417    1.1253 H   0  0  0  0  0  0  0  0  0  0  0  0
    0.9504   -3.6553   -0.6510 H   0  0  0  0  0  0  0  0  0  0  0  0
    2.2412   -4.4349    0.2946 H   0  0  0  0  0  0  0  0  0  0  0  0
   -2.0513   -1.7314   -1.2634 H   0  0  0  0  0  0  0  0  0  0  0  0
   -4.5115   -1.7245   -1.2642 H   0  0  0  0  0  0  0  0  0  0  0  0
   -5.7412   -0.0002   -0.0125 H   0  0  0  0  0  0  0  0  0  0  0  0
   -4.5190    1.7240    1.2468 H   0  0  0  0  0  0  0  0  0  0  0  0
   -2.0589    1.7281    1.2647 H   0  0  0  0  0  0  0  0  0  0  0  0
  1  2  1  0  0  0  0
  2  3  1  0  0  0  0
  3  4  2  0  0  0  0
  4  5  1  0  0  0  0
  5  6  2  0  0  0  0
  6  7  1  0  0  0  0
  7  8  2  0  0  0  0
  3  8  1  0  0  0  0
  8  9  1  0  0  0  0
  7 10  1  0  0  0  0
 10 11  1  0  0  0  0
  5 12  1  0  0  0  0
 12 13  2  0  0  0  0
 13 14  1  0  0  0  0
 14 15  2  0  0  0  0
 15 16  1  0  0  0  0
 16 17  2  0  0  0  0
 12 17  1  0  0  0  0
  1 18  1  0  0  0  0
  1 19  1  0  0  0  0
  1 20  1  0  0  0  0
  4 21  1  0  0  0  0
  6 22  1  0  0  0  0
  9 23  1  0  0  0  0
 11 24  1  0  0  0  0
 11 25  1  0  0  0  0
 11 26  1  0  0  0  0
 13 27  1  0  0  0  0
 14 28  1  0  0  0  0
 15 29  1  0  0  0  0
 16 30  1  0  0  0  0
 17 31  1  0  0  0  0
M  END
$$$$
