C17H14O5
APtclcactv06291802513D 0   0.00000     0.00000
 
 36 38  0  0  0  0  0  0  0  0999 V2000
    5.2408   -0.3214    0.0044 C   0  0  0  0  0  0  0  0  0  0  0  0
    3.7537   -0.0774    0.0041 C   0  0  0  0  0  0  0  0  0  0  0  0
    3.2644    1.2240    0.0010 C   0  0  0  0  0  0  0  0  0  0  0  0
    1.8991    1.4657    0.0011 C   0  0  0  0  0  0  0  0  0  0  0  0
    1.0069    0.4052    0.0045 C   0  0  0  0  0  0  0  0  0  0  0  0
    1.4989   -0.9116    0.0073 C   0  0  0  0  0  0  0  0  0  0  0  0
    2.8790   -1.1485    0.0014 C   0  0  0  0  0  0  0  0  0  0  0  0
    3.3545   -2.4195    0.0041 O   0  0  0  0  0  0  0  0  0  0  0  0
    0.5324   -2.0228    0.0110 C   0  0  0  0  0  0  0  0  0  0  0  0
    0.9030   -3.1856    0.0139 O   0  0  0  0  0  0  0  0  0  0  0  0
   -0.8429   -1.6896    0.0116 C   0  0  0  0  0  0  0  0  0  0  0  0
   -1.2160   -0.3815    0.0087 C   0  0  0  0  0  0  0  0  0  0  0  0
   -0.3254    0.6230    0.0056 O   0  0  0  0  0  0  0  0  0  0  0  0
   -2.6543   -0.0542    0.0093 C   0  0  0  0  0  0  0  0  0  0  0  0
   -3.0694    1.2804    0.0064 C   0  0  0  0  0  0  0  0  0  0  0  0
   -4.4133    1.5816    0.0065 C   0  0  0  0  0  0  0  0  0  0  0  0
   -5.3562    0.5606    0.0096 C   0  0  0  0  0  0  0  0  0  0  0  0
   -4.9479   -0.7678    0.0129 C   0  0  0  0  0  0  0  0  0  0  0  0
   -3.6060   -1.0779    0.0070 C   0  0  0  0  0  0  0  0  0  0  0  0
   -6.6800    0.8619    0.0097 O   0  0  0  0  0  0  0  0  0  0  0  0
    4.1319    2.2682   -0.0019 O   0  0  0  0  0  0  0  0  0  0  0  0
    3.5670    3.5809   -0.0051 C   0  0  0  0  0  0  0  0  0  0  0  0
    5.5997   -0.3776    1.0321 H   0  0  0  0  0  0  0  0  0  0  0  0
    5.4552   -1.2597   -0.5071 H   0  0  0  0  0  0  0  0  0  0  0  0
    5.7433    0.4967   -0.5117 H   0  0  0  0  0  0  0  0  0  0  0  0
    1.5307    2.4809   -0.0010 H   0  0  0  0  0  0  0  0  0  0  0  0
    3.4879   -2.7914   -0.8785 H   0  0  0  0  0  0  0  0  0  0  0  0
   -1.5911   -2.4684    0.0139 H   0  0  0  0  0  0  0  0  0  0  0  0
   -2.3373    2.0745    0.0043 H   0  0  0  0  0  0  0  0  0  0  0  0
   -4.7349    2.6126    0.0046 H   0  0  0  0  0  0  0  0  0  0  0  0
   -5.6840   -1.5581    0.0160 H   0  0  0  0  0  0  0  0  0  0  0  0
   -3.2896   -2.1105    0.0093 H   0  0  0  0  0  0  0  0  0  0  0  0
   -7.0640    0.9470   -0.8737 H   0  0  0  0  0  0  0  0  0  0  0  0
    2.9512    3.7092   -0.8953 H   0  0  0  0  0  0  0  0  0  0  0  0
    2.9516    3.7138    0.8847 H   0  0  0  0  0  0  0  0  0  0  0  0
    4.3674    4.3208   -0.0072 H   0  0  0  0  0  0  0  0  0  0  0  0
  1  2  1  0  0  0  0
  2  3  2  0  0  0  0
  3  4  1  0  0  0  0
  4  5  2  0  0  0  0
  5  6  1  0  0  0  0
  6  7  2  0  0  0  0
  2  7  1  0  0  0  0
  7  8  1  0  0  0  0
  6  9  1  0  0  0  0
  9 10  2  0  0  0  0
  9 11  1  0  0  0  0
 11 12  2  0  0  0  0
 12 13  1  0  0  0  0
  5 13  1  0  0  0  0
 12 14  1  0  0  0  0
 14 15  2  0  0  0  0
 15 16  1  0  0  0  0
 16 17  2  0  0  0  0
 17 18  1  0  0  0  0
 18 19  2  0  0  0  0
 14 19  1  0  0  0  0
 17 20  1  0  0  0  0
  3 21  1  0  0  0  0
 21 22  1  0  0  0  0
  1 23  1  0  0  0  0
  1 24  1  0  0  0  0
  1 25  1  0  0  0  0
  4 26  1  0  0  0  0
  8 27  1  0  0  0  0
 11 28  1  0  0  0  0
 15 29  1  0  0  0  0
 16 30  1  0  0  0  0
 18 31  1  0  0  0  0
 19 32  1  0  0  0  0
 20 33  1  0  0  0  0
 22 34  1  0  0  0  0
 22 35  1  0  0  0  0
 22 36  1  0  0  0  0
M  END
$$$$
