C16H12O9S
APtclcactv06291802513D 0   0.00000     0.00000
 
 38 40  0  0  0  0  0  0  0  0999 V2000
   -6.4724    1.8576    0.3235 C   0  0  0  0  0  0  0  0  0  0  0  0
   -5.1494    2.3966    0.3600 O   0  0  0  0  0  0  0  0  0  0  0  0
   -4.1247    1.5293    0.1582 C   0  0  0  0  0  0  0  0  0  0  0  0
   -4.3958    0.1846   -0.0703 C   0  0  0  0  0  0  0  0  0  0  0  0
   -3.3600   -0.7074   -0.2775 C   0  0  0  0  0  0  0  0  0  0  0  0
   -2.0374   -0.2462   -0.2553 C   0  0  0  0  0  0  0  0  0  0  0  0
   -1.7662    1.1140   -0.0240 C   0  0  0  0  0  0  0  0  0  0  0  0
   -2.8187    1.9938    0.1763 C   0  0  0  0  0  0  0  0  0  0  0  0
   -0.4893    1.5502   -0.0039 O   0  0  0  0  0  0  0  0  0  0  0  0
    0.5546    0.7263   -0.1988 C   0  0  0  0  0  0  0  0  0  0  0  0
    0.3997   -0.6074   -0.4310 C   0  0  0  0  0  0  0  0  0  0  0  0
   -0.9058   -1.1620   -0.4706 C   0  0  0  0  0  0  0  0  0  0  0  0
   -1.0833   -2.3521   -0.6757 O   0  0  0  0  0  0  0  0  0  0  0  0
    1.4883   -1.4011   -0.6234 O   0  0  0  0  0  0  0  0  0  0  0  0
    1.6632   -2.4796    0.4362 S   0  0  0  0  0  0  0  0  0  0  0  0
    2.9843   -2.9806    0.2847 O   0  0  0  0  0  0  0  0  0  0  0  0
    1.1752   -1.9300    1.6524 O   0  0  0  0  0  0  0  0  0  0  0  0
    0.7258   -3.6228    0.0745 O   0  0  0  0  0  0  0  0  0  0  0  0
    1.9180    1.2865   -0.1602 C   0  0  0  0  0  0  0  0  0  0  0  0
    2.7567    1.1672   -1.2723 C   0  0  0  0  0  0  0  0  0  0  0  0
    4.0294    1.6925   -1.2319 C   0  0  0  0  0  0  0  0  0  0  0  0
    4.4802    2.3399   -0.0880 C   0  0  0  0  0  0  0  0  0  0  0  0
    3.6501    2.4608    1.0197 C   0  0  0  0  0  0  0  0  0  0  0  0
    2.3738    1.9436    0.9863 C   0  0  0  0  0  0  0  0  0  0  0  0
    5.7359    2.8554   -0.0524 O   0  0  0  0  0  0  0  0  0  0  0  0
   -3.6225   -2.0202   -0.5002 O   0  0  0  0  0  0  0  0  0  0  0  0
   -6.6555    1.4100   -0.6534 H   0  0  0  0  0  0  0  0  0  0  0  0
   -6.5761    1.0966    1.0969 H   0  0  0  0  0  0  0  0  0  0  0  0
   -7.1945    2.6549    0.4990 H   0  0  0  0  0  0  0  0  0  0  0  0
   -5.4179   -0.1638   -0.0856 H   0  0  0  0  0  0  0  0  0  0  0  0
   -2.6207    3.0405    0.3544 H   0  0  0  0  0  0  0  0  0  0  0  0
    0.8107   -4.3973    0.6473 H   0  0  0  0  0  0  0  0  0  0  0  0
    2.4074    0.6636   -2.1615 H   0  0  0  0  0  0  0  0  0  0  0  0
    4.6780    1.6008   -2.0906 H   0  0  0  0  0  0  0  0  0  0  0  0
    4.0047    2.9644    1.9068 H   0  0  0  0  0  0  0  0  0  0  0  0
    1.7292    2.0384    1.8476 H   0  0  0  0  0  0  0  0  0  0  0  0
    5.7936    3.7719   -0.3556 H   0  0  0  0  0  0  0  0  0  0  0  0
   -3.7386   -2.2452   -1.4335 H   0  0  0  0  0  0  0  0  0  0  0  0
  1  2  1  0  0  0  0
  2  3  1  0  0  0  0
  3  4  2  0  0  0  0
  4  5  1  0  0  0  0
  5  6  2  0  0  0  0
  6  7  1  0  0  0  0
  7  8  2  0  0  0  0
  3  8  1  0  0  0  0
  7  9  1  0  0  0  0
  9 10  1  0  0  0  0
 10 11  2  0  0  0  0
 11 12  1  0  0  0  0
  6 12  1  0  0  0  0
 12 13  2  0  0  0  0
 11 14  1  0  0  0  0
 14 15  1  0  0  0  0
 15 16  2  0  0  0  0
 15 17  2  0  0  0  0
 15 18  1  0  0  0  0
 10 19  1  0  0  0  0
 19 20  2  0  0  0  0
 20 21  1  0  0  0  0
 21 22  2  0  0  0  0
 22 23  1  0  0  0  0
 23 24  2  0  0  0  0
 19 24  1  0  0  0  0
 22 25  1  0  0  0  0
  5 26  1  0  0  0  0
  1 27  1  0  0  0  0
  1 28  1  0  0  0  0
  1 29  1  0  0  0  0
  4 30  1  0  0  0  0
  8 31  1  0  0  0  0
 18 32  1  0  0  0  0
 20 33  1  0  0  0  0
 21 34  1  0  0  0  0
 23 35  1  0  0  0  0
 24 36  1  0  0  0  0
 25 37  1  0  0  0  0
 26 38  1  0  0  0  0
M  END
$$$$
