C26H28O6
APtclcactv06291802503D 0   0.00000     0.00000
 
 60 62  0  0  0  0  0  0  0  0999 V2000
   -6.3314    1.9104    0.2535 C   0  0  0  0  0  0  0  0  0  0  0  0
   -6.1481    0.6569    1.0697 C   0  0  0  0  0  0  0  0  0  0  0  0
   -5.4812   -0.3558    0.5739 C   0  0  0  0  0  0  0  0  0  0  0  0
   -4.8104   -0.2310   -0.7698 C   0  0  0  0  0  0  0  0  0  0  0  0
   -3.3478   -0.5677   -0.6342 C   0  0  0  0  0  0  0  0  0  0  0  0
   -2.9197   -1.8798   -0.8017 C   0  0  0  0  0  0  0  0  0  0  0  0
   -1.5775   -2.2061   -0.6803 C   0  0  0  0  0  0  0  0  0  0  0  0
   -0.6476   -1.2206   -0.3893 C   0  0  0  0  0  0  0  0  0  0  0  0
   -1.0777    0.1067   -0.2195 C   0  0  0  0  0  0  0  0  0  0  0  0
   -2.4337    0.4302   -0.3491 C   0  0  0  0  0  0  0  0  0  0  0  0
   -2.8494    1.7117   -0.1853 O   0  0  0  0  0  0  0  0  0  0  0  0
   -0.0718    1.1377    0.0893 C   0  0  0  0  0  0  0  0  0  0  0  0
   -0.3891    2.3057    0.2471 O   0  0  0  0  0  0  0  0  0  0  0  0
    1.2749    0.7218    0.1961 C   0  0  0  0  0  0  0  0  0  0  0  0
    1.5889   -0.5907    0.0135 C   0  0  0  0  0  0  0  0  0  0  0  0
    0.6629   -1.5215   -0.2673 O   0  0  0  0  0  0  0  0  0  0  0  0
    2.9975   -1.0048    0.1288 C   0  0  0  0  0  0  0  0  0  0  0  0
    3.6522   -0.9383    1.3681 C   0  0  0  0  0  0  0  0  0  0  0  0
    4.9759   -1.3299    1.4678 C   0  0  0  0  0  0  0  0  0  0  0  0
    5.6516   -1.7858    0.3454 C   0  0  0  0  0  0  0  0  0  0  0  0
    5.0041   -1.8525   -0.8843 C   0  0  0  0  0  0  0  0  0  0  0  0
    3.6864   -1.4715   -0.9952 C   0  0  0  0  0  0  0  0  0  0  0  0
    6.9502   -2.1682    0.4471 O   0  0  0  0  0  0  0  0  0  0  0  0
    2.9898   -0.4912    2.4650 O   0  0  0  0  0  0  0  0  0  0  0  0
    2.3558    1.7240    0.5095 C   0  0  0  0  0  0  0  0  0  0  0  0
    2.7965    2.4018   -0.7623 C   0  0  0  0  0  0  0  0  0  0  0  0
    2.6950    3.7025   -0.8804 C   0  0  0  0  0  0  0  0  0  0  0  0
    2.0244    4.5074    0.2028 C   0  0  0  0  0  0  0  0  0  0  0  0
    3.2490    4.3939   -2.0995 C   0  0  0  0  0  0  0  0  0  0  0  0
   -3.8246   -2.8509   -1.0864 O   0  0  0  0  0  0  0  0  0  0  0  0
   -3.3220   -4.1790   -1.2467 C   0  0  0  0  0  0  0  0  0  0  0  0
   -6.7318    0.5685    2.4562 C   0  0  0  0  0  0  0  0  0  0  0  0
   -6.7826    1.6567   -0.7057 H   0  0  0  0  0  0  0  0  0  0  0  0
   -6.9821    2.6012    0.7897 H   0  0  0  0  0  0  0  0  0  0  0  0
   -5.3621    2.3801    0.0861 H   0  0  0  0  0  0  0  0  0  0  0  0
   -5.4123   -1.2802    1.1281 H   0  0  0  0  0  0  0  0  0  0  0  0
   -5.2778   -0.9188   -1.4745 H   0  0  0  0  0  0  0  0  0  0  0  0
   -4.9158    0.7906   -1.1350 H   0  0  0  0  0  0  0  0  0  0  0  0
   -1.2567   -3.2288   -0.8121 H   0  0  0  0  0  0  0  0  0  0  0  0
   -2.8520    2.2316   -1.0006 H   0  0  0  0  0  0  0  0  0  0  0  0
    5.4832   -1.2802    2.4199 H   0  0  0  0  0  0  0  0  0  0  0  0
    5.5363   -2.2085   -1.7540 H   0  0  0  0  0  0  0  0  0  0  0  0
    3.1872   -1.5246   -1.9514 H   0  0  0  0  0  0  0  0  0  0  0  0
    7.0692   -3.1046    0.6571 H   0  0  0  0  0  0  0  0  0  0  0  0
    2.6044   -1.1943    3.0055 H   0  0  0  0  0  0  0  0  0  0  0  0
    1.9692    2.4702    1.2037 H   0  0  0  0  0  0  0  0  0  0  0  0
    3.2054    1.2126    0.9618 H   0  0  0  0  0  0  0  0  0  0  0  0
    3.1959    1.8151   -1.5764 H   0  0  0  0  0  0  0  0  0  0  0  0
    2.7474    4.7367    0.9855 H   0  0  0  0  0  0  0  0  0  0  0  0
    1.6397    5.4357   -0.2197 H   0  0  0  0  0  0  0  0  0  0  0  0
    1.2010    3.9321    0.6260 H   0  0  0  0  0  0  0  0  0  0  0  0
    2.4785    4.4469   -2.8687 H   0  0  0  0  0  0  0  0  0  0  0  0
    3.5661    5.4020   -1.8328 H   0  0  0  0  0  0  0  0  0  0  0  0
    4.1030    3.8327   -2.4788 H   0  0  0  0  0  0  0  0  0  0  0  0
   -2.8323   -4.4958   -0.3259 H   0  0  0  0  0  0  0  0  0  0  0  0
   -4.1471   -4.8551   -1.4706 H   0  0  0  0  0  0  0  0  0  0  0  0
   -2.6033   -4.1991   -2.0660 H   0  0  0  0  0  0  0  0  0  0  0  0
   -7.7430    0.1654    2.3997 H   0  0  0  0  0  0  0  0  0  0  0  0
   -6.1133   -0.0866    3.0697 H   0  0  0  0  0  0  0  0  0  0  0  0
   -6.7614    1.5627    2.9021 H   0  0  0  0  0  0  0  0  0  0  0  0
  1  2  1  0  0  0  0
  2  3  2  0  0  0  0
  3  4  1  0  0  0  0
  4  5  1  0  0  0  0
  5  6  2  0  0  0  0
  6  7  1  0  0  0  0
  7  8  2  0  0  0  0
  8  9  1  0  0  0  0
  9 10  2  0  0  0  0
  5 10  1  0  0  0  0
 10 11  1  0  0  0  0
  9 12  1  0  0  0  0
 12 13  2  0  0  0  0
 12 14  1  0  0  0  0
 14 15  2  0  0  0  0
 15 16  1  0  0  0  0
  8 16  1  0  0  0  0
 15 17  1  0  0  0  0
 17 18  2  0  0  0  0
 18 19  1  0  0  0  0
 19 20  2  0  0  0  0
 20 21  1  0  0  0  0
 21 22  2  0  0  0  0
 17 22  1  0  0  0  0
 20 23  1  0  0  0  0
 18 24  1  0  0  0  0
 14 25  1  0  0  0  0
 25 26  1  0  0  0  0
 26 27  2  0  0  0  0
 27 28  1  0  0  0  0
 27 29  1  0  0  0  0
  6 30  1  0  0  0  0
 30 31  1  0  0  0  0
  2 32  1  0  0  0  0
  1 33  1  0  0  0  0
  1 34  1  0  0  0  0
  1 35  1  0  0  0  0
  3 36  1  0  0  0  0
  4 37  1  0  0  0  0
  4 38  1  0  0  0  0
  7 39  1  0  0  0  0
 11 40  1  0  0  0  0
 19 41  1  0  0  0  0
 21 42  1  0  0  0  0
 22 43  1  0  0  0  0
 23 44  1  0  0  0  0
 24 45  1  0  0  0  0
 25 46  1  0  0  0  0
 25 47  1  0  0  0  0
 26 48  1  0  0  0  0
 28 49  1  0  0  0  0
 28 50  1  0  0  0  0
 28 51  1  0  0  0  0
 29 52  1  0  0  0  0
 29 53  1  0  0  0  0
 29 54  1  0  0  0  0
 31 55  1  0  0  0  0
 31 56  1  0  0  0  0
 31 57  1  0  0  0  0
 32 58  1  0  0  0  0
 32 59  1  0  0  0  0
 32 60  1  0  0  0  0
M  END
$$$$
