C19H18O7
APtclcactv06291802513D 0   0.00000     0.00000
 
 44 46  0  0  0  0  0  0  0  0999 V2000
    5.7806    0.1172    0.1514 C   0  0  0  0  0  0  0  0  0  0  0  0
    4.2845    0.2521    0.0305 C   0  0  0  0  0  0  0  0  0  0  0  0
    3.7148    1.5052   -0.1667 C   0  0  0  0  0  0  0  0  0  0  0  0
    2.3404    1.6469   -0.2800 C   0  0  0  0  0  0  0  0  0  0  0  0
    1.5186    0.5335   -0.1971 C   0  0  0  0  0  0  0  0  0  0  0  0
    2.0921   -0.7348    0.0023 C   0  0  0  0  0  0  0  0  0  0  0  0
    3.4822   -0.8710    0.1102 C   0  0  0  0  0  0  0  0  0  0  0  0
    4.0364   -2.0949    0.3022 O   0  0  0  0  0  0  0  0  0  0  0  0
    1.2019   -1.9035    0.0875 C   0  0  0  0  0  0  0  0  0  0  0  0
    1.6457   -3.0276    0.2601 O   0  0  0  0  0  0  0  0  0  0  0  0
   -0.1925   -1.6728   -0.0383 C   0  0  0  0  0  0  0  0  0  0  0  0
   -0.6470   -0.4026   -0.2297 C   0  0  0  0  0  0  0  0  0  0  0  0
    0.1790    0.6551   -0.3050 O   0  0  0  0  0  0  0  0  0  0  0  0
   -2.0990   -0.1800   -0.3584 C   0  0  0  0  0  0  0  0  0  0  0  0
   -2.7197    0.8359    0.3740 C   0  0  0  0  0  0  0  0  0  0  0  0
   -4.0805    1.0404    0.2492 C   0  0  0  0  0  0  0  0  0  0  0  0
   -4.8310    0.2345   -0.6050 C   0  0  0  0  0  0  0  0  0  0  0  0
   -4.2150   -0.7746   -1.3321 C   0  0  0  0  0  0  0  0  0  0  0  0
   -2.8570   -0.9806   -1.2175 C   0  0  0  0  0  0  0  0  0  0  0  0
   -6.1692    0.4370   -0.7260 O   0  0  0  0  0  0  0  0  0  0  0  0
   -4.6877    2.0279    0.9603 O   0  0  0  0  0  0  0  0  0  0  0  0
   -3.8576    2.8151    1.8167 C   0  0  0  0  0  0  0  0  0  0  0  0
   -1.0688   -2.7117    0.0312 O   0  0  0  0  0  0  0  0  0  0  0  0
   -1.1710   -3.3915    1.2840 C   0  0  0  0  0  0  0  0  0  0  0  0
    4.5124    2.6007   -0.2485 O   0  0  0  0  0  0  0  0  0  0  0  0
    3.8669    3.8594   -0.4517 C   0  0  0  0  0  0  0  0  0  0  0  0
    6.0706    0.2126    1.1978 H   0  0  0  0  0  0  0  0  0  0  0  0
    6.0889   -0.8588   -0.2235 H   0  0  0  0  0  0  0  0  0  0  0  0
    6.2644    0.9001   -0.4325 H   0  0  0  0  0  0  0  0  0  0  0  0
    1.9096    2.6254   -0.4326 H   0  0  0  0  0  0  0  0  0  0  0  0
    4.2540   -2.5609   -0.5167 H   0  0  0  0  0  0  0  0  0  0  0  0
   -2.1371    1.4592    1.0362 H   0  0  0  0  0  0  0  0  0  0  0  0
   -4.8005   -1.3969   -1.9926 H   0  0  0  0  0  0  0  0  0  0  0  0
   -2.3802   -1.7663   -1.7847 H   0  0  0  0  0  0  0  0  0  0  0  0
   -6.4110    1.0619   -1.4232 H   0  0  0  0  0  0  0  0  0  0  0  0
   -3.3839    2.1700    2.5567 H   0  0  0  0  0  0  0  0  0  0  0  0
   -3.0900    3.3113    1.2228 H   0  0  0  0  0  0  0  0  0  0  0  0
   -4.4656    3.5642    2.3237 H   0  0  0  0  0  0  0  0  0  0  0  0
   -1.3923   -2.6710    2.0713 H   0  0  0  0  0  0  0  0  0  0  0  0
   -1.9707   -4.1304    1.2322 H   0  0  0  0  0  0  0  0  0  0  0  0
   -0.2278   -3.8918    1.5039 H   0  0  0  0  0  0  0  0  0  0  0  0
    3.3073    3.8340   -1.3867 H   0  0  0  0  0  0  0  0  0  0  0  0
    3.1842    4.0553    0.3752 H   0  0  0  0  0  0  0  0  0  0  0  0
    4.6169    4.6490   -0.4984 H   0  0  0  0  0  0  0  0  0  0  0  0
  1  2  1  0  0  0  0
  2  3  2  0  0  0  0
  3  4  1  0  0  0  0
  4  5  2  0  0  0  0
  5  6  1  0  0  0  0
  6  7  2  0  0  0  0
  2  7  1  0  0  0  0
  7  8  1  0  0  0  0
  6  9  1  0  0  0  0
  9 10  2  0  0  0  0
  9 11  1  0  0  0  0
 11 12  2  0  0  0  0
 12 13  1  0  0  0  0
  5 13  1  0  0  0  0
 12 14  1  0  0  0  0
 14 15  2  0  0  0  0
 15 16  1  0  0  0  0
 16 17  2  0  0  0  0
 17 18  1  0  0  0  0
 18 19  2  0  0  0  0
 14 19  1  0  0  0  0
 17 20  1  0  0  0  0
 16 21  1  0  0  0  0
 21 22  1  0  0  0  0
 11 23  1  0  0  0  0
 23 24  1  0  0  0  0
  3 25  1  0  0  0  0
 25 26  1  0  0  0  0
  1 27  1  0  0  0  0
  1 28  1  0  0  0  0
  1 29  1  0  0  0  0
  4 30  1  0  0  0  0
  8 31  1  0  0  0  0
 15 32  1  0  0  0  0
 18 33  1  0  0  0  0
 19 34  1  0  0  0  0
 20 35  1  0  0  0  0
 22 36  1  0  0  0  0
 22 37  1  0  0  0  0
 22 38  1  0  0  0  0
 24 39  1  0  0  0  0
 24 40  1  0  0  0  0
 24 41  1  0  0  0  0
 26 42  1  0  0  0  0
 26 43  1  0  0  0  0
 26 44  1  0  0  0  0
M  END
$$$$
