C20H18O7
APtclcactv06291802503D 0   0.00000     0.00000
 
 45 47  0  0  0  0  0  0  0  0999 V2000
    6.8137   -0.2295   -1.6745 C   0  0  0  0  0  0  0  0  0  0  0  0
    6.2923    0.3147   -0.3430 C   0  0  0  0  0  0  0  0  0  0  0  0
    6.9626    1.6571   -0.0432 C   0  0  0  0  0  0  0  0  0  0  0  0
    4.8000    0.5064   -0.4284 C   0  0  0  0  0  0  0  0  0  0  0  0
    3.9985   -0.1482    0.4018 C   0  0  0  0  0  0  0  0  0  0  0  0
    2.5365    0.0396    0.3181 C   0  0  0  0  0  0  0  0  0  0  0  0
    1.9936    1.3334    0.2960 C   0  0  0  0  0  0  0  0  0  0  0  0
    0.6247    1.5189    0.2177 C   0  0  0  0  0  0  0  0  0  0  0  0
   -0.2268    0.4251    0.1607 C   0  0  0  0  0  0  0  0  0  0  0  0
    0.3080   -0.8756    0.1823 C   0  0  0  0  0  0  0  0  0  0  0  0
    1.6906   -1.0700    0.2550 C   0  0  0  0  0  0  0  0  0  0  0  0
    2.2051   -2.3248    0.2757 O   0  0  0  0  0  0  0  0  0  0  0  0
   -0.6199   -2.0187    0.1205 C   0  0  0  0  0  0  0  0  0  0  0  0
   -0.2109   -3.1687    0.1363 O   0  0  0  0  0  0  0  0  0  0  0  0
   -2.0017   -1.7322    0.0428 C   0  0  0  0  0  0  0  0  0  0  0  0
   -2.4187   -0.4358    0.0279 C   0  0  0  0  0  0  0  0  0  0  0  0
   -1.5638    0.5978    0.0850 O   0  0  0  0  0  0  0  0  0  0  0  0
   -3.8624   -0.1571   -0.0539 C   0  0  0  0  0  0  0  0  0  0  0  0
   -4.3326    1.1607    0.0513 C   0  0  0  0  0  0  0  0  0  0  0  0
   -5.6912    1.4138   -0.0266 C   0  0  0  0  0  0  0  0  0  0  0  0
   -6.5832    0.3672   -0.2082 C   0  0  0  0  0  0  0  0  0  0  0  0
   -6.1188   -0.9402   -0.3127 C   0  0  0  0  0  0  0  0  0  0  0  0
   -4.7701   -1.2042   -0.2426 C   0  0  0  0  0  0  0  0  0  0  0  0
   -7.9150    0.6195   -0.2837 O   0  0  0  0  0  0  0  0  0  0  0  0
   -3.4585    2.1835    0.2293 O   0  0  0  0  0  0  0  0  0  0  0  0
    2.8170    2.4104    0.3523 O   0  0  0  0  0  0  0  0  0  0  0  0
    6.5944   -0.6123    0.7016 O   0  0  0  0  0  0  0  0  0  0  0  0
    7.8930   -0.3682   -1.6127 H   0  0  0  0  0  0  0  0  0  0  0  0
    6.3361   -1.1858   -1.8880 H   0  0  0  0  0  0  0  0  0  0  0  0
    6.5832    0.4776   -2.4713 H   0  0  0  0  0  0  0  0  0  0  0  0
    6.7321    2.3642   -0.8401 H   0  0  0  0  0  0  0  0  0  0  0  0
    6.5912    2.0448    0.9053 H   0  0  0  0  0  0  0  0  0  0  0  0
    8.0420    1.5184    0.0186 H   0  0  0  0  0  0  0  0  0  0  0  0
    4.3830    1.1767   -1.1655 H   0  0  0  0  0  0  0  0  0  0  0  0
    4.4155   -0.8184    1.1389 H   0  0  0  0  0  0  0  0  0  0  0  0
    0.2174    2.5190    0.2013 H   0  0  0  0  0  0  0  0  0  0  0  0
    2.4013   -2.6840   -0.6004 H   0  0  0  0  0  0  0  0  0  0  0  0
   -2.7218   -2.5356   -0.0048 H   0  0  0  0  0  0  0  0  0  0  0  0
   -6.0569    2.4268    0.0543 H   0  0  0  0  0  0  0  0  0  0  0  0
   -6.8190   -1.7503   -0.4536 H   0  0  0  0  0  0  0  0  0  0  0  0
   -4.4134   -2.2203   -0.3245 H   0  0  0  0  0  0  0  0  0  0  0  0
   -8.2333    0.7870   -1.1813 H   0  0  0  0  0  0  0  0  0  0  0  0
   -3.1371    2.5741   -0.5948 H   0  0  0  0  0  0  0  0  0  0  0  0
    3.1074    2.7292   -0.5133 H   0  0  0  0  0  0  0  0  0  0  0  0
    6.2011   -1.4869    0.5773 H   0  0  0  0  0  0  0  0  0  0  0  0
  1  2  1  0  0  0  0
  2  3  1  0  0  0  0
  2  4  1  0  0  0  0
  4  5  2  0  0  0  0
  5  6  1  0  0  0  0
  6  7  2  0  0  0  0
  7  8  1  0  0  0  0
  8  9  2  0  0  0  0
  9 10  1  0  0  0  0
 10 11  2  0  0  0  0
  6 11  1  0  0  0  0
 11 12  1  0  0  0  0
 10 13  1  0  0  0  0
 13 14  2  0  0  0  0
 13 15  1  0  0  0  0
 15 16  2  0  0  0  0
 16 17  1  0  0  0  0
  9 17  1  0  0  0  0
 16 18  1  0  0  0  0
 18 19  2  0  0  0  0
 19 20  1  0  0  0  0
 20 21  2  0  0  0  0
 21 22  1  0  0  0  0
 22 23  2  0  0  0  0
 18 23  1  0  0  0  0
 21 24  1  0  0  0  0
 19 25  1  0  0  0  0
  7 26  1  0  0  0  0
  2 27  1  0  0  0  0
  1 28  1  0  0  0  0
  1 29  1  0  0  0  0
  1 30  1  0  0  0  0
  3 31  1  0  0  0  0
  3 32  1  0  0  0  0
  3 33  1  0  0  0  0
  4 34  1  0  0  0  0
  5 35  1  0  0  0  0
  8 36  1  0  0  0  0
 12 37  1  0  0  0  0
 15 38  1  0  0  0  0
 20 39  1  0  0  0  0
 22 40  1  0  0  0  0
 23 41  1  0  0  0  0
 24 42  1  0  0  0  0
 25 43  1  0  0  0  0
 26 44  1  0  0  0  0
 27 45  1  0  0  0  0
M  END
$$$$
