C20H20O9
APtclcactv06291802513D 0   0.00000     0.00000
 
 49 51  0  0  0  0  0  0  0  0999 V2000
   -2.4625   -2.6042    2.2434 C   0  0  0  0  0  0  0  0  0  0  0  0
   -1.8417   -1.5611    1.4893 O   0  0  0  0  0  0  0  0  0  0  0  0
   -2.6277   -0.8800    0.6159 C   0  0  0  0  0  0  0  0  0  0  0  0
   -3.9878   -1.1313    0.5656 C   0  0  0  0  0  0  0  0  0  0  0  0
   -4.7909   -0.4360   -0.3255 C   0  0  0  0  0  0  0  0  0  0  0  0
   -4.2339    0.5192   -1.1750 C   0  0  0  0  0  0  0  0  0  0  0  0
   -2.8786    0.7779   -1.1333 C   0  0  0  0  0  0  0  0  0  0  0  0
   -2.0638    0.0837   -0.2329 C   0  0  0  0  0  0  0  0  0  0  0  0
   -0.6175    0.3561   -0.1839 C   0  0  0  0  0  0  0  0  0  0  0  0
   -0.1920    1.6414    0.0506 C   0  0  0  0  0  0  0  0  0  0  0  0
    1.1972    1.9153    0.1000 C   0  0  0  0  0  0  0  0  0  0  0  0
    1.6136    3.0445    0.3063 O   0  0  0  0  0  0  0  0  0  0  0  0
    2.1195    0.7867   -0.1064 C   0  0  0  0  0  0  0  0  0  0  0  0
    3.5074    0.9707   -0.0728 C   0  0  0  0  0  0  0  0  0  0  0  0
    4.3447   -0.1152   -0.2709 C   0  0  0  0  0  0  0  0  0  0  0  0
    3.8060   -1.3795   -0.5019 C   0  0  0  0  0  0  0  0  0  0  0  0
    2.4334   -1.5659   -0.5359 C   0  0  0  0  0  0  0  0  0  0  0  0
    1.5803   -0.4905   -0.3393 C   0  0  0  0  0  0  0  0  0  0  0  0
    0.2411   -0.6620   -0.3645 O   0  0  0  0  0  0  0  0  0  0  0  0
    4.6341   -2.4387   -0.6961 O   0  0  0  0  0  0  0  0  0  0  0  0
    4.0203   -3.7081   -0.9280 C   0  0  0  0  0  0  0  0  0  0  0  0
    5.6955    0.0532   -0.2402 O   0  0  0  0  0  0  0  0  0  0  0  0
    6.3391   -0.0951    1.0270 C   0  0  0  0  0  0  0  0  0  0  0  0
    4.0288    2.2048    0.1518 O   0  0  0  0  0  0  0  0  0  0  0  0
   -1.0966    2.6422    0.2331 O   0  0  0  0  0  0  0  0  0  0  0  0
   -1.1391    3.2504    1.5255 C   0  0  0  0  0  0  0  0  0  0  0  0
   -5.0280    1.1975   -2.0473 O   0  0  0  0  0  0  0  0  0  0  0  0
   -6.1255   -0.6867   -0.3714 O   0  0  0  0  0  0  0  0  0  0  0  0
   -6.6306   -1.6777    0.5257 C   0  0  0  0  0  0  0  0  0  0  0  0
   -1.7085   -3.1224    2.8359 H   0  0  0  0  0  0  0  0  0  0  0  0
   -3.2140   -2.1754    2.9064 H   0  0  0  0  0  0  0  0  0  0  0  0
   -2.9386   -3.3104    1.5632 H   0  0  0  0  0  0  0  0  0  0  0  0
   -4.4242   -1.8704    1.2211 H   0  0  0  0  0  0  0  0  0  0  0  0
   -2.4488    1.5181   -1.7920 H   0  0  0  0  0  0  0  0  0  0  0  0
    2.0273   -2.5503   -0.7158 H   0  0  0  0  0  0  0  0  0  0  0  0
    3.4005   -3.9740   -0.0717 H   0  0  0  0  0  0  0  0  0  0  0  0
    3.3998   -3.6536   -1.8226 H   0  0  0  0  0  0  0  0  0  0  0  0
    4.7922   -4.4651   -1.0668 H   0  0  0  0  0  0  0  0  0  0  0  0
    6.1604   -1.0998    1.4100 H   0  0  0  0  0  0  0  0  0  0  0  0
    7.4111    0.0642    0.9109 H   0  0  0  0  0  0  0  0  0  0  0  0
    5.9367    0.6374    1.7268 H   0  0  0  0  0  0  0  0  0  0  0  0
    4.1798    2.4039    1.0860 H   0  0  0  0  0  0  0  0  0  0  0  0
   -1.9603    3.9662    1.5634 H   0  0  0  0  0  0  0  0  0  0  0  0
   -1.2914    2.4823    2.2837 H   0  0  0  0  0  0  0  0  0  0  0  0
   -0.1981    3.7667    1.7153 H   0  0  0  0  0  0  0  0  0  0  0  0
   -5.3956    2.0169   -1.6890 H   0  0  0  0  0  0  0  0  0  0  0  0
   -6.1461   -2.6327    0.3223 H   0  0  0  0  0  0  0  0  0  0  0  0
   -6.4243   -1.3770    1.5529 H   0  0  0  0  0  0  0  0  0  0  0  0
   -7.7069   -1.7794    0.3861 H   0  0  0  0  0  0  0  0  0  0  0  0
  1  2  1  0  0  0  0
  2  3  1  0  0  0  0
  3  4  2  0  0  0  0
  4  5  1  0  0  0  0
  5  6  2  0  0  0  0
  6  7  1  0  0  0  0
  7  8  2  0  0  0  0
  3  8  1  0  0  0  0
  8  9  1  0  0  0  0
  9 10  2  0  0  0  0
 10 11  1  0  0  0  0
 11 12  2  0  0  0  0
 11 13  1  0  0  0  0
 13 14  2  0  0  0  0
 14 15  1  0  0  0  0
 15 16  2  0  0  0  0
 16 17  1  0  0  0  0
 17 18  2  0  0  0  0
 13 18  1  0  0  0  0
 18 19  1  0  0  0  0
  9 19  1  0  0  0  0
 16 20  1  0  0  0  0
 20 21  1  0  0  0  0
 15 22  1  0  0  0  0
 22 23  1  0  0  0  0
 14 24  1  0  0  0  0
 10 25  1  0  0  0  0
 25 26  1  0  0  0  0
  6 27  1  0  0  0  0
  5 28  1  0  0  0  0
 28 29  1  0  0  0  0
  1 30  1  0  0  0  0
  1 31  1  0  0  0  0
  1 32  1  0  0  0  0
  4 33  1  0  0  0  0
  7 34  1  0  0  0  0
 17 35  1  0  0  0  0
 21 36  1  0  0  0  0
 21 37  1  0  0  0  0
 21 38  1  0  0  0  0
 23 39  1  0  0  0  0
 23 40  1  0  0  0  0
 23 41  1  0  0  0  0
 24 42  1  0  0  0  0
 26 43  1  0  0  0  0
 26 44  1  0  0  0  0
 26 45  1  0  0  0  0
 27 46  1  0  0  0  0
 29 47  1  0  0  0  0
 29 48  1  0  0  0  0
 29 49  1  0  0  0  0
M  END
$$$$
