C25H26O5
APtclcactv06291802503D 0   0.00000     0.00000
 
 56 58  0  0  0  0  0  0  0  0999 V2000
    1.5836   -5.3377   -0.7354 C   0  0  0  0  0  0  0  0  0  0  0  0
    2.3975   -4.8276    0.4258 C   0  0  0  0  0  0  0  0  0  0  0  0
    2.9974   -3.6659    0.3450 C   0  0  0  0  0  0  0  0  0  0  0  0
    2.7745   -2.7847   -0.8570 C   0  0  0  0  0  0  0  0  0  0  0  0
    2.3094   -1.4249   -0.4036 C   0  0  0  0  0  0  0  0  0  0  0  0
    0.9628   -1.1396   -0.3550 C   0  0  0  0  0  0  0  0  0  0  0  0
    0.5325    0.1219    0.0657 C   0  0  0  0  0  0  0  0  0  0  0  0
    1.4717    1.0889    0.4354 C   0  0  0  0  0  0  0  0  0  0  0  0
    2.8163    0.7951    0.3838 C   0  0  0  0  0  0  0  0  0  0  0  0
    3.2395   -0.4624   -0.0296 C   0  0  0  0  0  0  0  0  0  0  0  0
    4.5659   -0.7478   -0.0790 O   0  0  0  0  0  0  0  0  0  0  0  0
    3.8298    1.8369    0.7818 C   0  0  0  0  0  0  0  0  0  0  0  0
    4.3089    2.5666   -0.4467 C   0  0  0  0  0  0  0  0  0  0  0  0
    4.2267    3.8727   -0.5064 C   0  0  0  0  0  0  0  0  0  0  0  0
    3.6531    4.6454    0.6532 C   0  0  0  0  0  0  0  0  0  0  0  0
    4.7059    4.6024   -1.7349 C   0  0  0  0  0  0  0  0  0  0  0  0
   -0.9086    0.4322    0.1188 C   0  0  0  0  0  0  0  0  0  0  0  0
   -1.2967    1.6685    0.5323 C   0  0  0  0  0  0  0  0  0  0  0  0
   -2.6748    1.9843    0.5897 C   0  0  0  0  0  0  0  0  0  0  0  0
   -3.0587    3.0835    0.9556 O   0  0  0  0  0  0  0  0  0  0  0  0
   -3.6278    0.9349    0.1903 C   0  0  0  0  0  0  0  0  0  0  0  0
   -5.0097    1.1597    0.2155 C   0  0  0  0  0  0  0  0  0  0  0  0
   -5.8713    0.1481   -0.1678 C   0  0  0  0  0  0  0  0  0  0  0  0
   -5.3671   -1.0822   -0.5743 C   0  0  0  0  0  0  0  0  0  0  0  0
   -3.9999   -1.3115   -0.6016 C   0  0  0  0  0  0  0  0  0  0  0  0
   -3.1208   -0.3099   -0.2216 C   0  0  0  0  0  0  0  0  0  0  0  0
   -1.7867   -0.5147   -0.2480 O   0  0  0  0  0  0  0  0  0  0  0  0
   -6.2218   -2.0686   -0.9477 O   0  0  0  0  0  0  0  0  0  0  0  0
   -5.4997    2.3610    0.6135 O   0  0  0  0  0  0  0  0  0  0  0  0
    2.5212   -5.6540    1.6799 C   0  0  0  0  0  0  0  0  0  0  0  0
    2.1995   -5.3465   -1.6347 H   0  0  0  0  0  0  0  0  0  0  0  0
    1.2391   -6.3494   -0.5211 H   0  0  0  0  0  0  0  0  0  0  0  0
    0.7236   -4.6862   -0.8904 H   0  0  0  0  0  0  0  0  0  0  0  0
    3.6518   -3.3397    1.1399 H   0  0  0  0  0  0  0  0  0  0  0  0
    3.7076   -2.6833   -1.4112 H   0  0  0  0  0  0  0  0  0  0  0  0
    2.0167   -3.2322   -1.5000 H   0  0  0  0  0  0  0  0  0  0  0  0
    0.2405   -1.8895   -0.6419 H   0  0  0  0  0  0  0  0  0  0  0  0
    1.1435    2.0650    0.7607 H   0  0  0  0  0  0  0  0  0  0  0  0
    4.9199   -1.1154    0.7423 H   0  0  0  0  0  0  0  0  0  0  0  0
    3.3705    2.5466    1.4699 H   0  0  0  0  0  0  0  0  0  0  0  0
    4.6758    1.3530    1.2700 H   0  0  0  0  0  0  0  0  0  0  0  0
    4.7201    2.0128   -1.2777 H   0  0  0  0  0  0  0  0  0  0  0  0
    4.2515    4.4598    1.5451 H   0  0  0  0  0  0  0  0  0  0  0  0
    3.6662    5.7106    0.4221 H   0  0  0  0  0  0  0  0  0  0  0  0
    2.6266    4.3249    0.8312 H   0  0  0  0  0  0  0  0  0  0  0  0
    3.8832    4.7004   -2.4432 H   0  0  0  0  0  0  0  0  0  0  0  0
    5.0626    5.5930   -1.4530 H   0  0  0  0  0  0  0  0  0  0  0  0
    5.5183    4.0415   -2.1969 H   0  0  0  0  0  0  0  0  0  0  0  0
   -0.5581    2.4039    0.8152 H   0  0  0  0  0  0  0  0  0  0  0  0
   -6.9383    0.3141   -0.1510 H   0  0  0  0  0  0  0  0  0  0  0  0
   -3.6199   -2.2712   -0.9192 H   0  0  0  0  0  0  0  0  0  0  0  0
   -6.4379   -2.0658   -1.8902 H   0  0  0  0  0  0  0  0  0  0  0  0
   -5.6099    2.9985   -0.1052 H   0  0  0  0  0  0  0  0  0  0  0  0
    3.3867   -6.3115    1.5979 H   0  0  0  0  0  0  0  0  0  0  0  0
    2.6460   -4.9945    2.5388 H   0  0  0  0  0  0  0  0  0  0  0  0
    1.6204   -6.2537    1.8102 H   0  0  0  0  0  0  0  0  0  0  0  0
  1  2  1  0  0  0  0
  2  3  2  0  0  0  0
  3  4  1  0  0  0  0
  4  5  1  0  0  0  0
  5  6  2  0  0  0  0
  6  7  1  0  0  0  0
  7  8  2  0  0  0  0
  8  9  1  0  0  0  0
  9 10  2  0  0  0  0
  5 10  1  0  0  0  0
 10 11  1  0  0  0  0
  9 12  1  0  0  0  0
 12 13  1  0  0  0  0
 13 14  2  0  0  0  0
 14 15  1  0  0  0  0
 14 16  1  0  0  0  0
  7 17  1  0  0  0  0
 17 18  2  0  0  0  0
 18 19  1  0  0  0  0
 19 20  2  0  0  0  0
 19 21  1  0  0  0  0
 21 22  2  0  0  0  0
 22 23  1  0  0  0  0
 23 24  2  0  0  0  0
 24 25  1  0  0  0  0
 25 26  2  0  0  0  0
 21 26  1  0  0  0  0
 26 27  1  0  0  0  0
 17 27  1  0  0  0  0
 24 28  1  0  0  0  0
 22 29  1  0  0  0  0
  2 30  1  0  0  0  0
  1 31  1  0  0  0  0
  1 32  1  0  0  0  0
  1 33  1  0  0  0  0
  3 34  1  0  0  0  0
  4 35  1  0  0  0  0
  4 36  1  0  0  0  0
  6 37  1  0  0  0  0
  8 38  1  0  0  0  0
 11 39  1  0  0  0  0
 12 40  1  0  0  0  0
 12 41  1  0  0  0  0
 13 42  1  0  0  0  0
 15 43  1  0  0  0  0
 15 44  1  0  0  0  0
 15 45  1  0  0  0  0
 16 46  1  0  0  0  0
 16 47  1  0  0  0  0
 16 48  1  0  0  0  0
 18 49  1  0  0  0  0
 23 50  1  0  0  0  0
 25 51  1  0  0  0  0
 28 52  1  0  0  0  0
 29 53  1  0  0  0  0
 30 54  1  0  0  0  0
 30 55  1  0  0  0  0
 30 56  1  0  0  0  0
M  END
$$$$
