C17H16O6
APtclcactv06291802503D 0   0.00000     0.00000
 
 39 41  0  0  0  0  0  0  0  0999 V2000
   -6.2342    1.4622    0.9311 C   0  0  0  0  0  0  0  0  0  0  0  0
   -5.5848    0.2433    0.5643 O   0  0  0  0  0  0  0  0  0  0  0  0
   -4.2392    0.2933    0.3755 C   0  0  0  0  0  0  0  0  0  0  0  0
   -3.5466   -0.8582    0.0172 C   0  0  0  0  0  0  0  0  0  0  0  0
   -2.1739   -0.8095   -0.1764 C   0  0  0  0  0  0  0  0  0  0  0  0
   -1.4907    0.4029   -0.0096 C   0  0  0  0  0  0  0  0  0  0  0  0
   -2.1977    1.5538    0.3507 C   0  0  0  0  0  0  0  0  0  0  0  0
   -3.5625    1.4952    0.5355 C   0  0  0  0  0  0  0  0  0  0  0  0
   -0.0334    0.4639   -0.2126 C   0  0  0  0  0  0  0  0  0  0  0  0
    0.8014   -0.0441    0.7181 C   0  0  0  0  0  0  0  0  0  0  0  0
    2.2519    0.0530    0.4717 C   0  0  0  0  0  0  0  0  0  0  0  0
    3.1629   -0.7213    1.1869 C   0  0  0  0  0  0  0  0  0  0  0  0
    4.5161   -0.5994    0.9247 C   0  0  0  0  0  0  0  0  0  0  0  0
    4.9630    0.2925   -0.0477 C   0  0  0  0  0  0  0  0  0  0  0  0
    4.0580    1.0656   -0.7613 C   0  0  0  0  0  0  0  0  0  0  0  0
    2.7051    0.9515   -0.5077 C   0  0  0  0  0  0  0  0  0  0  0  0
    1.7955    1.6954   -1.1890 O   0  0  0  0  0  0  0  0  0  0  0  0
    0.5297    1.0881   -1.4625 C   0  0  0  0  0  0  0  0  0  0  0  0
    6.2942    0.4065   -0.2989 O   0  0  0  0  0  0  0  0  0  0  0  0
    5.4123   -1.3522    1.6186 O   0  0  0  0  0  0  0  0  0  0  0  0
   -1.4938   -1.9333   -0.5262 O   0  0  0  0  0  0  0  0  0  0  0  0
   -1.3525   -2.1976   -1.9235 C   0  0  0  0  0  0  0  0  0  0  0  0
   -4.2153   -2.0327   -0.1430 O   0  0  0  0  0  0  0  0  0  0  0  0
   -6.0753    2.2073    0.1516 H   0  0  0  0  0  0  0  0  0  0  0  0
   -7.3028    1.2830    1.0502 H   0  0  0  0  0  0  0  0  0  0  0  0
   -5.8198    1.8260    1.8714 H   0  0  0  0  0  0  0  0  0  0  0  0
   -1.6750    2.4900    0.4803 H   0  0  0  0  0  0  0  0  0  0  0  0
   -4.1063    2.3859    0.8135 H   0  0  0  0  0  0  0  0  0  0  0  0
    0.4189   -0.5073    1.6156 H   0  0  0  0  0  0  0  0  0  0  0  0
    2.8153   -1.4118    1.9411 H   0  0  0  0  0  0  0  0  0  0  0  0
    4.4110    1.7556   -1.5135 H   0  0  0  0  0  0  0  0  0  0  0  0
    0.6559    0.3226   -2.2282 H   0  0  0  0  0  0  0  0  0  0  0  0
   -0.1630    1.8478   -1.8249 H   0  0  0  0  0  0  0  0  0  0  0  0
    6.6185   -0.1959   -0.9823 H   0  0  0  0  0  0  0  0  0  0  0  0
    5.6104   -2.2053    1.2087 H   0  0  0  0  0  0  0  0  0  0  0  0
   -0.7913   -3.1215   -2.0635 H   0  0  0  0  0  0  0  0  0  0  0  0
   -2.3390   -2.2996   -2.3756 H   0  0  0  0  0  0  0  0  0  0  0  0
   -0.8192   -1.3732   -2.3970 H   0  0  0  0  0  0  0  0  0  0  0  0
   -4.5360   -2.1832   -1.0428 H   0  0  0  0  0  0  0  0  0  0  0  0
  1  2  1  0  0  0  0
  2  3  1  0  0  0  0
  3  4  2  0  0  0  0
  4  5  1  0  0  0  0
  5  6  2  0  0  0  0
  6  7  1  0  0  0  0
  7  8  2  0  0  0  0
  3  8  1  0  0  0  0
  6  9  1  0  0  0  0
  9 10  2  0  0  0  0
 10 11  1  0  0  0  0
 11 12  2  0  0  0  0
 12 13  1  0  0  0  0
 13 14  2  0  0  0  0
 14 15  1  0  0  0  0
 15 16  2  0  0  0  0
 11 16  1  0  0  0  0
 16 17  1  0  0  0  0
 17 18  1  0  0  0  0
  9 18  1  0  0  0  0
 14 19  1  0  0  0  0
 13 20  1  0  0  0  0
  5 21  1  0  0  0  0
 21 22  1  0  0  0  0
  4 23  1  0  0  0  0
  1 24  1  0  0  0  0
  1 25  1  0  0  0  0
  1 26  1  0  0  0  0
  7 27  1  0  0  0  0
  8 28  1  0  0  0  0
 10 29  1  0  0  0  0
 12 30  1  0  0  0  0
 15 31  1  0  0  0  0
 18 32  1  0  0  0  0
 18 33  1  0  0  0  0
 19 34  1  0  0  0  0
 20 35  1  0  0  0  0
 22 36  1  0  0  0  0
 22 37  1  0  0  0  0
 22 38  1  0  0  0  0
 23 39  1  0  0  0  0
M  END
$$$$
