C21H20O11
APtclcactv06291802503D 0   0.00000     0.00000
 
 52 55  0  0  0  0  0  0  0  0999 V2000
   -4.7715   -1.8616   -0.1470 C   0  0  0  0  0  0  0  0  0  0  0  0
   -6.1133   -2.1077   -0.3427 C   0  0  0  0  0  0  0  0  0  0  0  0
   -7.0112   -1.0523   -0.4247 C   0  0  0  0  0  0  0  0  0  0  0  0
   -6.5599    0.2615   -0.3097 C   0  0  0  0  0  0  0  0  0  0  0  0
   -5.2162    0.5157   -0.1134 C   0  0  0  0  0  0  0  0  0  0  0  0
   -4.3121   -0.5469   -0.0307 C   0  0  0  0  0  0  0  0  0  0  0  0
   -2.8764   -0.2814    0.1792 C   0  0  0  0  0  0  0  0  0  0  0  0
   -2.0205   -1.3358    0.2555 C   0  0  0  0  0  0  0  0  0  0  0  0
   -0.6397   -1.1005    0.4566 C   0  0  0  0  0  0  0  0  0  0  0  0
    0.1565   -2.0225    0.5296 O   0  0  0  0  0  0  0  0  0  0  0  0
   -0.2009    0.3005    0.5738 C   0  0  0  0  0  0  0  0  0  0  0  0
    1.1462    0.6263    0.7733 C   0  0  0  0  0  0  0  0  0  0  0  0
    1.5174    1.9543    0.8778 C   0  0  0  0  0  0  0  0  0  0  0  0
    0.5586    2.9569    0.7852 C   0  0  0  0  0  0  0  0  0  0  0  0
   -0.7771    2.6413    0.5877 C   0  0  0  0  0  0  0  0  0  0  0  0
   -1.1683    1.3162    0.4805 C   0  0  0  0  0  0  0  0  0  0  0  0
   -2.4637    0.9920    0.2823 O   0  0  0  0  0  0  0  0  0  0  0  0
    0.9337    4.2574    0.8897 O   0  0  0  0  0  0  0  0  0  0  0  0
    2.0804   -0.3539    0.8639 O   0  0  0  0  0  0  0  0  0  0  0  0
    3.4339    0.0568    1.0676 C   0  0  0  0  0  0  0  0  0  0  0  0
    4.3172   -1.1774    1.2682 C   0  0  0  0  0  0  0  0  0  0  0  0
    4.2777   -2.0355   -0.0001 C   0  0  0  0  0  0  0  0  0  0  0  0
    4.7281   -1.1858   -1.1924 C   0  0  0  0  0  0  0  0  0  0  0  0
    3.8289    0.0487   -1.2979 C   0  0  0  0  0  0  0  0  0  0  0  0
    3.8880    0.7854   -0.0748 O   0  0  0  0  0  0  0  0  0  0  0  0
    4.3097    0.9333   -2.4500 C   0  0  0  0  0  0  0  0  0  0  0  0
    3.4034    2.0244   -2.6231 O   0  0  0  0  0  0  0  0  0  0  0  0
    6.0832   -0.7746   -1.0010 O   0  0  0  0  0  0  0  0  0  0  0  0
    5.1569   -3.1519    0.1505 O   0  0  0  0  0  0  0  0  0  0  0  0
    5.6615   -0.7660    1.5247 O   0  0  0  0  0  0  0  0  0  0  0  0
   -7.4424    1.2931   -0.3910 O   0  0  0  0  0  0  0  0  0  0  0  0
   -8.3327   -1.3004   -0.6181 O   0  0  0  0  0  0  0  0  0  0  0  0
   -4.0758   -2.6848   -0.0791 H   0  0  0  0  0  0  0  0  0  0  0  0
   -6.4671   -3.1242   -0.4327 H   0  0  0  0  0  0  0  0  0  0  0  0
   -4.8652    1.5332   -0.0244 H   0  0  0  0  0  0  0  0  0  0  0  0
   -2.3922   -2.3456    0.1636 H   0  0  0  0  0  0  0  0  0  0  0  0
    2.5544    2.2133    1.0321 H   0  0  0  0  0  0  0  0  0  0  0  0
   -1.5130    3.4287    0.5174 H   0  0  0  0  0  0  0  0  0  0  0  0
    1.1636    4.6694    0.0456 H   0  0  0  0  0  0  0  0  0  0  0  0
    3.4918    0.6926    1.9511 H   0  0  0  0  0  0  0  0  0  0  0  0
    3.9456   -1.7581    2.1125 H   0  0  0  0  0  0  0  0  0  0  0  0
    3.2610   -2.3905   -0.1687 H   0  0  0  0  0  0  0  0  0  0  0  0
    4.6503   -1.7724   -2.1078 H   0  0  0  0  0  0  0  0  0  0  0  0
    2.8017   -0.2646   -1.4843 H   0  0  0  0  0  0  0  0  0  0  0  0
    5.3033    1.3190   -2.2217 H   0  0  0  0  0  0  0  0  0  0  0  0
    4.3501    0.3454   -3.3670 H   0  0  0  0  0  0  0  0  0  0  0  0
    3.6465    2.6279   -3.3385 H   0  0  0  0  0  0  0  0  0  0  0  0
    6.7090   -1.5074   -0.9209 H   0  0  0  0  0  0  0  0  0  0  0  0
    4.9343   -3.7305    0.8927 H   0  0  0  0  0  0  0  0  0  0  0  0
    5.7603   -0.2139    2.3125 H   0  0  0  0  0  0  0  0  0  0  0  0
   -7.8190    1.5566    0.4598 H   0  0  0  0  0  0  0  0  0  0  0  0
   -8.8367   -1.4074    0.2002 H   0  0  0  0  0  0  0  0  0  0  0  0
  1  2  2  0  0  0  0
  2  3  1  0  0  0  0
  3  4  2  0  0  0  0
  4  5  1  0  0  0  0
  5  6  2  0  0  0  0
  1  6  1  0  0  0  0
  6  7  1  0  0  0  0
  7  8  2  0  0  0  0
  8  9  1  0  0  0  0
  9 10  2  0  0  0  0
  9 11  1  0  0  0  0
 11 12  2  0  0  0  0
 12 13  1  0  0  0  0
 13 14  2  0  0  0  0
 14 15  1  0  0  0  0
 15 16  2  0  0  0  0
 11 16  1  0  0  0  0
 16 17  1  0  0  0  0
  7 17  1  0  0  0  0
 14 18  1  0  0  0  0
 12 19  1  0  0  0  0
 19 20  1  0  0  0  0
 20 21  1  0  0  0  0
 21 22  1  0  0  0  0
 22 23  1  0  0  0  0
 23 24  1  0  0  0  0
 24 25  1  0  0  0  0
 20 25  1  0  0  0  0
 24 26  1  0  0  0  0
 26 27  1  0  0  0  0
 23 28  1  0  0  0  0
 22 29  1  0  0  0  0
 21 30  1  0  0  0  0
  4 31  1  0  0  0  0
  3 32  1  0  0  0  0
  1 33  1  0  0  0  0
  2 34  1  0  0  0  0
  5 35  1  0  0  0  0
  8 36  1  0  0  0  0
 13 37  1  0  0  0  0
 15 38  1  0  0  0  0
 18 39  1  0  0  0  0
 20 40  1  0  0  0  0
 21 41  1  0  0  0  0
 22 42  1  0  0  0  0
 23 43  1  0  0  0  0
 24 44  1  0  0  0  0
 26 45  1  0  0  0  0
 26 46  1  0  0  0  0
 27 47  1  0  0  0  0
 28 48  1  0  0  0  0
 29 49  1  0  0  0  0
 30 50  1  0  0  0  0
 31 51  1  0  0  0  0
 32 52  1  0  0  0  0
M  END
$$$$
