C17H14O6
APtclcactv06291802493D 0   0.00000     0.00000
 
 37 39  0  0  0  0  0  0  0  0999 V2000
    6.9031    1.0958    1.0861 C   0  0  0  0  0  0  0  0  0  0  0  0
    6.4235    0.2646    0.0273 O   0  0  0  0  0  0  0  0  0  0  0  0
    5.0818    0.0567   -0.0345 C   0  0  0  0  0  0  0  0  0  0  0  0
    4.5500   -0.7408   -1.0384 C   0  0  0  0  0  0  0  0  0  0  0  0
    3.1887   -0.9533   -1.1041 C   0  0  0  0  0  0  0  0  0  0  0  0
    2.3469   -0.3667   -0.1607 C   0  0  0  0  0  0  0  0  0  0  0  0
    2.8841    0.4333    0.8465 C   0  0  0  0  0  0  0  0  0  0  0  0
    4.2467    0.6377    0.9099 C   0  0  0  0  0  0  0  0  0  0  0  0
    0.8825   -0.5927   -0.2287 C   0  0  0  0  0  0  0  0  0  0  0  0
    0.3568   -1.8315   -0.0395 C   0  0  0  0  0  0  0  0  0  0  0  0
   -0.9494   -2.0857   -0.1082 O   0  0  0  0  0  0  0  0  0  0  0  0
   -1.8600   -1.0938   -0.0547 C   0  0  0  0  0  0  0  0  0  0  0  0
   -3.2000   -1.3797    0.2004 C   0  0  0  0  0  0  0  0  0  0  0  0
   -4.1313   -0.3541    0.2435 C   0  0  0  0  0  0  0  0  0  0  0  0
   -3.7412    0.9696    0.0328 C   0  0  0  0  0  0  0  0  0  0  0  0
   -2.4170    1.2690   -0.2173 C   0  0  0  0  0  0  0  0  0  0  0  0
   -1.4735    0.2422   -0.2569 C   0  0  0  0  0  0  0  0  0  0  0  0
   -0.0458    0.5217   -0.4975 C   0  0  0  0  0  0  0  0  0  0  0  0
    0.3436    1.6055   -0.8977 O   0  0  0  0  0  0  0  0  0  0  0  0
   -4.6670    1.9655    0.0735 O   0  0  0  0  0  0  0  0  0  0  0  0
   -4.1982    3.2966   -0.1509 C   0  0  0  0  0  0  0  0  0  0  0  0
   -5.4366   -0.6399    0.4929 O   0  0  0  0  0  0  0  0  0  0  0  0
   -3.5940   -2.6657    0.4067 O   0  0  0  0  0  0  0  0  0  0  0  0
    6.4568    2.0866    1.0008 H   0  0  0  0  0  0  0  0  0  0  0  0
    6.6304    0.6558    2.0454 H   0  0  0  0  0  0  0  0  0  0  0  0
    7.9879    1.1789    1.0198 H   0  0  0  0  0  0  0  0  0  0  0  0
    5.2027   -1.1951   -1.7691 H   0  0  0  0  0  0  0  0  0  0  0  0
    2.7755   -1.5734   -1.8859 H   0  0  0  0  0  0  0  0  0  0  0  0
    2.2344    0.8892    1.5790 H   0  0  0  0  0  0  0  0  0  0  0  0
    4.6635    1.2574    1.6900 H   0  0  0  0  0  0  0  0  0  0  0  0
    1.0293   -2.6485    0.1762 H   0  0  0  0  0  0  0  0  0  0  0  0
   -2.1130    2.2924   -0.3808 H   0  0  0  0  0  0  0  0  0  0  0  0
   -3.4580    3.5537    0.6068 H   0  0  0  0  0  0  0  0  0  0  0  0
   -3.7434    3.3598   -1.1394 H   0  0  0  0  0  0  0  0  0  0  0  0
   -5.0358    3.9916   -0.0912 H   0  0  0  0  0  0  0  0  0  0  0  0
   -5.6696   -0.6276    1.4313 H   0  0  0  0  0  0  0  0  0  0  0  0
   -3.5632   -2.9429    1.3326 H   0  0  0  0  0  0  0  0  0  0  0  0
  1  2  1  0  0  0  0
  2  3  1  0  0  0  0
  3  4  2  0  0  0  0
  4  5  1  0  0  0  0
  5  6  2  0  0  0  0
  6  7  1  0  0  0  0
  7  8  2  0  0  0  0
  3  8  1  0  0  0  0
  6  9  1  0  0  0  0
  9 10  2  0  0  0  0
 10 11  1  0  0  0  0
 11 12  1  0  0  0  0
 12 13  2  0  0  0  0
 13 14  1  0  0  0  0
 14 15  2  0  0  0  0
 15 16  1  0  0  0  0
 16 17  2  0  0  0  0
 12 17  1  0  0  0  0
 17 18  1  0  0  0  0
  9 18  1  0  0  0  0
 18 19  2  0  0  0  0
 15 20  1  0  0  0  0
 20 21  1  0  0  0  0
 14 22  1  0  0  0  0
 13 23  1  0  0  0  0
  1 24  1  0  0  0  0
  1 25  1  0  0  0  0
  1 26  1  0  0  0  0
  4 27  1  0  0  0  0
  5 28  1  0  0  0  0
  7 29  1  0  0  0  0
  8 30  1  0  0  0  0
 10 31  1  0  0  0  0
 16 32  1  0  0  0  0
 21 33  1  0  0  0  0
 21 34  1  0  0  0  0
 21 35  1  0  0  0  0
 22 36  1  0  0  0  0
 23 37  1  0  0  0  0
M  END
$$$$
