C17H14O8
APtclcactv06291802513D 0   0.00000     0.00000
 
 39 41  0  0  0  0  0  0  0  0999 V2000
   -4.9501   -2.7457   -0.2558 C   0  0  0  0  0  0  0  0  0  0  0  0
   -5.4212   -1.3973   -0.2108 O   0  0  0  0  0  0  0  0  0  0  0  0
   -4.4816   -0.4174   -0.1201 C   0  0  0  0  0  0  0  0  0  0  0  0
   -4.8737    0.9204   -0.0720 C   0  0  0  0  0  0  0  0  0  0  0  0
   -3.9218    1.9241    0.0209 C   0  0  0  0  0  0  0  0  0  0  0  0
   -2.5763    1.6027    0.0664 C   0  0  0  0  0  0  0  0  0  0  0  0
   -2.1774    0.2588    0.0184 C   0  0  0  0  0  0  0  0  0  0  0  0
   -3.1431   -0.7494   -0.0700 C   0  0  0  0  0  0  0  0  0  0  0  0
   -0.7474   -0.0898    0.0665 C   0  0  0  0  0  0  0  0  0  0  0  0
   -0.3955   -1.4029    0.1516 C   0  0  0  0  0  0  0  0  0  0  0  0
    0.9719   -1.7565    0.1988 C   0  0  0  0  0  0  0  0  0  0  0  0
    1.3227   -2.9232    0.2748 O   0  0  0  0  0  0  0  0  0  0  0  0
    1.9577   -0.6627    0.1521 C   0  0  0  0  0  0  0  0  0  0  0  0
    3.3323   -0.9222    0.1932 C   0  0  0  0  0  0  0  0  0  0  0  0
    4.2278    0.1346    0.1467 C   0  0  0  0  0  0  0  0  0  0  0  0
    3.7590    1.4438    0.0600 C   0  0  0  0  0  0  0  0  0  0  0  0
    2.3983    1.7046    0.0191 C   0  0  0  0  0  0  0  0  0  0  0  0
    1.4889    0.6597    0.0642 C   0  0  0  0  0  0  0  0  0  0  0  0
    0.1602    0.8984    0.0193 O   0  0  0  0  0  0  0  0  0  0  0  0
    4.6434    2.4739    0.0158 O   0  0  0  0  0  0  0  0  0  0  0  0
    5.5671   -0.1068    0.1860 O   0  0  0  0  0  0  0  0  0  0  0  0
    6.2290   -0.2979   -1.0660 C   0  0  0  0  0  0  0  0  0  0  0  0
    3.7854   -2.2000    0.2786 O   0  0  0  0  0  0  0  0  0  0  0  0
   -1.6445    2.5862    0.1570 O   0  0  0  0  0  0  0  0  0  0  0  0
   -6.1929    1.2409   -0.1169 O   0  0  0  0  0  0  0  0  0  0  0  0
   -4.3056   -2.8765   -1.1250 H   0  0  0  0  0  0  0  0  0  0  0  0
   -4.3860   -2.9639    0.6510 H   0  0  0  0  0  0  0  0  0  0  0  0
   -5.7995   -3.4251   -0.3276 H   0  0  0  0  0  0  0  0  0  0  0  0
   -4.2307    2.9583    0.0574 H   0  0  0  0  0  0  0  0  0  0  0  0
   -2.8413   -1.7857   -0.1070 H   0  0  0  0  0  0  0  0  0  0  0  0
   -1.1564   -2.1687    0.1833 H   0  0  0  0  0  0  0  0  0  0  0  0
    2.0462    2.7234   -0.0481 H   0  0  0  0  0  0  0  0  0  0  0  0
    4.9163    2.7198   -0.8787 H   0  0  0  0  0  0  0  0  0  0  0  0
    5.7922   -1.1535   -1.5810 H   0  0  0  0  0  0  0  0  0  0  0  0
    6.1103    0.5950   -1.6797 H   0  0  0  0  0  0  0  0  0  0  0  0
    7.2894   -0.4810   -0.8922 H   0  0  0  0  0  0  0  0  0  0  0  0
    3.9329   -2.6230   -0.5783 H   0  0  0  0  0  0  0  0  0  0  0  0
   -1.4148    2.8280    1.0646 H   0  0  0  0  0  0  0  0  0  0  0  0
   -6.6155    1.2902    0.7515 H   0  0  0  0  0  0  0  0  0  0  0  0
  1  2  1  0  0  0  0
  2  3  1  0  0  0  0
  3  4  2  0  0  0  0
  4  5  1  0  0  0  0
  5  6  2  0  0  0  0
  6  7  1  0  0  0  0
  7  8  2  0  0  0  0
  3  8  1  0  0  0  0
  7  9  1  0  0  0  0
  9 10  2  0  0  0  0
 10 11  1  0  0  0  0
 11 12  2  0  0  0  0
 11 13  1  0  0  0  0
 13 14  2  0  0  0  0
 14 15  1  0  0  0  0
 15 16  2  0  0  0  0
 16 17  1  0  0  0  0
 17 18  2  0  0  0  0
 13 18  1  0  0  0  0
 18 19  1  0  0  0  0
  9 19  1  0  0  0  0
 16 20  1  0  0  0  0
 15 21  1  0  0  0  0
 21 22  1  0  0  0  0
 14 23  1  0  0  0  0
  6 24  1  0  0  0  0
  4 25  1  0  0  0  0
  1 26  1  0  0  0  0
  1 27  1  0  0  0  0
  1 28  1  0  0  0  0
  5 29  1  0  0  0  0
  8 30  1  0  0  0  0
 10 31  1  0  0  0  0
 17 32  1  0  0  0  0
 20 33  1  0  0  0  0
 22 34  1  0  0  0  0
 22 35  1  0  0  0  0
 22 36  1  0  0  0  0
 23 37  1  0  0  0  0
 24 38  1  0  0  0  0
 25 39  1  0  0  0  0
M  END
$$$$
