C17H12O6
APtclcactv06211806533D 0   0.00000     0.00000
 
 35 38  0  0  0  0  0  0  0  0999 V2000
    1.5633   -3.0554   -0.3742 C   0  0  0  0  0  0  0  0  0  0  0  0
    1.7556   -2.1009    0.6717 O   0  0  0  0  0  0  0  0  0  0  0  0
    1.9753   -0.8135    0.2989 C   0  0  0  0  0  0  0  0  0  0  0  0
    0.8997    0.0655    0.1317 C   0  0  0  0  0  0  0  0  0  0  0  0
    1.1221    1.4036   -0.2422 C   0  0  0  0  0  0  0  0  0  0  0  0
    2.4223    1.8373   -0.4586 C   0  0  0  0  0  0  0  0  0  0  0  0
    3.4871    0.9639   -0.2993 C   0  0  0  0  0  0  0  0  0  0  0  0
    3.2667   -0.3588    0.0866 C   0  0  0  0  0  0  0  0  0  0  0  0
    4.4729   -0.9955    0.1736 O   0  0  0  0  0  0  0  0  0  0  0  0
    5.4564    0.0543    0.2338 C   0  0  0  0  0  0  0  0  0  0  0  0
    4.8302    1.1522   -0.4522 O   0  0  0  0  0  0  0  0  0  0  0  0
    0.0874    2.2555   -0.3805 O   0  0  0  0  0  0  0  0  0  0  0  0
   -1.1657    1.8124   -0.4832 C   0  0  0  0  0  0  0  0  0  0  0  0
   -1.5356    0.5492   -0.1484 C   0  0  0  0  0  0  0  0  0  0  0  0
   -0.4910   -0.3761    0.3329 C   0  0  0  0  0  0  0  0  0  0  0  0
   -0.7623   -1.4395    0.8640 O   0  0  0  0  0  0  0  0  0  0  0  0
   -2.9481    0.1122   -0.2628 C   0  0  0  0  0  0  0  0  0  0  0  0
   -3.3392   -0.7239   -1.3056 C   0  0  0  0  0  0  0  0  0  0  0  0
   -4.6555   -1.1284   -1.4075 C   0  0  0  0  0  0  0  0  0  0  0  0
   -5.5879   -0.7061   -0.4772 C   0  0  0  0  0  0  0  0  0  0  0  0
   -5.2100    0.1242    0.5620 C   0  0  0  0  0  0  0  0  0  0  0  0
   -3.8921    0.5332    0.6792 C   0  0  0  0  0  0  0  0  0  0  0  0
   -3.5196    1.3487    1.7003 O   0  0  0  0  0  0  0  0  0  0  0  0
    2.4486   -3.0815   -1.0095 H   0  0  0  0  0  0  0  0  0  0  0  0
    1.3983   -4.0416    0.0598 H   0  0  0  0  0  0  0  0  0  0  0  0
    0.6964   -2.7712   -0.9706 H   0  0  0  0  0  0  0  0  0  0  0  0
    2.6057    2.8601   -0.7529 H   0  0  0  0  0  0  0  0  0  0  0  0
    5.6661    0.3235    1.2690 H   0  0  0  0  0  0  0  0  0  0  0  0
    6.3706   -0.2478   -0.2770 H   0  0  0  0  0  0  0  0  0  0  0  0
   -1.9227    2.4900   -0.8496 H   0  0  0  0  0  0  0  0  0  0  0  0
   -2.6139   -1.0553   -2.0339 H   0  0  0  0  0  0  0  0  0  0  0  0
   -4.9581   -1.7766   -2.2166 H   0  0  0  0  0  0  0  0  0  0  0  0
   -6.6159   -1.0260   -0.5630 H   0  0  0  0  0  0  0  0  0  0  0  0
   -5.9426    0.4509    1.2851 H   0  0  0  0  0  0  0  0  0  0  0  0
   -3.2370    0.8782    2.4964 H   0  0  0  0  0  0  0  0  0  0  0  0
  1  2  1  0  0  0  0
  2  3  1  0  0  0  0
  3  4  2  0  0  0  0
  4  5  1  0  0  0  0
  5  6  2  0  0  0  0
  6  7  1  0  0  0  0
  7  8  2  0  0  0  0
  3  8  1  0  0  0  0
  8  9  1  0  0  0  0
  9 10  1  0  0  0  0
 10 11  1  0  0  0  0
  7 11  1  0  0  0  0
  5 12  1  0  0  0  0
 12 13  1  0  0  0  0
 13 14  2  0  0  0  0
 14 15  1  0  0  0  0
  4 15  1  0  0  0  0
 15 16  2  0  0  0  0
 14 17  1  0  0  0  0
 17 18  2  0  0  0  0
 18 19  1  0  0  0  0
 19 20  2  0  0  0  0
 20 21  1  0  0  0  0
 21 22  2  0  0  0  0
 17 22  1  0  0  0  0
 22 23  1  0  0  0  0
  1 24  1  0  0  0  0
  1 25  1  0  0  0  0
  1 26  1  0  0  0  0
  6 27  1  0  0  0  0
 10 28  1  0  0  0  0
 10 29  1  0  0  0  0
 13 30  1  0  0  0  0
 18 31  1  0  0  0  0
 19 32  1  0  0  0  0
 20 33  1  0  0  0  0
 21 34  1  0  0  0  0
 23 35  1  0  0  0  0
M  END
$$$$
