C14H14O3
APtclcactv06211806533D 0   0.00000     0.00000
 
 31 32  0  0  0  0  0  0  0  0999 V2000
   -4.3737    1.5515    0.0055 C   0  0  0  0  0  0  0  0  0  0  0  0
   -5.0847    0.3878   -0.2211 C   0  0  0  0  0  0  0  0  0  0  0  0
   -4.4436   -0.8352   -0.1738 C   0  0  0  0  0  0  0  0  0  0  0  0
   -3.0853   -0.8947    0.1013 C   0  0  0  0  0  0  0  0  0  0  0  0
   -2.3739    0.2748    0.3283 C   0  0  0  0  0  0  0  0  0  0  0  0
   -3.0195    1.4949    0.2800 C   0  0  0  0  0  0  0  0  0  0  0  0
   -0.8983    0.2138    0.6279 C   0  0  0  0  0  0  0  0  0  0  0  0
   -0.1130    0.1645   -0.6843 C   0  0  0  0  0  0  0  0  0  0  0  0
    1.3626    0.1035   -0.3846 C   0  0  0  0  0  0  0  0  0  0  0  0
    1.9858   -1.1205   -0.2339 C   0  0  0  0  0  0  0  0  0  0  0  0
    3.3444   -1.1793    0.0425 C   0  0  0  0  0  0  0  0  0  0  0  0
    4.0766   -0.0087    0.1669 C   0  0  0  0  0  0  0  0  0  0  0  0
    3.4492    1.2181    0.0148 C   0  0  0  0  0  0  0  0  0  0  0  0
    2.0913    1.2716   -0.2667 C   0  0  0  0  0  0  0  0  0  0  0  0
    4.1642    2.3674    0.1366 O   0  0  0  0  0  0  0  0  0  0  0  0
    3.9566   -2.3834    0.1916 O   0  0  0  0  0  0  0  0  0  0  0  0
   -2.4525   -2.0964    0.1488 O   0  0  0  0  0  0  0  0  0  0  0  0
   -4.8758    2.5068   -0.0364 H   0  0  0  0  0  0  0  0  0  0  0  0
   -6.1423    0.4346   -0.4349 H   0  0  0  0  0  0  0  0  0  0  0  0
   -4.9995   -1.7441   -0.3505 H   0  0  0  0  0  0  0  0  0  0  0  0
   -2.4663    2.4054    0.4566 H   0  0  0  0  0  0  0  0  0  0  0  0
   -0.6055    1.0983    1.1936 H   0  0  0  0  0  0  0  0  0  0  0  0
   -0.6831   -0.6798    1.2138 H   0  0  0  0  0  0  0  0  0  0  0  0
   -0.4058   -0.7200   -1.2499 H   0  0  0  0  0  0  0  0  0  0  0  0
   -0.3282    1.0582   -1.2702 H   0  0  0  0  0  0  0  0  0  0  0  0
    1.4149   -2.0321   -0.3309 H   0  0  0  0  0  0  0  0  0  0  0  0
    5.1340   -0.0524    0.3823 H   0  0  0  0  0  0  0  0  0  0  0  0
    1.6021    2.2270   -0.3853 H   0  0  0  0  0  0  0  0  0  0  0  0
    4.5467    2.6825   -0.6938 H   0  0  0  0  0  0  0  0  0  0  0  0
    4.3091   -2.7499   -0.6309 H   0  0  0  0  0  0  0  0  0  0  0  0
   -2.0918   -2.3849   -0.7008 H   0  0  0  0  0  0  0  0  0  0  0  0
  1  2  2  0  0  0  0
  2  3  1  0  0  0  0
  3  4  2  0  0  0  0
  4  5  1  0  0  0  0
  5  6  2  0  0  0  0
  1  6  1  0  0  0  0
  5  7  1  0  0  0  0
  7  8  1  0  0  0  0
  8  9  1  0  0  0  0
  9 10  2  0  0  0  0
 10 11  1  0  0  0  0
 11 12  2  0  0  0  0
 12 13  1  0  0  0  0
 13 14  2  0  0  0  0
  9 14  1  0  0  0  0
 13 15  1  0  0  0  0
 11 16  1  0  0  0  0
  4 17  1  0  0  0  0
  1 18  1  0  0  0  0
  2 19  1  0  0  0  0
  3 20  1  0  0  0  0
  6 21  1  0  0  0  0
  7 22  1  0  0  0  0
  7 23  1  0  0  0  0
  8 24  1  0  0  0  0
  8 25  1  0  0  0  0
 10 26  1  0  0  0  0
 12 27  1  0  0  0  0
 14 28  1  0  0  0  0
 15 29  1  0  0  0  0
 16 30  1  0  0  0  0
 17 31  1  0  0  0  0
M  END
$$$$
