C27H30O14
APtclcactv06211806533D 0   0.00000     0.00000
 
 71 75  0  0  0  0  0  0  0  0999 V2000
    2.7124    3.5999    1.9622 C   0  0  0  0  0  0  0  0  0  0  0  0
    1.2561    3.8752    1.5826 C   0  0  0  0  0  0  0  0  0  0  0  0
    1.2119    4.7175    0.3050 C   0  0  0  0  0  0  0  0  0  0  0  0
    1.8494    3.9262   -0.8412 C   0  0  0  0  0  0  0  0  0  0  0  0
    1.1122    2.5927   -0.9983 C   0  0  0  0  0  0  0  0  0  0  0  0
    1.1602    1.8325    0.3297 C   0  0  0  0  0  0  0  0  0  0  0  0
    0.5796    2.6365    1.3586 O   0  0  0  0  0  0  0  0  0  0  0  0
    0.3863    0.5458    0.2004 C   0  0  0  0  0  0  0  0  0  0  0  0
   -0.9996    0.5689    0.1923 C   0  0  0  0  0  0  0  0  0  0  0  0
   -1.7275   -0.6103    0.0742 C   0  0  0  0  0  0  0  0  0  0  0  0
   -1.0724   -1.8227   -0.0368 C   0  0  0  0  0  0  0  0  0  0  0  0
    0.3279   -1.8533   -0.0298 C   0  0  0  0  0  0  0  0  0  0  0  0
    1.0609   -0.6596    0.0840 C   0  0  0  0  0  0  0  0  0  0  0  0
    2.4103   -0.6995    0.0895 O   0  0  0  0  0  0  0  0  0  0  0  0
    3.0940   -1.8505   -0.0110 C   0  0  0  0  0  0  0  0  0  0  0  0
    2.4791   -3.0584   -0.1253 C   0  0  0  0  0  0  0  0  0  0  0  0
    1.0656   -3.1226   -0.1461 C   0  0  0  0  0  0  0  0  0  0  0  0
    0.4807   -4.1889   -0.2470 O   0  0  0  0  0  0  0  0  0  0  0  0
    4.5682   -1.8034    0.0025 C   0  0  0  0  0  0  0  0  0  0  0  0
    5.2292   -0.5773    0.1183 C   0  0  0  0  0  0  0  0  0  0  0  0
    6.6059   -0.5379    0.1305 C   0  0  0  0  0  0  0  0  0  0  0  0
    7.3377   -1.7149    0.0279 C   0  0  0  0  0  0  0  0  0  0  0  0
    6.6845   -2.9362   -0.0874 C   0  0  0  0  0  0  0  0  0  0  0  0
    5.3081   -2.9853   -0.0946 C   0  0  0  0  0  0  0  0  0  0  0  0
    8.6945   -1.6715    0.0399 O   0  0  0  0  0  0  0  0  0  0  0  0
   -1.7808   -2.9746   -0.1512 O   0  0  0  0  0  0  0  0  0  0  0  0
   -3.2338   -0.5664    0.0677 C   0  0  0  0  0  0  0  0  0  0  0  0
   -3.7449   -0.7904   -1.3579 C   0  0  0  0  0  0  0  0  0  0  0  0
   -5.2766   -0.8044   -1.3465 C   0  0  0  0  0  0  0  0  0  0  0  0
   -5.7591   -1.8894   -0.3788 C   0  0  0  0  0  0  0  0  0  0  0  0
   -5.1702   -1.6230    1.0090 C   0  0  0  0  0  0  0  0  0  0  0  0
   -3.7441   -1.5921    0.9219 O   0  0  0  0  0  0  0  0  0  0  0  0
   -5.6789   -0.2771    1.5294 C   0  0  0  0  0  0  0  0  0  0  0  0
   -5.2546   -0.0983    2.8822 O   0  0  0  0  0  0  0  0  0  0  0  0
   -7.1860   -1.8633   -0.3051 O   0  0  0  0  0  0  0  0  0  0  0  0
   -5.7632    0.4690   -0.9180 O   0  0  0  0  0  0  0  0  0  0  0  0
   -3.2834    0.2661   -2.2022 O   0  0  0  0  0  0  0  0  0  0  0  0
   -1.6528    1.7540    0.3011 O   0  0  0  0  0  0  0  0  0  0  0  0
   -0.2485    2.8389   -1.3587 O   0  0  0  0  0  0  0  0  0  0  0  0
    1.7467    4.6749   -2.0540 O   0  0  0  0  0  0  0  0  0  0  0  0
   -0.1462    5.0199   -0.0209 O   0  0  0  0  0  0  0  0  0  0  0  0
    3.2285    4.5448    2.1321 H   0  0  0  0  0  0  0  0  0  0  0  0
    2.7437    3.0002    2.8719 H   0  0  0  0  0  0  0  0  0  0  0  0
    3.2027    3.0585    1.1531 H   0  0  0  0  0  0  0  0  0  0  0  0
    0.7656    4.4162    2.3918 H   0  0  0  0  0  0  0  0  0  0  0  0
    1.7652    5.6437    0.4601 H   0  0  0  0  0  0  0  0  0  0  0  0
    2.8989    3.7382   -0.6150 H   0  0  0  0  0  0  0  0  0  0  0  0
    1.5942    1.9994   -1.7753 H   0  0  0  0  0  0  0  0  0  0  0  0
    2.1965    1.6096    0.5837 H   0  0  0  0  0  0  0  0  0  0  0  0
    3.0656   -3.9619   -0.2042 H   0  0  0  0  0  0  0  0  0  0  0  0
    4.6613    0.3379    0.1978 H   0  0  0  0  0  0  0  0  0  0  0  0
    7.1174    0.4090    0.2196 H   0  0  0  0  0  0  0  0  0  0  0  0
    7.2570   -3.8485   -0.1669 H   0  0  0  0  0  0  0  0  0  0  0  0
    4.8013   -3.9348   -0.1839 H   0  0  0  0  0  0  0  0  0  0  0  0
    9.0824   -1.7389    0.9231 H   0  0  0  0  0  0  0  0  0  0  0  0
   -1.9802   -3.2247   -1.0637 H   0  0  0  0  0  0  0  0  0  0  0  0
   -3.5707    0.4063    0.4261 H   0  0  0  0  0  0  0  0  0  0  0  0
   -3.3747   -1.7449   -1.7318 H   0  0  0  0  0  0  0  0  0  0  0  0
   -5.6468   -1.0192   -2.3490 H   0  0  0  0  0  0  0  0  0  0  0  0
   -5.4295   -2.8661   -0.7330 H   0  0  0  0  0  0  0  0  0  0  0  0
   -5.4756   -2.4158    1.6918 H   0  0  0  0  0  0  0  0  0  0  0  0
   -5.2759    0.5265    0.9130 H   0  0  0  0  0  0  0  0  0  0  0  0
   -6.7678   -0.2583    1.4846 H   0  0  0  0  0  0  0  0  0  0  0  0
   -5.5421    0.7360    3.2775 H   0  0  0  0  0  0  0  0  0  0  0  0
   -7.6265   -2.0202   -1.1515 H   0  0  0  0  0  0  0  0  0  0  0  0
   -6.7277    0.5315   -0.8871 H   0  0  0  0  0  0  0  0  0  0  0  0
   -3.5704    0.1882   -3.1223 H   0  0  0  0  0  0  0  0  0  0  0  0
   -1.8355    2.1817   -0.5467 H   0  0  0  0  0  0  0  0  0  0  0  0
   -0.3541    3.3223   -2.1895 H   0  0  0  0  0  0  0  0  0  0  0  0
    2.1863    5.5357   -2.0233 H   0  0  0  0  0  0  0  0  0  0  0  0
   -0.6138    5.5169    0.6643 H   0  0  0  0  0  0  0  0  0  0  0  0
  1  2  1  0  0  0  0
  2  3  1  0  0  0  0
  3  4  1  0  0  0  0
  4  5  1  0  0  0  0
  5  6  1  0  0  0  0
  6  7  1  0  0  0  0
  2  7  1  0  0  0  0
  6  8  1  0  0  0  0
  8  9  2  0  0  0  0
  9 10  1  0  0  0  0
 10 11  2  0  0  0  0
 11 12  1  0  0  0  0
 12 13  2  0  0  0  0
  8 13  1  0  0  0  0
 13 14  1  0  0  0  0
 14 15  1  0  0  0  0
 15 16  2  0  0  0  0
 16 17  1  0  0  0  0
 12 17  1  0  0  0  0
 17 18  2  0  0  0  0
 15 19  1  0  0  0  0
 19 20  2  0  0  0  0
 20 21  1  0  0  0  0
 21 22  2  0  0  0  0
 22 23  1  0  0  0  0
 23 24  2  0  0  0  0
 19 24  1  0  0  0  0
 22 25  1  0  0  0  0
 11 26  1  0  0  0  0
 10 27  1  0  0  0  0
 27 28  1  0  0  0  0
 28 29  1  0  0  0  0
 29 30  1  0  0  0  0
 30 31  1  0  0  0  0
 31 32  1  0  0  0  0
 27 32  1  0  0  0  0
 31 33  1  0  0  0  0
 33 34  1  0  0  0  0
 30 35  1  0  0  0  0
 29 36  1  0  0  0  0
 28 37  1  0  0  0  0
  9 38  1  0  0  0  0
  5 39  1  0  0  0  0
  4 40  1  0  0  0  0
  3 41  1  0  0  0  0
  1 42  1  0  0  0  0
  1 43  1  0  0  0  0
  1 44  1  0  0  0  0
  2 45  1  0  0  0  0
  3 46  1  0  0  0  0
  4 47  1  0  0  0  0
  5 48  1  0  0  0  0
  6 49  1  0  0  0  0
 16 50  1  0  0  0  0
 20 51  1  0  0  0  0
 21 52  1  0  0  0  0
 23 53  1  0  0  0  0
 24 54  1  0  0  0  0
 25 55  1  0  0  0  0
 26 56  1  0  0  0  0
 27 57  1  0  0  0  0
 28 58  1  0  0  0  0
 29 59  1  0  0  0  0
 30 60  1  0  0  0  0
 31 61  1  0  0  0  0
 33 62  1  0  0  0  0
 33 63  1  0  0  0  0
 34 64  1  0  0  0  0
 35 65  1  0  0  0  0
 36 66  1  0  0  0  0
 37 67  1  0  0  0  0
 38 68  1  0  0  0  0
 39 69  1  0  0  0  0
 40 70  1  0  0  0  0
 41 71  1  0  0  0  0
M  END
$$$$
