C25H24O6
APtclcactv06291802513D 0   0.00000     0.00000
 
 55 58  0  0  0  0  0  0  0  0999 V2000
    5.0048   -3.1832   -0.7642 C   0  0  0  0  0  0  0  0  0  0  0  0
    5.7607   -2.3359    0.2267 C   0  0  0  0  0  0  0  0  0  0  0  0
    5.9176   -1.0540    0.0070 C   0  0  0  0  0  0  0  0  0  0  0  0
    5.2414   -0.4033   -1.1721 C   0  0  0  0  0  0  0  0  0  0  0  0
    4.3066    0.6733   -0.6839 C   0  0  0  0  0  0  0  0  0  0  0  0
    4.7375    1.9840   -0.5159 C   0  0  0  0  0  0  0  0  0  0  0  0
    3.8886    2.9859   -0.0672 C   0  0  0  0  0  0  0  0  0  0  0  0
    2.5625    2.7317    0.2384 C   0  0  0  0  0  0  0  0  0  0  0  0
    2.1144    1.4221    0.0747 C   0  0  0  0  0  0  0  0  0  0  0  0
    2.9761    0.3972   -0.3887 C   0  0  0  0  0  0  0  0  0  0  0  0
    2.2785   -0.7468   -0.4485 O   0  0  0  0  0  0  0  0  0  0  0  0
    1.0096   -0.5689   -0.0567 C   0  0  0  0  0  0  0  0  0  0  0  0
    0.8342    0.7757    0.2811 C   0  0  0  0  0  0  0  0  0  0  0  0
   -0.4673    1.2657    0.7414 C   0  0  0  0  0  0  0  0  0  0  0  0
   -0.6327    2.3789    1.2114 O   0  0  0  0  0  0  0  0  0  0  0  0
   -1.5642    0.2821    0.5820 C   0  0  0  0  0  0  0  0  0  0  0  0
   -2.8935    0.6735    0.7882 C   0  0  0  0  0  0  0  0  0  0  0  0
   -3.9105   -0.2485    0.6235 C   0  0  0  0  0  0  0  0  0  0  0  0
   -3.6080   -1.5550    0.2571 C   0  0  0  0  0  0  0  0  0  0  0  0
   -2.2957   -1.9485    0.0579 C   0  0  0  0  0  0  0  0  0  0  0  0
   -1.2550   -1.0393    0.2216 C   0  0  0  0  0  0  0  0  0  0  0  0
    0.0135   -1.4679    0.0302 O   0  0  0  0  0  0  0  0  0  0  0  0
   -4.6108   -2.4550    0.0923 O   0  0  0  0  0  0  0  0  0  0  0  0
   -5.3441    0.1619    0.8411 C   0  0  0  0  0  0  0  0  0  0  0  0
   -5.9268    0.6592   -0.4566 C   0  0  0  0  0  0  0  0  0  0  0  0
   -7.0386    0.1410   -0.9166 C   0  0  0  0  0  0  0  0  0  0  0  0
   -7.6631   -1.0412   -0.2213 C   0  0  0  0  0  0  0  0  0  0  0  0
   -7.6931    0.7272   -2.1410 C   0  0  0  0  0  0  0  0  0  0  0  0
   -3.1812    1.9500    1.1480 O   0  0  0  0  0  0  0  0  0  0  0  0
    6.0304    2.2939   -0.7995 O   0  0  0  0  0  0  0  0  0  0  0  0
    6.3362   -2.9633    1.4701 C   0  0  0  0  0  0  0  0  0  0  0  0
    5.4517   -3.0727   -1.7522 H   0  0  0  0  0  0  0  0  0  0  0  0
    5.0520   -4.2285   -0.4589 H   0  0  0  0  0  0  0  0  0  0  0  0
    3.9640   -2.8612   -0.7981 H   0  0  0  0  0  0  0  0  0  0  0  0
    6.5315   -0.4635    0.6710 H   0  0  0  0  0  0  0  0  0  0  0  0
    5.9946    0.0381   -1.8248 H   0  0  0  0  0  0  0  0  0  0  0  0
    4.6753   -1.1526   -1.7254 H   0  0  0  0  0  0  0  0  0  0  0  0
    4.2722    3.9890    0.0469 H   0  0  0  0  0  0  0  0  0  0  0  0
    1.9045    3.5133    0.5884 H   0  0  0  0  0  0  0  0  0  0  0  0
   -2.0782   -2.9675   -0.2260 H   0  0  0  0  0  0  0  0  0  0  0  0
   -4.9630   -2.4911   -0.8075 H   0  0  0  0  0  0  0  0  0  0  0  0
   -5.9182   -0.6956    1.1922 H   0  0  0  0  0  0  0  0  0  0  0  0
   -5.3855    0.9565    1.5861 H   0  0  0  0  0  0  0  0  0  0  0  0
   -5.4279    1.4428   -1.0075 H   0  0  0  0  0  0  0  0  0  0  0  0
   -8.2879   -0.6911    0.6003 H   0  0  0  0  0  0  0  0  0  0  0  0
   -8.2746   -1.5986   -0.9309 H   0  0  0  0  0  0  0  0  0  0  0  0
   -6.8784   -1.6890    0.1695 H   0  0  0  0  0  0  0  0  0  0  0  0
   -7.1015    1.5686   -2.5016 H   0  0  0  0  0  0  0  0  0  0  0  0
   -7.7550   -0.0335   -2.9192 H   0  0  0  0  0  0  0  0  0  0  0  0
   -8.6962    1.0703   -1.8877 H   0  0  0  0  0  0  0  0  0  0  0  0
   -3.3304    2.5451    0.4006 H   0  0  0  0  0  0  0  0  0  0  0  0
    6.1779    2.5650   -1.7159 H   0  0  0  0  0  0  0  0  0  0  0  0
    7.3503   -3.3077    1.2673 H   0  0  0  0  0  0  0  0  0  0  0  0
    6.3566   -2.2262    2.2729 H   0  0  0  0  0  0  0  0  0  0  0  0
    5.7181   -3.8096    1.7695 H   0  0  0  0  0  0  0  0  0  0  0  0
  1  2  1  0  0  0  0
  2  3  2  0  0  0  0
  3  4  1  0  0  0  0
  4  5  1  0  0  0  0
  5  6  2  0  0  0  0
  6  7  1  0  0  0  0
  7  8  2  0  0  0  0
  8  9  1  0  0  0  0
  9 10  2  0  0  0  0
  5 10  1  0  0  0  0
 10 11  1  0  0  0  0
 11 12  1  0  0  0  0
 12 13  2  0  0  0  0
  9 13  1  0  0  0  0
 13 14  1  0  0  0  0
 14 15  2  0  0  0  0
 14 16  1  0  0  0  0
 16 17  2  0  0  0  0
 17 18  1  0  0  0  0
 18 19  2  0  0  0  0
 19 20  1  0  0  0  0
 20 21  2  0  0  0  0
 16 21  1  0  0  0  0
 21 22  1  0  0  0  0
 12 22  1  0  0  0  0
 19 23  1  0  0  0  0
 18 24  1  0  0  0  0
 24 25  1  0  0  0  0
 25 26  2  0  0  0  0
 26 27  1  0  0  0  0
 26 28  1  0  0  0  0
 17 29  1  0  0  0  0
  6 30  1  0  0  0  0
  2 31  1  0  0  0  0
  1 32  1  0  0  0  0
  1 33  1  0  0  0  0
  1 34  1  0  0  0  0
  3 35  1  0  0  0  0
  4 36  1  0  0  0  0
  4 37  1  0  0  0  0
  7 38  1  0  0  0  0
  8 39  1  0  0  0  0
 20 40  1  0  0  0  0
 23 41  1  0  0  0  0
 24 42  1  0  0  0  0
 24 43  1  0  0  0  0
 25 44  1  0  0  0  0
 27 45  1  0  0  0  0
 27 46  1  0  0  0  0
 27 47  1  0  0  0  0
 28 48  1  0  0  0  0
 28 49  1  0  0  0  0
 28 50  1  0  0  0  0
 29 51  1  0  0  0  0
 30 52  1  0  0  0  0
 31 53  1  0  0  0  0
 31 54  1  0  0  0  0
 31 55  1  0  0  0  0
M  END
$$$$
