C18H16O8
APtclcactv06211806533D 0   0.00000     0.00000
 
 42 44  0  0  0  0  0  0  0  0999 V2000
    4.0453    2.6496    1.5593 C   0  0  0  0  0  0  0  0  0  0  0  0
    4.9193    1.7416    0.8858 O   0  0  0  0  0  0  0  0  0  0  0  0
    4.3522    0.6399    0.3252 C   0  0  0  0  0  0  0  0  0  0  0  0
    5.1467   -0.2873   -0.3470 C   0  0  0  0  0  0  0  0  0  0  0  0
    4.5713   -1.4130   -0.9203 C   0  0  0  0  0  0  0  0  0  0  0  0
    3.2119   -1.6193   -0.8272 C   0  0  0  0  0  0  0  0  0  0  0  0
    2.4093   -0.6941   -0.1543 C   0  0  0  0  0  0  0  0  0  0  0  0
    2.9894    0.4368    0.4271 C   0  0  0  0  0  0  0  0  0  0  0  0
    0.9540   -0.9128   -0.0539 C   0  0  0  0  0  0  0  0  0  0  0  0
    0.4959   -2.1738    0.1724 C   0  0  0  0  0  0  0  0  0  0  0  0
   -0.8964   -2.4032    0.2717 C   0  0  0  0  0  0  0  0  0  0  0  0
   -1.3417   -3.5213    0.4745 O   0  0  0  0  0  0  0  0  0  0  0  0
   -1.7879   -1.2403    0.1213 C   0  0  0  0  0  0  0  0  0  0  0  0
   -1.2115    0.0206   -0.1102 C   0  0  0  0  0  0  0  0  0  0  0  0
    0.1325    0.1406   -0.1839 O   0  0  0  0  0  0  0  0  0  0  0  0
   -2.0333    1.1317   -0.2553 C   0  0  0  0  0  0  0  0  0  0  0  0
   -3.4118    0.9913   -0.1707 C   0  0  0  0  0  0  0  0  0  0  0  0
   -3.9841   -0.2581    0.0588 C   0  0  0  0  0  0  0  0  0  0  0  0
   -3.1784   -1.3759    0.2047 C   0  0  0  0  0  0  0  0  0  0  0  0
   -3.7347   -2.5957    0.4283 O   0  0  0  0  0  0  0  0  0  0  0  0
   -5.3376   -0.3810    0.1394 O   0  0  0  0  0  0  0  0  0  0  0  0
   -4.2103    2.0824   -0.3126 O   0  0  0  0  0  0  0  0  0  0  0  0
   -4.5264    2.8136    0.8737 C   0  0  0  0  0  0  0  0  0  0  0  0
   -1.4864    2.3583   -0.4799 O   0  0  0  0  0  0  0  0  0  0  0  0
   -1.2870    2.7400   -1.8424 C   0  0  0  0  0  0  0  0  0  0  0  0
    6.4873   -0.0887   -0.4417 O   0  0  0  0  0  0  0  0  0  0  0  0
    4.6243    3.4821    1.9591 H   0  0  0  0  0  0  0  0  0  0  0  0
    3.3027    3.0278    0.8567 H   0  0  0  0  0  0  0  0  0  0  0  0
    3.5423    2.1316    2.3758 H   0  0  0  0  0  0  0  0  0  0  0  0
    5.1904   -2.1286   -1.4410 H   0  0  0  0  0  0  0  0  0  0  0  0
    2.7668   -2.4958   -1.2745 H   0  0  0  0  0  0  0  0  0  0  0  0
    2.3728    1.1541    0.9483 H   0  0  0  0  0  0  0  0  0  0  0  0
    1.1907   -2.9943    0.2752 H   0  0  0  0  0  0  0  0  0  0  0  0
   -3.9347   -3.0905   -0.3781 H   0  0  0  0  0  0  0  0  0  0  0  0
   -5.7675   -0.5587   -0.7084 H   0  0  0  0  0  0  0  0  0  0  0  0
   -5.0189    2.1531    1.5873 H   0  0  0  0  0  0  0  0  0  0  0  0
   -3.6096    3.2055    1.3141 H   0  0  0  0  0  0  0  0  0  0  0  0
   -5.1920    3.6401    0.6245 H   0  0  0  0  0  0  0  0  0  0  0  0
   -0.5915    2.0470   -2.3158 H   0  0  0  0  0  0  0  0  0  0  0  0
   -2.2404    2.7150   -2.3701 H   0  0  0  0  0  0  0  0  0  0  0  0
   -0.8769    3.7492   -1.8807 H   0  0  0  0  0  0  0  0  0  0  0  0
    6.9945   -0.4758    0.2849 H   0  0  0  0  0  0  0  0  0  0  0  0
  1  2  1  0  0  0  0
  2  3  1  0  0  0  0
  3  4  2  0  0  0  0
  4  5  1  0  0  0  0
  5  6  2  0  0  0  0
  6  7  1  0  0  0  0
  7  8  2  0  0  0  0
  3  8  1  0  0  0  0
  7  9  1  0  0  0  0
  9 10  2  0  0  0  0
 10 11  1  0  0  0  0
 11 12  2  0  0  0  0
 11 13  1  0  0  0  0
 13 14  2  0  0  0  0
 14 15  1  0  0  0  0
  9 15  1  0  0  0  0
 14 16  1  0  0  0  0
 16 17  2  0  0  0  0
 17 18  1  0  0  0  0
 18 19  2  0  0  0  0
 13 19  1  0  0  0  0
 19 20  1  0  0  0  0
 18 21  1  0  0  0  0
 17 22  1  0  0  0  0
 22 23  1  0  0  0  0
 16 24  1  0  0  0  0
 24 25  1  0  0  0  0
  4 26  1  0  0  0  0
  1 27  1  0  0  0  0
  1 28  1  0  0  0  0
  1 29  1  0  0  0  0
  5 30  1  0  0  0  0
  6 31  1  0  0  0  0
  8 32  1  0  0  0  0
 10 33  1  0  0  0  0
 20 34  1  0  0  0  0
 21 35  1  0  0  0  0
 23 36  1  0  0  0  0
 23 37  1  0  0  0  0
 23 38  1  0  0  0  0
 25 39  1  0  0  0  0
 25 40  1  0  0  0  0
 25 41  1  0  0  0  0
 26 42  1  0  0  0  0
M  END
$$$$
