C17H16O4
APtclcactv06211806533D 0   0.00000     0.00000
 
 37 39  0  0  0  0  0  0  0  0999 V2000
    5.6777    0.4038    0.0008 C   0  0  0  0  0  0  0  0  0  0  0  0
    4.8849   -0.7851    0.0047 O   0  0  0  0  0  0  0  0  0  0  0  0
    3.5353   -0.6267    0.0032 C   0  0  0  0  0  0  0  0  0  0  0  0
    2.9920    0.6564   -0.0020 C   0  0  0  0  0  0  0  0  0  0  0  0
    1.6240    0.8373   -0.0036 C   0  0  0  0  0  0  0  0  0  0  0  0
    0.7764   -0.2783   -0.0004 C   0  0  0  0  0  0  0  0  0  0  0  0
    1.3254   -1.5800    0.0044 C   0  0  0  0  0  0  0  0  0  0  0  0
    2.7179   -1.7379    0.0011 C   0  0  0  0  0  0  0  0  0  0  0  0
    0.4679   -2.7053    0.0076 C   0  0  0  0  0  0  0  0  0  0  0  0
   -0.8734   -2.5675    0.0062 C   0  0  0  0  0  0  0  0  0  0  0  0
   -1.4842   -1.2918    0.0009 C   0  0  0  0  0  0  0  0  0  0  0  0
   -2.8806   -1.1644   -0.0015 C   0  0  0  0  0  0  0  0  0  0  0  0
   -3.4542    0.0871   -0.0072 C   0  0  0  0  0  0  0  0  0  0  0  0
   -2.6563    1.2367   -0.0110 C   0  0  0  0  0  0  0  0  0  0  0  0
   -1.2813    1.1327   -0.0092 C   0  0  0  0  0  0  0  0  0  0  0  0
   -0.6816   -0.1282   -0.0025 C   0  0  0  0  0  0  0  0  0  0  0  0
   -3.2405    2.4641   -0.0170 O   0  0  0  0  0  0  0  0  0  0  0  0
   -4.8086    0.2073   -0.0095 O   0  0  0  0  0  0  0  0  0  0  0  0
   -5.5674   -1.0036   -0.0059 C   0  0  0  0  0  0  0  0  0  0  0  0
    1.1015    2.0911   -0.0079 O   0  0  0  0  0  0  0  0  0  0  0  0
    2.0273    3.1797   -0.0104 C   0  0  0  0  0  0  0  0  0  0  0  0
    5.4523    0.9878   -0.8916 H   0  0  0  0  0  0  0  0  0  0  0  0
    5.4511    0.9945    0.8883 H   0  0  0  0  0  0  0  0  0  0  0  0
    6.7343    0.1360    0.0025 H   0  0  0  0  0  0  0  0  0  0  0  0
    3.6463    1.5156   -0.0045 H   0  0  0  0  0  0  0  0  0  0  0  0
    3.1502   -2.7276    0.0048 H   0  0  0  0  0  0  0  0  0  0  0  0
    0.8970   -3.6964    0.0110 H   0  0  0  0  0  0  0  0  0  0  0  0
   -1.4950   -3.4506    0.0087 H   0  0  0  0  0  0  0  0  0  0  0  0
   -3.5047   -2.0459    0.0007 H   0  0  0  0  0  0  0  0  0  0  0  0
   -0.6705    2.0234   -0.0125 H   0  0  0  0  0  0  0  0  0  0  0  0
   -3.4108    2.8230    0.8646 H   0  0  0  0  0  0  0  0  0  0  0  0
   -5.3237   -1.5878   -0.8933 H   0  0  0  0  0  0  0  0  0  0  0  0
   -5.3261   -1.5809    0.8867 H   0  0  0  0  0  0  0  0  0  0  0  0
   -6.6311   -0.7659   -0.0083 H   0  0  0  0  0  0  0  0  0  0  0  0
    2.6534    3.1263    0.8802 H   0  0  0  0  0  0  0  0  0  0  0  0
    2.6548    3.1209   -0.8998 H   0  0  0  0  0  0  0  0  0  0  0  0
    1.4799    4.1222   -0.0137 H   0  0  0  0  0  0  0  0  0  0  0  0
  1  2  1  0  0  0  0
  2  3  1  0  0  0  0
  3  4  2  0  0  0  0
  4  5  1  0  0  0  0
  5  6  2  0  0  0  0
  6  7  1  0  0  0  0
  7  8  2  0  0  0  0
  3  8  1  0  0  0  0
  7  9  1  0  0  0  0
  9 10  2  0  0  0  0
 10 11  1  0  0  0  0
 11 12  2  0  0  0  0
 12 13  1  0  0  0  0
 13 14  2  0  0  0  0
 14 15  1  0  0  0  0
 15 16  2  0  0  0  0
 11 16  1  0  0  0  0
  6 16  1  0  0  0  0
 14 17  1  0  0  0  0
 13 18  1  0  0  0  0
 18 19  1  0  0  0  0
  5 20  1  0  0  0  0
 20 21  1  0  0  0  0
  1 22  1  0  0  0  0
  1 23  1  0  0  0  0
  1 24  1  0  0  0  0
  4 25  1  0  0  0  0
  8 26  1  0  0  0  0
  9 27  1  0  0  0  0
 10 28  1  0  0  0  0
 12 29  1  0  0  0  0
 15 30  1  0  0  0  0
 17 31  1  0  0  0  0
 19 32  1  0  0  0  0
 19 33  1  0  0  0  0
 19 34  1  0  0  0  0
 21 35  1  0  0  0  0
 21 36  1  0  0  0  0
 21 37  1  0  0  0  0
M  END
$$$$
