C15H18O2
APtclcactv06281816393D 0   0.00000     0.00000
 
 35 37  0  0  0  0  0  0  0  0999 V2000
    2.8161    1.9475   -0.9715 C   0  0  0  0  0  0  0  0  0  0  0  0
    1.9042    1.5873   -0.1028 C   0  0  0  0  0  0  0  0  0  0  0  0
    0.9364    2.6403    0.4546 C   0  0  0  0  0  0  0  0  0  0  0  0
   -0.3959    2.1772   -0.0535 C   0  0  0  0  0  0  0  0  0  0  0  0
   -0.8108    0.7999    0.3627 C   0  0  0  0  0  0  0  0  0  0  0  0
   -0.4205   -0.1350   -0.7788 C   0  0  0  0  0  0  0  0  0  0  0  0
    0.8913   -0.7937   -0.4267 C   0  0  0  0  0  0  0  0  0  0  0  0
    1.8231    0.2009    0.3105 C   0  0  0  0  0  0  0  0  0  0  0  0
    3.1302   -0.6455    0.1157 C   0  0  0  0  0  0  0  0  0  0  0  0
    2.6169   -2.0543    0.5538 C   0  0  0  0  0  0  0  0  0  0  0  0
    1.1029   -2.0683    0.2849 C   0  0  0  0  0  0  0  0  0  0  0  0
    0.2218   -2.9822    0.6083 C   0  0  0  0  0  0  0  0  0  0  0  0
   -1.5105   -1.1015   -0.8461 O   0  0  0  0  0  0  0  0  0  0  0  0
   -2.6388   -0.5169   -0.3895 C   0  0  0  0  0  0  0  0  0  0  0  0
   -3.7679   -0.8733   -0.6638 O   0  0  0  0  0  0  0  0  0  0  0  0
   -2.3005    0.6178    0.4921 C   0  0  0  0  0  0  0  0  0  0  0  0
   -3.1363    1.3301    1.2439 C   0  0  0  0  0  0  0  0  0  0  0  0
    2.8822    2.9775   -1.2894 H   0  0  0  0  0  0  0  0  0  0  0  0
    3.5048    1.2152   -1.3664 H   0  0  0  0  0  0  0  0  0  0  0  0
    0.9542    2.6422    1.5445 H   0  0  0  0  0  0  0  0  0  0  0  0
    1.1757    3.6294    0.0641 H   0  0  0  0  0  0  0  0  0  0  0  0
   -1.1546    2.8800    0.2907 H   0  0  0  0  0  0  0  0  0  0  0  0
   -0.3758    2.2122   -1.1428 H   0  0  0  0  0  0  0  0  0  0  0  0
   -0.3008    0.5119    1.2820 H   0  0  0  0  0  0  0  0  0  0  0  0
   -0.3288    0.4202   -1.7123 H   0  0  0  0  0  0  0  0  0  0  0  0
    1.3977   -0.9357   -1.3814 H   0  0  0  0  0  0  0  0  0  0  0  0
    1.5757    0.1757    1.3718 H   0  0  0  0  0  0  0  0  0  0  0  0
    3.4480   -0.6474   -0.9270 H   0  0  0  0  0  0  0  0  0  0  0  0
    3.9290   -0.2951    0.7693 H   0  0  0  0  0  0  0  0  0  0  0  0
    3.1088   -2.8304   -0.0326 H   0  0  0  0  0  0  0  0  0  0  0  0
    2.8097   -2.2088    1.6155 H   0  0  0  0  0  0  0  0  0  0  0  0
    0.5346   -3.8712    1.1358 H   0  0  0  0  0  0  0  0  0  0  0  0
   -0.8174   -2.8467    0.3473 H   0  0  0  0  0  0  0  0  0  0  0  0
   -4.1908    1.0968    1.2486 H   0  0  0  0  0  0  0  0  0  0  0  0
   -2.7601    2.1414    1.8494 H   0  0  0  0  0  0  0  0  0  0  0  0
  1  2  2  0  0  0  0
  2  3  1  0  0  0  0
  3  4  1  0  0  0  0
  4  5  1  0  0  0  0
  5  6  1  0  0  0  0
  6  7  1  0  0  0  0
  7  8  1  0  0  0  0
  2  8  1  0  0  0  0
  8  9  1  0  0  0  0
  9 10  1  0  0  0  0
 10 11  1  0  0  0  0
  7 11  1  0  0  0  0
 11 12  2  0  0  0  0
  6 13  1  0  0  0  0
 13 14  1  0  0  0  0
 14 15  2  0  0  0  0
 14 16  1  0  0  0  0
  5 16  1  0  0  0  0
 16 17  2  0  0  0  0
  1 18  1  0  0  0  0
  1 19  1  0  0  0  0
  3 20  1  0  0  0  0
  3 21  1  0  0  0  0
  4 22  1  0  0  0  0
  4 23  1  0  0  0  0
  5 24  1  0  0  0  0
  6 25  1  0  0  0  0
  7 26  1  0  0  0  0
  8 27  1  0  0  0  0
  9 28  1  0  0  0  0
  9 29  1  0  0  0  0
 10 30  1  0  0  0  0
 10 31  1  0  0  0  0
 12 32  1  0  0  0  0
 12 33  1  0  0  0  0
 17 34  1  0  0  0  0
 17 35  1  0  0  0  0
M  END
$$$$
