C16H14O5
APtclcactv06291802523D 0   0.00000     0.00000
 
 35 37  0  0  0  0  0  0  0  0999 V2000
    5.7799    1.6329   -0.3331 C   0  0  0  0  0  0  0  0  0  0  0  0
    5.1213    0.3680   -0.2419 O   0  0  0  0  0  0  0  0  0  0  0  0
    3.7634    0.3824   -0.1756 C   0  0  0  0  0  0  0  0  0  0  0  0
    3.0611   -0.8143   -0.0854 C   0  0  0  0  0  0  0  0  0  0  0  0
    1.6752   -0.8012   -0.0177 C   0  0  0  0  0  0  0  0  0  0  0  0
    0.9899    0.4193   -0.0406 C   0  0  0  0  0  0  0  0  0  0  0  0
    1.7052    1.6151   -0.1315 C   0  0  0  0  0  0  0  0  0  0  0  0
    3.0825    1.5923   -0.1925 C   0  0  0  0  0  0  0  0  0  0  0  0
   -0.4852    0.4420    0.0306 C   0  0  0  0  0  0  0  0  0  0  0  0
   -1.2120    1.2050    0.8819 C   0  0  0  0  0  0  0  0  0  0  0  0
   -2.6178    0.9033    0.5986 C   0  0  0  0  0  0  0  0  0  0  0  0
   -2.6005   -0.0490   -0.4360 C   0  0  0  0  0  0  0  0  0  0  0  0
   -1.3098   -0.2890   -0.7459 O   0  0  0  0  0  0  0  0  0  0  0  0
   -3.8031   -0.5377   -0.9283 C   0  0  0  0  0  0  0  0  0  0  0  0
   -4.9983   -0.0847   -0.3982 C   0  0  0  0  0  0  0  0  0  0  0  0
   -5.0069    0.8585    0.6256 C   0  0  0  0  0  0  0  0  0  0  0  0
   -3.8323    1.3499    1.1219 C   0  0  0  0  0  0  0  0  0  0  0  0
   -6.1745   -0.5647   -0.8818 O   0  0  0  0  0  0  0  0  0  0  0  0
    0.9855   -1.9693    0.0702 O   0  0  0  0  0  0  0  0  0  0  0  0
    0.7189   -2.4682    1.3825 C   0  0  0  0  0  0  0  0  0  0  0  0
    3.7326   -1.9979   -0.0639 O   0  0  0  0  0  0  0  0  0  0  0  0
    5.4483    2.1511   -1.2329 H   0  0  0  0  0  0  0  0  0  0  0  0
    5.5358    2.2336    0.5430 H   0  0  0  0  0  0  0  0  0  0  0  0
    6.8579    1.4787   -0.3791 H   0  0  0  0  0  0  0  0  0  0  0  0
    1.1797    2.5584   -0.1494 H   0  0  0  0  0  0  0  0  0  0  0  0
    3.6333    2.5186   -0.2628 H   0  0  0  0  0  0  0  0  0  0  0  0
   -0.8322    1.8954    1.6205 H   0  0  0  0  0  0  0  0  0  0  0  0
   -3.8058   -1.2690   -1.7229 H   0  0  0  0  0  0  0  0  0  0  0  0
   -5.9470    1.2039    1.0297 H   0  0  0  0  0  0  0  0  0  0  0  0
   -3.8438    2.0819    1.9159 H   0  0  0  0  0  0  0  0  0  0  0  0
   -6.4957   -1.3532   -0.4234 H   0  0  0  0  0  0  0  0  0  0  0  0
    1.6606   -2.6443    1.9025 H   0  0  0  0  0  0  0  0  0  0  0  0
    0.1293   -1.7375    1.9361 H   0  0  0  0  0  0  0  0  0  0  0  0
    0.1636   -3.4033    1.3098 H   0  0  0  0  0  0  0  0  0  0  0  0
    3.9704   -2.2992    0.8237 H   0  0  0  0  0  0  0  0  0  0  0  0
  1  2  1  0  0  0  0
  2  3  1  0  0  0  0
  3  4  2  0  0  0  0
  4  5  1  0  0  0  0
  5  6  2  0  0  0  0
  6  7  1  0  0  0  0
  7  8  2  0  0  0  0
  3  8  1  0  0  0  0
  6  9  1  0  0  0  0
  9 10  2  0  0  0  0
 10 11  1  0  0  0  0
 11 12  2  0  0  0  0
 12 13  1  0  0  0  0
  9 13  1  0  0  0  0
 12 14  1  0  0  0  0
 14 15  2  0  0  0  0
 15 16  1  0  0  0  0
 16 17  2  0  0  0  0
 11 17  1  0  0  0  0
 15 18  1  0  0  0  0
  5 19  1  0  0  0  0
 19 20  1  0  0  0  0
  4 21  1  0  0  0  0
  1 22  1  0  0  0  0
  1 23  1  0  0  0  0
  1 24  1  0  0  0  0
  7 25  1  0  0  0  0
  8 26  1  0  0  0  0
 10 27  1  0  0  0  0
 14 28  1  0  0  0  0
 16 29  1  0  0  0  0
 17 30  1  0  0  0  0
 18 31  1  0  0  0  0
 20 32  1  0  0  0  0
 20 33  1  0  0  0  0
 20 34  1  0  0  0  0
 21 35  1  0  0  0  0
M  END
$$$$
