C15H10O4
APtclcactv06211806533D 0   0.00000     0.00000
 
 29 32  0  0  0  0  0  0  0  0999 V2000
    0.3391    2.1527   -0.2710 C   0  0  0  0  0  0  0  0  0  0  0  0
   -0.4758    0.8967   -0.1327 C   0  0  0  0  0  0  0  0  0  0  0  0
    0.1192   -0.3361   -0.0143 C   0  0  0  0  0  0  0  0  0  0  0  0
    1.5937   -0.4145   -0.0147 C   0  0  0  0  0  0  0  0  0  0  0  0
    2.2900    0.7967    0.1589 C   0  0  0  0  0  0  0  0  0  0  0  0
    1.6147    1.9572    0.3456 O   0  0  0  0  0  0  0  0  0  0  0  0
    3.6739    0.7806    0.1476 C   0  0  0  0  0  0  0  0  0  0  0  0
    4.3535   -0.4169   -0.0211 C   0  0  0  0  0  0  0  0  0  0  0  0
    3.6591   -1.6098   -0.1808 C   0  0  0  0  0  0  0  0  0  0  0  0
    2.2778   -1.6097   -0.1781 C   0  0  0  0  0  0  0  0  0  0  0  0
    5.7121   -0.4233   -0.0308 O   0  0  0  0  0  0  0  0  0  0  0  0
   -0.8171   -1.2856    0.0854 O   0  0  0  0  0  0  0  0  0  0  0  0
   -2.0432   -0.7442    0.0518 C   0  0  0  0  0  0  0  0  0  0  0  0
   -1.8954    0.6623   -0.0899 C   0  0  0  0  0  0  0  0  0  0  0  0
   -3.0086    1.5065   -0.1569 C   0  0  0  0  0  0  0  0  0  0  0  0
   -4.2455    0.9165   -0.0782 C   0  0  0  0  0  0  0  0  0  0  0  0
   -4.3971   -0.4572    0.0619 C   0  0  0  0  0  0  0  0  0  0  0  0
   -3.3072   -1.3172    0.1294 C   0  0  0  0  0  0  0  0  0  0  0  0
   -5.6510   -0.9769    0.1346 O   0  0  0  0  0  0  0  0  0  0  0  0
    0.4769    2.3828   -1.3275 H   0  0  0  0  0  0  0  0  0  0  0  0
   -0.1787    2.9781    0.2176 H   0  0  0  0  0  0  0  0  0  0  0  0
    4.2252    1.7012    0.2698 H   0  0  0  0  0  0  0  0  0  0  0  0
    4.1990   -2.5367   -0.3065 H   0  0  0  0  0  0  0  0  0  0  0  0
    1.7341   -2.5345   -0.3024 H   0  0  0  0  0  0  0  0  0  0  0  0
    6.1110   -0.5453    0.8416 H   0  0  0  0  0  0  0  0  0  0  0  0
   -2.8997    2.5755   -0.2654 H   0  0  0  0  0  0  0  0  0  0  0  0
   -5.1269    1.5387   -0.1262 H   0  0  0  0  0  0  0  0  0  0  0  0
   -3.4367   -2.3839    0.2382 H   0  0  0  0  0  0  0  0  0  0  0  0
   -6.0283   -1.2154   -0.7232 H   0  0  0  0  0  0  0  0  0  0  0  0
  1  2  1  0  0  0  0
  2  3  2  0  0  0  0
  3  4  1  0  0  0  0
  4  5  2  0  0  0  0
  5  6  1  0  0  0  0
  1  6  1  0  0  0  0
  5  7  1  0  0  0  0
  7  8  2  0  0  0  0
  8  9  1  0  0  0  0
  9 10  2  0  0  0  0
  4 10  1  0  0  0  0
  8 11  1  0  0  0  0
  3 12  1  0  0  0  0
 12 13  1  0  0  0  0
 13 14  2  0  0  0  0
  2 14  1  0  0  0  0
 14 15  1  0  0  0  0
 15 16  2  0  0  0  0
 16 17  1  0  0  0  0
 17 18  2  0  0  0  0
 13 18  1  0  0  0  0
 17 19  1  0  0  0  0
  1 20  1  0  0  0  0
  1 21  1  0  0  0  0
  7 22  1  0  0  0  0
  9 23  1  0  0  0  0
 10 24  1  0  0  0  0
 11 25  1  0  0  0  0
 15 26  1  0  0  0  0
 16 27  1  0  0  0  0
 18 28  1  0  0  0  0
 19 29  1  0  0  0  0
M  END
$$$$
