C17H16O5
APtclcactv06291802513D 0   0.00000     0.00000
 
 38 40  0  0  0  0  0  0  0  0999 V2000
    6.5695    1.2705   -0.6980 C   0  0  0  0  0  0  0  0  0  0  0  0
    5.8832    0.1085   -0.2282 O   0  0  0  0  0  0  0  0  0  0  0  0
    4.5275    0.1753   -0.1673 C   0  0  0  0  0  0  0  0  0  0  0  0
    3.8012   -0.9186    0.2800 C   0  0  0  0  0  0  0  0  0  0  0  0
    2.4201   -0.8542    0.3432 C   0  0  0  0  0  0  0  0  0  0  0  0
    1.7594    0.3185   -0.0452 C   0  0  0  0  0  0  0  0  0  0  0  0
    2.4988    1.4143   -0.4936 C   0  0  0  0  0  0  0  0  0  0  0  0
    3.8741    1.3409   -0.5480 C   0  0  0  0  0  0  0  0  0  0  0  0
    0.2859    0.3949    0.0189 C   0  0  0  0  0  0  0  0  0  0  0  0
   -0.4175    1.3952    0.6024 C   0  0  0  0  0  0  0  0  0  0  0  0
   -1.8316    1.0541    0.4262 C   0  0  0  0  0  0  0  0  0  0  0  0
   -3.0314    1.6668    0.7937 C   0  0  0  0  0  0  0  0  0  0  0  0
   -4.2313    1.0681    0.4665 C   0  0  0  0  0  0  0  0  0  0  0  0
   -4.2436   -0.1427   -0.2279 C   0  0  0  0  0  0  0  0  0  0  0  0
   -3.0595   -0.7549   -0.5944 C   0  0  0  0  0  0  0  0  0  0  0  0
   -1.8441   -0.1654   -0.2731 C   0  0  0  0  0  0  0  0  0  0  0  0
   -0.5606   -0.5171   -0.4993 O   0  0  0  0  0  0  0  0  0  0  0  0
   -5.4306   -0.7254   -0.5462 O   0  0  0  0  0  0  0  0  0  0  0  0
   -5.3754   -1.9637   -1.2572 C   0  0  0  0  0  0  0  0  0  0  0  0
   -5.4041    1.6592    0.8217 O   0  0  0  0  0  0  0  0  0  0  0  0
    1.7074   -1.9248    0.7802 O   0  0  0  0  0  0  0  0  0  0  0  0
    2.4484   -3.0865    1.1591 C   0  0  0  0  0  0  0  0  0  0  0  0
    7.6433    1.0835   -0.6969 H   0  0  0  0  0  0  0  0  0  0  0  0
    6.2419    1.5010   -1.7117 H   0  0  0  0  0  0  0  0  0  0  0  0
    6.3468    2.1134   -0.0437 H   0  0  0  0  0  0  0  0  0  0  0  0
    4.3136   -1.8212    0.5787 H   0  0  0  0  0  0  0  0  0  0  0  0
    1.9938    2.3204   -0.7941 H   0  0  0  0  0  0  0  0  0  0  0  0
    4.4452    2.1893   -0.8951 H   0  0  0  0  0  0  0  0  0  0  0  0
   -0.0168    2.2673    1.0977 H   0  0  0  0  0  0  0  0  0  0  0  0
   -3.0206    2.6034    1.3312 H   0  0  0  0  0  0  0  0  0  0  0  0
   -3.0798   -1.6919   -1.1311 H   0  0  0  0  0  0  0  0  0  0  0  0
   -6.3882   -2.3189   -1.4473 H   0  0  0  0  0  0  0  0  0  0  0  0
   -4.8583   -1.8156   -2.2052 H   0  0  0  0  0  0  0  0  0  0  0  0
   -4.8376   -2.7011   -0.6613 H   0  0  0  0  0  0  0  0  0  0  0  0
   -5.7536    2.2698    0.1583 H   0  0  0  0  0  0  0  0  0  0  0  0
    1.7602   -3.8653    1.4876 H   0  0  0  0  0  0  0  0  0  0  0  0
    3.0227   -3.4457    0.3051 H   0  0  0  0  0  0  0  0  0  0  0  0
    3.1276   -2.8346    1.9736 H   0  0  0  0  0  0  0  0  0  0  0  0
  1  2  1  0  0  0  0
  2  3  1  0  0  0  0
  3  4  2  0  0  0  0
  4  5  1  0  0  0  0
  5  6  2  0  0  0  0
  6  7  1  0  0  0  0
  7  8  2  0  0  0  0
  3  8  1  0  0  0  0
  6  9  1  0  0  0  0
  9 10  2  0  0  0  0
 10 11  1  0  0  0  0
 11 12  2  0  0  0  0
 12 13  1  0  0  0  0
 13 14  2  0  0  0  0
 14 15  1  0  0  0  0
 15 16  2  0  0  0  0
 11 16  1  0  0  0  0
 16 17  1  0  0  0  0
  9 17  1  0  0  0  0
 14 18  1  0  0  0  0
 18 19  1  0  0  0  0
 13 20  1  0  0  0  0
  5 21  1  0  0  0  0
 21 22  1  0  0  0  0
  1 23  1  0  0  0  0
  1 24  1  0  0  0  0
  1 25  1  0  0  0  0
  4 26  1  0  0  0  0
  7 27  1  0  0  0  0
  8 28  1  0  0  0  0
 10 29  1  0  0  0  0
 12 30  1  0  0  0  0
 15 31  1  0  0  0  0
 19 32  1  0  0  0  0
 19 33  1  0  0  0  0
 19 34  1  0  0  0  0
 20 35  1  0  0  0  0
 22 36  1  0  0  0  0
 22 37  1  0  0  0  0
 22 38  1  0  0  0  0
M  END
$$$$
