C17H14O5
APtclcactv06211806543D 0   0.00000     0.00000
 
 36 38  0  0  0  0  0  0  0  0999 V2000
    6.9349    0.4332    0.1693 C   0  0  0  0  0  0  0  0  0  0  0  0
    5.9784   -0.4843   -0.3650 O   0  0  0  0  0  0  0  0  0  0  0  0
    4.6689   -0.2175   -0.1272 C   0  0  0  0  0  0  0  0  0  0  0  0
    3.6958   -1.0700   -0.6193 C   0  0  0  0  0  0  0  0  0  0  0  0
    2.3541   -0.8008   -0.3780 C   0  0  0  0  0  0  0  0  0  0  0  0
    2.0125    0.3459    0.3605 C   0  0  0  0  0  0  0  0  0  0  0  0
    3.0039    1.1937    0.8537 C   0  0  0  0  0  0  0  0  0  0  0  0
    4.3183    0.9088    0.6148 C   0  0  0  0  0  0  0  0  0  0  0  0
    0.5810    0.6230    0.5869 C   0  0  0  0  0  0  0  0  0  0  0  0
    0.2018    1.4565    1.3916 O   0  0  0  0  0  0  0  0  0  0  0  0
   -0.3626   -0.1720   -0.2224 C   0  0  0  0  0  0  0  0  0  0  0  0
    0.1207   -1.2504   -0.8924 C   0  0  0  0  0  0  0  0  0  0  0  0
    1.3976   -1.6292   -0.8376 O   0  0  0  0  0  0  0  0  0  0  0  0
   -1.7975    0.1955   -0.3016 C   0  0  0  0  0  0  0  0  0  0  0  0
   -2.7669   -0.6606    0.2178 C   0  0  0  0  0  0  0  0  0  0  0  0
   -4.1042   -0.3142    0.1419 C   0  0  0  0  0  0  0  0  0  0  0  0
   -4.4789    0.8877   -0.4526 C   0  0  0  0  0  0  0  0  0  0  0  0
   -3.5139    1.7384   -0.9695 C   0  0  0  0  0  0  0  0  0  0  0  0
   -2.1780    1.4000   -0.8905 C   0  0  0  0  0  0  0  0  0  0  0  0
   -5.7937    1.2276   -0.5269 O   0  0  0  0  0  0  0  0  0  0  0  0
   -5.0525   -1.1477    0.6475 O   0  0  0  0  0  0  0  0  0  0  0  0
   -4.5963   -2.3641    1.2427 C   0  0  0  0  0  0  0  0  0  0  0  0
    7.9402    0.1036   -0.0928 H   0  0  0  0  0  0  0  0  0  0  0  0
    6.7580    1.4253   -0.2460 H   0  0  0  0  0  0  0  0  0  0  0  0
    6.8359    0.4705    1.2541 H   0  0  0  0  0  0  0  0  0  0  0  0
    3.9787   -1.9423   -1.1898 H   0  0  0  0  0  0  0  0  0  0  0  0
    2.7339    2.0692    1.4255 H   0  0  0  0  0  0  0  0  0  0  0  0
    5.0884    1.5632    0.9957 H   0  0  0  0  0  0  0  0  0  0  0  0
   -0.5618   -1.8281   -1.4981 H   0  0  0  0  0  0  0  0  0  0  0  0
   -2.4747   -1.5927    0.6784 H   0  0  0  0  0  0  0  0  0  0  0  0
   -3.8076    2.6699   -1.4304 H   0  0  0  0  0  0  0  0  0  0  0  0
   -1.4281    2.0645   -1.2935 H   0  0  0  0  0  0  0  0  0  0  0  0
   -6.1132    1.7317    0.2339 H   0  0  0  0  0  0  0  0  0  0  0  0
   -4.0558   -2.9515    0.5005 H   0  0  0  0  0  0  0  0  0  0  0  0
   -3.9336   -2.1342    2.0770 H   0  0  0  0  0  0  0  0  0  0  0  0
   -5.4517   -2.9346    1.6047 H   0  0  0  0  0  0  0  0  0  0  0  0
  1  2  1  0  0  0  0
  2  3  1  0  0  0  0
  3  4  2  0  0  0  0
  4  5  1  0  0  0  0
  5  6  2  0  0  0  0
  6  7  1  0  0  0  0
  7  8  2  0  0  0  0
  3  8  1  0  0  0  0
  6  9  1  0  0  0  0
  9 10  2  0  0  0  0
  9 11  1  0  0  0  0
 11 12  2  0  0  0  0
 12 13  1  0  0  0  0
  5 13  1  0  0  0  0
 11 14  1  0  0  0  0
 14 15  2  0  0  0  0
 15 16  1  0  0  0  0
 16 17  2  0  0  0  0
 17 18  1  0  0  0  0
 18 19  2  0  0  0  0
 14 19  1  0  0  0  0
 17 20  1  0  0  0  0
 16 21  1  0  0  0  0
 21 22  1  0  0  0  0
  1 23  1  0  0  0  0
  1 24  1  0  0  0  0
  1 25  1  0  0  0  0
  4 26  1  0  0  0  0
  7 27  1  0  0  0  0
  8 28  1  0  0  0  0
 12 29  1  0  0  0  0
 15 30  1  0  0  0  0
 18 31  1  0  0  0  0
 19 32  1  0  0  0  0
 20 33  1  0  0  0  0
 22 34  1  0  0  0  0
 22 35  1  0  0  0  0
 22 36  1  0  0  0  0
M  END
$$$$
