C12H9NO2
APtclcactv06211806543D 0   0.00000     0.00000
 
 24 26  0  0  0  0  0  0  0  0999 V2000
   -0.2474    2.7826   -0.3488 C   0  0  0  0  0  0  0  0  0  0  0  0
   -0.2275    1.3362   -0.1170 N   0  0  0  0  0  0  0  0  0  0  0  0
    0.9794    0.6618   -0.0208 C   0  0  0  0  0  0  0  0  0  0  0  0
    2.1600    1.3972    0.0872 C   0  0  0  0  0  0  0  0  0  0  0  0
    3.3711    0.7494    0.1811 C   0  0  0  0  0  0  0  0  0  0  0  0
    3.4367   -0.6368    0.1684 C   0  0  0  0  0  0  0  0  0  0  0  0
    2.2851   -1.3840    0.0642 C   0  0  0  0  0  0  0  0  0  0  0  0
    1.0495   -0.7409   -0.0282 C   0  0  0  0  0  0  0  0  0  0  0  0
   -0.1969   -1.5384   -0.1318 C   0  0  0  0  0  0  0  0  0  0  0  0
   -0.1955   -2.7443   -0.3130 O   0  0  0  0  0  0  0  0  0  0  0  0
   -1.4274   -0.7598    0.0017 C   0  0  0  0  0  0  0  0  0  0  0  0
   -1.4008    0.6427    0.0114 C   0  0  0  0  0  0  0  0  0  0  0  0
   -2.6563    1.0599    0.1489 O   0  0  0  0  0  0  0  0  0  0  0  0
   -3.5072    0.0150    0.2269 C   0  0  0  0  0  0  0  0  0  0  0  0
   -2.8215   -1.1402    0.1473 C   0  0  0  0  0  0  0  0  0  0  0  0
    0.3301    3.0152   -1.2435 H   0  0  0  0  0  0  0  0  0  0  0  0
   -1.2767    3.1147   -0.4842 H   0  0  0  0  0  0  0  0  0  0  0  0
    0.1895    3.2941    0.5089 H   0  0  0  0  0  0  0  0  0  0  0  0
    2.1238    2.4766    0.0969 H   0  0  0  0  0  0  0  0  0  0  0  0
    4.2802    1.3263    0.2651 H   0  0  0  0  0  0  0  0  0  0  0  0
    4.3943   -1.1309    0.2401 H   0  0  0  0  0  0  0  0  0  0  0  0
    2.3374   -2.4627    0.0539 H   0  0  0  0  0  0  0  0  0  0  0  0
   -4.5784    0.0941    0.3392 H   0  0  0  0  0  0  0  0  0  0  0  0
   -3.2245   -2.1417    0.1804 H   0  0  0  0  0  0  0  0  0  0  0  0
  1  2  1  0  0  0  0
  2  3  1  0  0  0  0
  3  4  2  0  0  0  0
  4  5  1  0  0  0  0
  5  6  2  0  0  0  0
  6  7  1  0  0  0  0
  7  8  2  0  0  0  0
  3  8  1  0  0  0  0
  8  9  1  0  0  0  0
  9 10  2  0  0  0  0
  9 11  1  0  0  0  0
 11 12  2  0  0  0  0
  2 12  1  0  0  0  0
 12 13  1  0  0  0  0
 13 14  1  0  0  0  0
 14 15  2  0  0  0  0
 11 15  1  0  0  0  0
  1 16  1  0  0  0  0
  1 17  1  0  0  0  0
  1 18  1  0  0  0  0
  4 19  1  0  0  0  0
  5 20  1  0  0  0  0
  6 21  1  0  0  0  0
  7 22  1  0  0  0  0
 14 23  1  0  0  0  0
 15 24  1  0  0  0  0
M  END
$$$$
