C18H17NO3
APtclcactv06211806543D 0   0.00000     0.00000
 
 39 41  0  0  0  0  0  0  0  0999 V2000
   -0.5915    2.4475   -0.0154 C   0  0  0  0  0  0  0  0  0  0  0  0
   -0.1623    1.0470   -0.0424 N   0  0  0  0  0  0  0  0  0  0  0  0
    1.1851    0.7559   -0.0382 C   0  0  0  0  0  0  0  0  0  0  0  0
    1.6101   -0.5837   -0.0640 C   0  0  0  0  0  0  0  0  0  0  0  0
    2.9733   -0.8849   -0.0585 C   0  0  0  0  0  0  0  0  0  0  0  0
    3.8979    0.1402   -0.0275 C   0  0  0  0  0  0  0  0  0  0  0  0
    3.4747    1.4670   -0.0020 C   0  0  0  0  0  0  0  0  0  0  0  0
    2.1332    1.7754   -0.0077 C   0  0  0  0  0  0  0  0  0  0  0  0
    5.2269   -0.1468   -0.0215 O   0  0  0  0  0  0  0  0  0  0  0  0
    6.1296    0.9606    0.0110 C   0  0  0  0  0  0  0  0  0  0  0  0
    0.5954   -1.6505   -0.0962 C   0  0  0  0  0  0  0  0  0  0  0  0
    0.9213   -2.8271   -0.1189 O   0  0  0  0  0  0  0  0  0  0  0  0
   -0.7665   -1.2731   -0.0996 C   0  0  0  0  0  0  0  0  0  0  0  0
   -1.1074    0.0598   -0.0657 C   0  0  0  0  0  0  0  0  0  0  0  0
   -2.5360    0.4348   -0.0694 C   0  0  0  0  0  0  0  0  0  0  0  0
   -3.0302    1.3241    0.8872 C   0  0  0  0  0  0  0  0  0  0  0  0
   -4.3655    1.6700    0.8780 C   0  0  0  0  0  0  0  0  0  0  0  0
   -5.2148    1.1376   -0.0759 C   0  0  0  0  0  0  0  0  0  0  0  0
   -4.7318    0.2558   -1.0267 C   0  0  0  0  0  0  0  0  0  0  0  0
   -3.3975   -0.0939   -1.0329 C   0  0  0  0  0  0  0  0  0  0  0  0
   -1.7382   -2.2253   -0.1289 O   0  0  0  0  0  0  0  0  0  0  0  0
   -1.8494   -3.0742    1.0152 C   0  0  0  0  0  0  0  0  0  0  0  0
    0.1702    3.0701   -0.4847 H   0  0  0  0  0  0  0  0  0  0  0  0
   -1.5305    2.5503   -0.5592 H   0  0  0  0  0  0  0  0  0  0  0  0
   -0.7334    2.7641    1.0179 H   0  0  0  0  0  0  0  0  0  0  0  0
    3.3026   -1.9133   -0.0779 H   0  0  0  0  0  0  0  0  0  0  0  0
    4.2060    2.2613    0.0221 H   0  0  0  0  0  0  0  0  0  0  0  0
    1.8161    2.8076    0.0124 H   0  0  0  0  0  0  0  0  0  0  0  0
    5.9690    1.5862   -0.8670 H   0  0  0  0  0  0  0  0  0  0  0  0
    5.9525    1.5473    0.9124 H   0  0  0  0  0  0  0  0  0  0  0  0
    7.1557    0.5929    0.0125 H   0  0  0  0  0  0  0  0  0  0  0  0
   -2.3685    1.7398    1.6327 H   0  0  0  0  0  0  0  0  0  0  0  0
   -4.7490    2.3577    1.6172 H   0  0  0  0  0  0  0  0  0  0  0  0
   -6.2595    1.4112   -0.0781 H   0  0  0  0  0  0  0  0  0  0  0  0
   -5.4003   -0.1563   -1.7681 H   0  0  0  0  0  0  0  0  0  0  0  0
   -3.0218   -0.7819   -1.7757 H   0  0  0  0  0  0  0  0  0  0  0  0
   -2.7175   -3.7237    0.9028 H   0  0  0  0  0  0  0  0  0  0  0  0
   -0.9495   -3.6827    1.1049 H   0  0  0  0  0  0  0  0  0  0  0  0
   -1.9659   -2.4637    1.9106 H   0  0  0  0  0  0  0  0  0  0  0  0
  1  2  1  0  0  0  0
  2  3  1  0  0  0  0
  3  4  2  0  0  0  0
  4  5  1  0  0  0  0
  5  6  2  0  0  0  0
  6  7  1  0  0  0  0
  7  8  2  0  0  0  0
  3  8  1  0  0  0  0
  6  9  1  0  0  0  0
  9 10  1  0  0  0  0
  4 11  1  0  0  0  0
 11 12  2  0  0  0  0
 11 13  1  0  0  0  0
 13 14  2  0  0  0  0
  2 14  1  0  0  0  0
 14 15  1  0  0  0  0
 15 16  2  0  0  0  0
 16 17  1  0  0  0  0
 17 18  2  0  0  0  0
 18 19  1  0  0  0  0
 19 20  2  0  0  0  0
 15 20  1  0  0  0  0
 13 21  1  0  0  0  0
 21 22  1  0  0  0  0
  1 23  1  0  0  0  0
  1 24  1  0  0  0  0
  1 25  1  0  0  0  0
  5 26  1  0  0  0  0
  7 27  1  0  0  0  0
  8 28  1  0  0  0  0
 10 29  1  0  0  0  0
 10 30  1  0  0  0  0
 10 31  1  0  0  0  0
 16 32  1  0  0  0  0
 17 33  1  0  0  0  0
 18 34  1  0  0  0  0
 19 35  1  0  0  0  0
 20 36  1  0  0  0  0
 22 37  1  0  0  0  0
 22 38  1  0  0  0  0
 22 39  1  0  0  0  0
M  END
$$$$
