C13H14N2O2S2
APtclcactv06281817323D 0   0.00000     0.00000
 
 33 34  0  0  0  0  0  0  0  0999 V2000
    3.7053   -2.8002    1.0010 C   0  0  0  0  0  0  0  0  0  0  0  0
    3.3734   -2.2446   -0.2730 O   0  0  0  0  0  0  0  0  0  0  0  0
    2.5512   -1.0939   -0.2030 N   0  0  0  0  0  0  0  0  0  0  0  0
    3.0258    0.2084   -0.1178 C   0  0  0  0  0  0  0  0  0  0  0  0
    4.3083    0.7395   -0.0788 C   0  0  0  0  0  0  0  0  0  0  0  0
    4.4878    2.1057    0.0089 C   0  0  0  0  0  0  0  0  0  0  0  0
    3.3977    2.9586    0.0588 C   0  0  0  0  0  0  0  0  0  0  0  0
    2.1155    2.4486    0.0216 C   0  0  0  0  0  0  0  0  0  0  0  0
    1.9233    1.0743   -0.0671 C   0  0  0  0  0  0  0  0  0  0  0  0
    0.7237    0.2124   -0.1265 C   0  0  0  0  0  0  0  0  0  0  0  0
   -0.6043    0.6211   -0.1050 C   0  0  0  0  0  0  0  0  0  0  0  0
   -1.5791   -0.2817   -0.1663 N   0  0  0  0  0  0  0  0  0  0  0  0
   -2.8461    0.0992   -0.0445 C   0  0  0  0  0  0  0  0  0  0  0  0
   -4.1276   -1.1087    0.0136 S   0  0  0  0  0  0  0  0  0  0  0  0
   -3.1418   -2.6198   -0.1309 C   0  0  0  0  0  0  0  0  0  0  0  0
   -3.2449    1.8124    0.0591 S   0  0  0  0  0  0  0  0  0  0  0  0
   -5.0249    1.7026    0.3684 C   0  0  0  0  0  0  0  0  0  0  0  0
    1.2080   -1.1159   -0.2159 C   0  0  0  0  0  0  0  0  0  0  0  0
    0.5169   -2.1183   -0.2848 O   0  0  0  0  0  0  0  0  0  0  0  0
    4.2409   -2.0578    1.5927 H   0  0  0  0  0  0  0  0  0  0  0  0
    2.7917   -3.0888    1.5207 H   0  0  0  0  0  0  0  0  0  0  0  0
    4.3366   -3.6778    0.8613 H   0  0  0  0  0  0  0  0  0  0  0  0
    5.1655    0.0837   -0.1167 H   0  0  0  0  0  0  0  0  0  0  0  0
    5.4876    2.5130    0.0392 H   0  0  0  0  0  0  0  0  0  0  0  0
    3.5512    4.0254    0.1273 H   0  0  0  0  0  0  0  0  0  0  0  0
    1.2656    3.1139    0.0609 H   0  0  0  0  0  0  0  0  0  0  0  0
   -0.8450    1.6719   -0.0385 H   0  0  0  0  0  0  0  0  0  0  0  0
   -2.4409   -2.6774    0.7018 H   0  0  0  0  0  0  0  0  0  0  0  0
   -3.8016   -3.4873   -0.1111 H   0  0  0  0  0  0  0  0  0  0  0  0
   -2.5894   -2.6049   -1.0705 H   0  0  0  0  0  0  0  0  0  0  0  0
   -5.4248    2.7007    0.5472 H   0  0  0  0  0  0  0  0  0  0  0  0
   -5.5180    1.2635   -0.4989 H   0  0  0  0  0  0  0  0  0  0  0  0
   -5.2038    1.0775    1.2432 H   0  0  0  0  0  0  0  0  0  0  0  0
  1  2  1  0  0  0  0
  2  3  1  0  0  0  0
  3  4  1  0  0  0  0
  4  5  2  0  0  0  0
  5  6  1  0  0  0  0
  6  7  2  0  0  0  0
  7  8  1  0  0  0  0
  8  9  2  0  0  0  0
  4  9  1  0  0  0  0
  9 10  1  0  0  0  0
 10 11  2  0  0  0  0
 11 12  1  0  0  0  0
 12 13  2  0  0  0  0
 13 14  1  0  0  0  0
 14 15  1  0  0  0  0
 13 16  1  0  0  0  0
 16 17  1  0  0  0  0
 10 18  1  0  0  0  0
  3 18  1  0  0  0  0
 18 19  2  0  0  0  0
  1 20  1  0  0  0  0
  1 21  1  0  0  0  0
  1 22  1  0  0  0  0
  5 23  1  0  0  0  0
  6 24  1  0  0  0  0
  7 25  1  0  0  0  0
  8 26  1  0  0  0  0
 11 27  1  0  0  0  0
 15 28  1  0  0  0  0
 15 29  1  0  0  0  0
 15 30  1  0  0  0  0
 17 31  1  0  0  0  0
 17 32  1  0  0  0  0
 17 33  1  0  0  0  0
M  END
$$$$
