C19H24O6
APtclcactv06211806543D 0   0.00000     0.00000
 
 49 53  0  0  0  0  0  0  0  0999 V2000
   -2.8517    1.8612   -0.9175 C   0  0  0  0  0  0  0  0  0  0  0  0
   -2.2199    0.5697   -0.3811 C   0  0  0  0  0  0  0  0  0  0  0  0
   -0.7300    0.5638   -0.5306 C   0  0  0  0  0  0  0  0  0  0  0  0
    0.3338    1.1303    0.3681 C   0  0  0  0  0  0  0  0  0  0  0  0
    1.5265    0.1992    0.1084 C   0  0  0  0  0  0  0  0  0  0  0  0
    2.1645   -0.2509    1.4382 C   0  0  0  0  0  0  0  0  0  0  0  0
    3.4011   -1.0102    0.8761 C   0  0  0  0  0  0  0  0  0  0  0  0
    2.8745   -2.3826    0.4633 C   0  0  0  0  0  0  0  0  0  0  0  0
    1.7282   -2.2983   -0.5170 C   0  0  0  0  0  0  0  0  0  0  0  0
    0.9770   -1.0296   -0.6508 C   0  0  0  0  0  0  0  0  0  0  0  0
   -0.4984   -0.9950   -0.3663 C   0  0  0  0  0  0  0  0  0  0  0  0
   -0.7784   -1.3590    1.0918 C   0  0  0  0  0  0  0  0  0  0  0  0
   -2.2474   -1.1546    1.4440 C   0  0  0  0  0  0  0  0  0  0  0  0
   -2.6984    0.2459    1.0310 C   0  0  0  0  0  0  0  0  0  0  0  0
   -2.2082    1.2158    1.9606 O   0  0  0  0  0  0  0  0  0  0  0  0
   -3.0554   -2.1544    0.8275 O   0  0  0  0  0  0  0  0  0  0  0  0
   -1.5053   -1.5109   -1.2311 O   0  0  0  0  0  0  0  0  0  0  0  0
   -2.5568   -0.6427   -1.2773 C   0  0  0  0  0  0  0  0  0  0  0  0
   -3.5750   -0.7875   -1.9082 O   0  0  0  0  0  0  0  0  0  0  0  0
    3.8426   -0.2147   -0.3374 C   0  0  0  0  0  0  0  0  0  0  0  0
    4.9787   -0.3299   -0.9782 C   0  0  0  0  0  0  0  0  0  0  0  0
    2.7094    0.7565   -0.6745 C   0  0  0  0  0  0  0  0  0  0  0  0
    0.6365    2.5566   -0.0060 C   0  0  0  0  0  0  0  0  0  0  0  0
    0.5533    2.9096   -1.1586 O   0  0  0  0  0  0  0  0  0  0  0  0
    0.9989    3.4363    0.9408 O   0  0  0  0  0  0  0  0  0  0  0  0
   -2.6175    1.9676   -1.9767 H   0  0  0  0  0  0  0  0  0  0  0  0
   -3.9330    1.8181   -0.7870 H   0  0  0  0  0  0  0  0  0  0  0  0
   -2.4533    2.7152   -0.3697 H   0  0  0  0  0  0  0  0  0  0  0  0
   -0.4838    0.8350   -1.5653 H   0  0  0  0  0  0  0  0  0  0  0  0
    0.0331    1.0748    1.4155 H   0  0  0  0  0  0  0  0  0  0  0  0
    2.4691    0.6067    2.0413 H   0  0  0  0  0  0  0  0  0  0  0  0
    1.5182   -0.9188    2.0028 H   0  0  0  0  0  0  0  0  0  0  0  0
    4.1944   -1.0915    1.6148 H   0  0  0  0  0  0  0  0  0  0  0  0
    3.6851   -2.9495    0.0101 H   0  0  0  0  0  0  0  0  0  0  0  0
    2.5345   -2.9090    1.3551 H   0  0  0  0  0  0  0  0  0  0  0  0
    2.1228   -2.5474   -1.5041 H   0  0  0  0  0  0  0  0  0  0  0  0
    1.0123   -3.0776   -0.2553 H   0  0  0  0  0  0  0  0  0  0  0  0
    1.0615   -0.7630   -1.7190 H   0  0  0  0  0  0  0  0  0  0  0  0
   -0.5135   -2.4053    1.2595 H   0  0  0  0  0  0  0  0  0  0  0  0
   -0.1741   -0.7364    1.7509 H   0  0  0  0  0  0  0  0  0  0  0  0
   -2.3563   -1.2485    2.5358 H   0  0  0  0  0  0  0  0  0  0  0  0
   -3.7987    0.2793    1.0495 H   0  0  0  0  0  0  0  0  0  0  0  0
   -2.5137    1.0805    2.8680 H   0  0  0  0  0  0  0  0  0  0  0  0
   -3.9995   -2.0705    1.0193 H   0  0  0  0  0  0  0  0  0  0  0  0
    5.7129   -1.0508   -0.6503 H   0  0  0  0  0  0  0  0  0  0  0  0
    5.1815    0.2960   -1.8347 H   0  0  0  0  0  0  0  0  0  0  0  0
    2.5020    0.7452   -1.7415 H   0  0  0  0  0  0  0  0  0  0  0  0
    2.9867    1.7510   -0.3353 H   0  0  0  0  0  0  0  0  0  0  0  0
    1.1832    4.3407    0.6524 H   0  0  0  0  0  0  0  0  0  0  0  0
  1  2  1  0  0  0  0
  2  3  1  0  0  0  0
  3  4  1  0  0  0  0
  4  5  1  0  0  0  0
  5  6  1  0  0  0  0
  6  7  1  0  0  0  0
  7  8  1  0  0  0  0
  8  9  1  0  0  0  0
  9 10  1  0  0  0  0
  5 10  1  0  0  0  0
 10 11  1  0  0  0  0
  3 11  1  0  0  0  0
 11 12  1  0  0  0  0
 12 13  1  0  0  0  0
 13 14  1  0  0  0  0
  2 14  1  0  0  0  0
 14 15  1  0  0  0  0
 13 16  1  0  0  0  0
 11 17  1  0  0  0  0
 17 18  1  0  0  0  0
  2 18  1  0  0  0  0
 18 19  2  0  0  0  0
  7 20  1  0  0  0  0
 20 21  2  0  0  0  0
 20 22  1  0  0  0  0
  5 22  1  0  0  0  0
  4 23  1  0  0  0  0
 23 24  2  0  0  0  0
 23 25  1  0  0  0  0
  1 26  1  0  0  0  0
  1 27  1  0  0  0  0
  1 28  1  0  0  0  0
  3 29  1  0  0  0  0
  4 30  1  0  0  0  0
  6 31  1  0  0  0  0
  6 32  1  0  0  0  0
  7 33  1  0  0  0  0
  8 34  1  0  0  0  0
  8 35  1  0  0  0  0
  9 36  1  0  0  0  0
  9 37  1  0  0  0  0
 10 38  1  0  0  0  0
 12 39  1  0  0  0  0
 12 40  1  0  0  0  0
 13 41  1  0  0  0  0
 14 42  1  0  0  0  0
 15 43  1  0  0  0  0
 16 44  1  0  0  0  0
 21 45  1  0  0  0  0
 21 46  1  0  0  0  0
 22 47  1  0  0  0  0
 22 48  1  0  0  0  0
 25 49  1  0  0  0  0
M  END
$$$$
