C19H22O6
APtclcactv06211806543D 0   0.00000     0.00000
 
 47 52  0  0  0  0  0  0  0  0999 V2000
   -3.4638    1.4138   -0.7616 C   0  0  0  0  0  0  0  0  0  0  0  0
   -2.6833    0.2107   -0.2268 C   0  0  0  0  0  0  0  0  0  0  0  0
   -1.2118    0.3445   -0.3983 C   0  0  0  0  0  0  0  0  0  0  0  0
   -0.1556    1.0646    0.3781 C   0  0  0  0  0  0  0  0  0  0  0  0
    1.1130    0.3096   -0.0452 C   0  0  0  0  0  0  0  0  0  0  0  0
    2.0596    0.9903   -1.0261 C   0  0  0  0  0  0  0  0  0  0  0  0
    3.3697    0.2213   -0.8338 C   0  0  0  0  0  0  0  0  0  0  0  0
    4.3987    0.2383   -1.6431 C   0  0  0  0  0  0  0  0  0  0  0  0
    3.2479   -0.5550    0.4615 C   0  0  0  0  0  0  0  0  0  0  0  0
    2.0091    0.0494    1.1843 C   0  0  0  0  0  0  0  0  0  0  0  0
    2.8823   -2.0142    0.2033 C   0  0  0  0  0  0  0  0  0  0  0  0
    1.5740   -2.1837   -0.5269 C   0  0  0  0  0  0  0  0  0  0  0  0
    0.6582   -1.0276   -0.6656 C   0  0  0  0  0  0  0  0  0  0  0  0
   -0.7862   -1.1697   -0.2416 C   0  0  0  0  0  0  0  0  0  0  0  0
   -0.8588   -1.5665    1.2270 C   0  0  0  0  0  0  0  0  0  0  0  0
   -2.1730   -1.1753    1.8926 C   0  0  0  0  0  0  0  0  0  0  0  0
   -3.0858   -0.1633    1.2004 C   0  0  0  0  0  0  0  0  0  0  0  0
   -2.2709    0.2008    2.3007 O   0  0  0  0  0  0  0  0  0  0  0  0
   -1.7745   -1.8108   -1.0453 O   0  0  0  0  0  0  0  0  0  0  0  0
   -2.9172   -1.0699   -1.0649 C   0  0  0  0  0  0  0  0  0  0  0  0
   -3.9405   -1.3587   -1.6375 O   0  0  0  0  0  0  0  0  0  0  0  0
    4.4278   -0.4425    1.2574 O   0  0  0  0  0  0  0  0  0  0  0  0
   -0.1124    2.5185    0.0005 C   0  0  0  0  0  0  0  0  0  0  0  0
   -0.3810    2.8580   -1.1276 O   0  0  0  0  0  0  0  0  0  0  0  0
    0.2247    3.4401    0.9164 O   0  0  0  0  0  0  0  0  0  0  0  0
   -3.2656    1.5310   -1.8270 H   0  0  0  0  0  0  0  0  0  0  0  0
   -4.5306    1.2531   -0.6060 H   0  0  0  0  0  0  0  0  0  0  0  0
   -3.1510    2.3141   -0.2326 H   0  0  0  0  0  0  0  0  0  0  0  0
   -1.0369    0.5775   -1.4531 H   0  0  0  0  0  0  0  0  0  0  0  0
   -0.3242    0.9544    1.4510 H   0  0  0  0  0  0  0  0  0  0  0  0
    1.6998    0.8809   -2.0456 H   0  0  0  0  0  0  0  0  0  0  0  0
    2.2251    2.0342   -0.7740 H   0  0  0  0  0  0  0  0  0  0  0  0
    4.3682    0.8346   -2.5431 H   0  0  0  0  0  0  0  0  0  0  0  0
    5.2781   -0.3441   -1.4108 H   0  0  0  0  0  0  0  0  0  0  0  0
    2.2654    0.9836    1.6902 H   0  0  0  0  0  0  0  0  0  0  0  0
    1.5724   -0.6619    1.8783 H   0  0  0  0  0  0  0  0  0  0  0  0
    3.6771   -2.4787   -0.3787 H   0  0  0  0  0  0  0  0  0  0  0  0
    2.8122   -2.5269    1.1646 H   0  0  0  0  0  0  0  0  0  0  0  0
    1.8095   -2.5297   -1.5371 H   0  0  0  0  0  0  0  0  0  0  0  0
    1.0217   -2.9867   -0.0382 H   0  0  0  0  0  0  0  0  0  0  0  0
    0.6126   -0.8361   -1.7547 H   0  0  0  0  0  0  0  0  0  0  0  0
   -0.7449   -2.6492    1.3010 H   0  0  0  0  0  0  0  0  0  0  0  0
   -0.0484   -1.0933    1.7717 H   0  0  0  0  0  0  0  0  0  0  0  0
   -2.6321   -1.9314    2.5251 H   0  0  0  0  0  0  0  0  0  0  0  0
   -4.1597   -0.2518    1.3771 H   0  0  0  0  0  0  0  0  0  0  0  0
    5.2231   -0.7931    0.8335 H   0  0  0  0  0  0  0  0  0  0  0  0
    0.2387    4.3625    0.6265 H   0  0  0  0  0  0  0  0  0  0  0  0
  1  2  1  0  0  0  0
  2  3  1  0  0  0  0
  3  4  1  0  0  0  0
  4  5  1  0  0  0  0
  5  6  1  0  0  0  0
  6  7  1  0  0  0  0
  7  8  2  0  0  0  0
  7  9  1  0  0  0  0
  9 10  1  0  0  0  0
  5 10  1  0  0  0  0
  9 11  1  0  0  0  0
 11 12  1  0  0  0  0
 12 13  1  0  0  0  0
  5 13  1  0  0  0  0
 13 14  1  0  0  0  0
  3 14  1  0  0  0  0
 14 15  1  0  0  0  0
 15 16  1  0  0  0  0
 16 17  1  0  0  0  0
  2 17  1  0  0  0  0
 17 18  1  0  0  0  0
 16 18  1  0  0  0  0
 14 19  1  0  0  0  0
 19 20  1  0  0  0  0
  2 20  1  0  0  0  0
 20 21  2  0  0  0  0
  9 22  1  0  0  0  0
  4 23  1  0  0  0  0
 23 24  2  0  0  0  0
 23 25  1  0  0  0  0
  1 26  1  0  0  0  0
  1 27  1  0  0  0  0
  1 28  1  0  0  0  0
  3 29  1  0  0  0  0
  4 30  1  0  0  0  0
  6 31  1  0  0  0  0
  6 32  1  0  0  0  0
  8 33  1  0  0  0  0
  8 34  1  0  0  0  0
 10 35  1  0  0  0  0
 10 36  1  0  0  0  0
 11 37  1  0  0  0  0
 11 38  1  0  0  0  0
 12 39  1  0  0  0  0
 12 40  1  0  0  0  0
 13 41  1  0  0  0  0
 15 42  1  0  0  0  0
 15 43  1  0  0  0  0
 16 44  1  0  0  0  0
 17 45  1  0  0  0  0
 22 46  1  0  0  0  0
 25 47  1  0  0  0  0
M  END
$$$$
