C20H26O5
APtclcactv06211806543D 0   0.00000     0.00000
 
 51 54  0  0  0  0  0  0  0  0999 V2000
    2.7718    0.1758   -1.2221 C   0  0  0  0  0  0  0  0  0  0  0  0
    2.3700    0.1002    0.2473 C   0  0  0  0  0  0  0  0  0  0  0  0
    2.9533    1.3319    0.9788 C   0  0  0  0  0  0  0  0  0  0  0  0
    2.2006    2.6021    0.6054 C   0  0  0  0  0  0  0  0  0  0  0  0
    0.7116    2.4892    0.9456 C   0  0  0  0  0  0  0  0  0  0  0  0
    0.1113    1.3203    0.1805 C   0  0  0  0  0  0  0  0  0  0  0  0
    0.9081    0.0432    0.5341 C   0  0  0  0  0  0  0  0  0  0  0  0
    0.0246   -1.1237    0.1028 C   0  0  0  0  0  0  0  0  0  0  0  0
   -1.3979   -0.5791    0.2480 C   0  0  0  0  0  0  0  0  0  0  0  0
   -1.2667    0.8929    0.6679 C   0  0  0  0  0  0  0  0  0  0  0  0
   -2.4487    1.7588    0.4806 C   0  0  0  0  0  0  0  0  0  0  0  0
   -3.5388    1.2688   -0.4496 C   0  0  0  0  0  0  0  0  0  0  0  0
   -3.6041   -0.2548   -0.5180 C   0  0  0  0  0  0  0  0  0  0  0  0
   -2.2093   -0.7052   -1.0535 C   0  0  0  0  0  0  0  0  0  0  0  0
   -3.6980   -0.8708    0.8645 C   0  0  0  0  0  0  0  0  0  0  0  0
   -4.7875   -1.0231    1.5765 C   0  0  0  0  0  0  0  0  0  0  0  0
   -2.2870   -1.2845    1.2758 C   0  0  0  0  0  0  0  0  0  0  0  0
    0.2811   -1.6533   -1.2711 C   0  0  0  0  0  0  0  0  0  0  0  0
    0.2904   -0.9010   -2.2166 O   0  0  0  0  0  0  0  0  0  0  0  0
    0.5011   -2.9646   -1.4547 O   0  0  0  0  0  0  0  0  0  0  0  0
    0.0462    1.6545   -1.2820 C   0  0  0  0  0  0  0  0  0  0  0  0
    0.4538    2.7205   -1.6765 O   0  0  0  0  0  0  0  0  0  0  0  0
    3.0424   -1.1276    0.8508 C   0  0  0  0  0  0  0  0  0  0  0  0
    2.3705   -2.0100    1.3301 O   0  0  0  0  0  0  0  0  0  0  0  0
    4.3809   -1.2284    0.8496 O   0  0  0  0  0  0  0  0  0  0  0  0
    3.8520    0.3008   -1.2974 H   0  0  0  0  0  0  0  0  0  0  0  0
    2.4764   -0.7438   -1.7273 H   0  0  0  0  0  0  0  0  0  0  0  0
    2.2742    1.0243   -1.6916 H   0  0  0  0  0  0  0  0  0  0  0  0
    2.8789    1.1686    2.0522 H   0  0  0  0  0  0  0  0  0  0  0  0
    4.0006    1.4378    0.6998 H   0  0  0  0  0  0  0  0  0  0  0  0
    2.6265    3.4360    1.1769 H   0  0  0  0  0  0  0  0  0  0  0  0
    2.3355    2.8210   -0.4495 H   0  0  0  0  0  0  0  0  0  0  0  0
    0.5864    2.3222    2.0180 H   0  0  0  0  0  0  0  0  0  0  0  0
    0.1939    3.4091    0.6642 H   0  0  0  0  0  0  0  0  0  0  0  0
    0.8636   -0.0078    1.6722 H   0  0  0  0  0  0  0  0  0  0  0  0
    0.1469   -1.9485    0.8296 H   0  0  0  0  0  0  0  0  0  0  0  0
   -1.1411    0.8445    1.7658 H   0  0  0  0  0  0  0  0  0  0  0  0
   -2.9047    1.9130    1.4606 H   0  0  0  0  0  0  0  0  0  0  0  0
   -2.1169    2.7305    0.1239 H   0  0  0  0  0  0  0  0  0  0  0  0
   -4.4956    1.6472   -0.0953 H   0  0  0  0  0  0  0  0  0  0  0  0
   -3.3494    1.6590   -1.4472 H   0  0  0  0  0  0  0  0  0  0  0  0
   -4.4074   -0.5935   -1.1668 H   0  0  0  0  0  0  0  0  0  0  0  0
   -1.8691   -0.0476   -1.8459 H   0  0  0  0  0  0  0  0  0  0  0  0
   -2.2758   -1.7425   -1.3994 H   0  0  0  0  0  0  0  0  0  0  0  0
   -5.7387   -0.6938    1.1853 H   0  0  0  0  0  0  0  0  0  0  0  0
   -4.7341   -1.4779    2.5546 H   0  0  0  0  0  0  0  0  0  0  0  0
   -2.1656   -2.3626    1.1992 H   0  0  0  0  0  0  0  0  0  0  0  0
   -2.0582   -0.9327    2.2781 H   0  0  0  0  0  0  0  0  0  0  0  0
    0.6623   -3.2600   -2.3613 H   0  0  0  0  0  0  0  0  0  0  0  0
   -0.3652    0.9414   -1.9811 H   0  0  0  0  0  0  0  0  0  0  0  0
    4.7614   -2.0254    1.2435 H   0  0  0  0  0  0  0  0  0  0  0  0
  1  2  1  0  0  0  0
  2  3  1  0  0  0  0
  3  4  1  0  0  0  0
  4  5  1  0  0  0  0
  5  6  1  0  0  0  0
  6  7  1  0  0  0  0
  2  7  1  0  0  0  0
  7  8  1  0  0  0  0
  8  9  1  0  0  0  0
  9 10  1  0  0  0  0
  6 10  1  0  0  0  0
 10 11  1  0  0  0  0
 11 12  1  0  0  0  0
 12 13  1  0  0  0  0
 13 14  1  0  0  0  0
  9 14  1  0  0  0  0
 13 15  1  0  0  0  0
 15 16  2  0  0  0  0
 15 17  1  0  0  0  0
  9 17  1  0  0  0  0
  8 18  1  0  0  0  0
 18 19  2  0  0  0  0
 18 20  1  0  0  0  0
  6 21  1  0  0  0  0
 21 22  2  0  0  0  0
  2 23  1  0  0  0  0
 23 24  2  0  0  0  0
 23 25  1  0  0  0  0
  1 26  1  0  0  0  0
  1 27  1  0  0  0  0
  1 28  1  0  0  0  0
  3 29  1  0  0  0  0
  3 30  1  0  0  0  0
  4 31  1  0  0  0  0
  4 32  1  0  0  0  0
  5 33  1  0  0  0  0
  5 34  1  0  0  0  0
  7 35  1  0  0  0  0
  8 36  1  0  0  0  0
 10 37  1  0  0  0  0
 11 38  1  0  0  0  0
 11 39  1  0  0  0  0
 12 40  1  0  0  0  0
 12 41  1  0  0  0  0
 13 42  1  0  0  0  0
 14 43  1  0  0  0  0
 14 44  1  0  0  0  0
 16 45  1  0  0  0  0
 16 46  1  0  0  0  0
 17 47  1  0  0  0  0
 17 48  1  0  0  0  0
 20 49  1  0  0  0  0
 21 50  1  0  0  0  0
 25 51  1  0  0  0  0
M  END
$$$$
