C23H25O12
APtclcactv06201808363D 0   0.00000     0.00000
 
 60 63  0  0  0  0  0  0  0  0999 V2000
   -3.1379   -1.8253   -3.0576 C   0  0  0  0  0  0  0  0  0  0  0  0
   -3.2793   -2.7521   -1.9792 O   0  0  0  0  0  0  0  0  0  0  0  0
   -2.2890   -2.7709   -1.0472 C   0  0  0  0  0  0  0  0  0  0  0  0
   -1.2082   -1.9166   -1.1701 C   0  0  0  0  0  0  0  0  0  0  0  0
   -0.1924   -1.9360   -0.2131 C   0  0  0  0  0  0  0  0  0  0  0  0
   -0.2697   -2.8177    0.8661 C   0  0  0  0  0  0  0  0  0  0  0  0
   -1.3524   -3.6702    0.9850 C   0  0  0  0  0  0  0  0  0  0  0  0
   -2.3668   -3.6455    0.0325 C   0  0  0  0  0  0  0  0  0  0  0  0
   -3.4305   -4.4842    0.1516 O   0  0  0  0  0  0  0  0  0  0  0  0
   -1.4281   -4.5299    2.0361 O   0  0  0  0  0  0  0  0  0  0  0  0
   -0.4172   -4.4179    3.0399 C   0  0  0  0  0  0  0  0  0  0  0  0
    0.9648   -1.0237   -0.3427 C   0  0  0  0  0  0  0  0  0  0  0  0
    0.7236    0.3408   -0.5845 C   0  0  0  0  0  0  0  0  0  0  0  0
    1.8130    1.1766   -0.7025 C   0  0  0  0  0  0  0  0  0  0  0  0
    3.0724    0.5566   -0.5645 C   0  0  0  0  0  0  0  0  0  0  0  0
    4.2686    1.2907   -0.6617 C   0  0  0  0  0  0  0  0  0  0  0  0
    5.4679    0.6498   -0.5213 C   0  0  0  0  0  0  0  0  0  0  0  0
    5.5140   -0.7252   -0.2829 C   0  0  0  0  0  0  0  0  0  0  0  0
    4.3575   -1.4675   -0.1837 C   0  0  0  0  0  0  0  0  0  0  0  0
    3.1100   -0.8400   -0.3222 C   0  0  0  0  0  0  0  0  0  0  0  0
    2.0788   -1.4812   -0.2314 O   0  3  0  0  0  0  0  0  0  0  0  0
    6.7171   -1.3404   -0.1473 O   0  0  0  0  0  0  0  0  0  0  0  0
    4.2321    2.6277   -0.8942 O   0  0  0  0  0  0  0  0  0  0  0  0
   -0.5435    0.8197   -0.6987 O   0  0  0  0  0  0  0  0  0  0  0  0
   -0.6912    2.2316   -0.8620 C   0  0  0  0  0  0  0  0  0  0  0  0
   -2.1361    2.5519   -1.2534 C   0  0  0  0  0  0  0  0  0  0  0  0
   -3.0722    2.1143   -0.1226 C   0  0  0  0  0  0  0  0  0  0  0  0
   -2.6520    2.8149    1.1732 C   0  0  0  0  0  0  0  0  0  0  0  0
   -1.1871    2.4844    1.4709 C   0  0  0  0  0  0  0  0  0  0  0  0
   -0.3750    2.8891    0.3668 O   0  0  0  0  0  0  0  0  0  0  0  0
   -0.7421    3.2287    2.7314 C   0  0  0  0  0  0  0  0  0  0  0  0
    0.5867    2.8310    3.0753 O   0  0  0  0  0  0  0  0  0  0  0  0
   -2.8015    4.2280    1.0222 O   0  0  0  0  0  0  0  0  0  0  0  0
   -4.4159    2.4760   -0.4474 O   0  0  0  0  0  0  0  0  0  0  0  0
   -2.2721    3.9581   -1.4686 O   0  0  0  0  0  0  0  0  0  0  0  0
   -2.2225   -2.0444   -3.6073 H   0  0  0  0  0  0  0  0  0  0  0  0
   -3.9936   -1.9133   -3.7270 H   0  0  0  0  0  0  0  0  0  0  0  0
   -3.0896   -0.8111   -2.6610 H   0  0  0  0  0  0  0  0  0  0  0  0
   -1.1501   -1.2354   -2.0061 H   0  0  0  0  0  0  0  0  0  0  0  0
    0.5154   -2.8346    1.6075 H   0  0  0  0  0  0  0  0  0  0  0  0
   -4.1669   -4.1158    0.6585 H   0  0  0  0  0  0  0  0  0  0  0  0
   -0.5924   -5.1623    3.8166 H   0  0  0  0  0  0  0  0  0  0  0  0
    0.5615   -4.5854    2.5903 H   0  0  0  0  0  0  0  0  0  0  0  0
   -0.4497   -3.4206    3.4786 H   0  0  0  0  0  0  0  0  0  0  0  0
    1.7094    2.2354   -0.8884 H   0  0  0  0  0  0  0  0  0  0  0  0
    6.3873    1.2116   -0.5956 H   0  0  0  0  0  0  0  0  0  0  0  0
    4.4110   -2.5304    0.0002 H   0  0  0  0  0  0  0  0  0  0  0  0
    7.0442   -1.3684    0.7623 H   0  0  0  0  0  0  0  0  0  0  0  0
    4.1998    3.1658   -0.0913 H   0  0  0  0  0  0  0  0  0  0  0  0
   -0.0169    2.5796   -1.6445 H   0  0  0  0  0  0  0  0  0  0  0  0
   -2.3933    2.0161   -2.1671 H   0  0  0  0  0  0  0  0  0  0  0  0
   -3.0054    1.0343    0.0086 H   0  0  0  0  0  0  0  0  0  0  0  0
   -3.2781    2.4671    1.9948 H   0  0  0  0  0  0  0  0  0  0  0  0
   -1.0809    1.4107    1.6259 H   0  0  0  0  0  0  0  0  0  0  0  0
   -0.7634    4.3025    2.5459 H   0  0  0  0  0  0  0  0  0  0  0  0
   -1.4173    2.9883    3.5526 H   0  0  0  0  0  0  0  0  0  0  0  0
    0.9345    3.2642    3.8668 H   0  0  0  0  0  0  0  0  0  0  0  0
   -3.7059    4.5091    0.8267 H   0  0  0  0  0  0  0  0  0  0  0  0
   -4.7458    2.0728   -1.2621 H   0  0  0  0  0  0  0  0  0  0  0  0
   -1.7034    4.3055   -2.1693 H   0  0  0  0  0  0  0  0  0  0  0  0
  1  2  1  0  0  0  0
  2  3  1  0  0  0  0
  3  4  2  0  0  0  0
  4  5  1  0  0  0  0
  5  6  2  0  0  0  0
  6  7  1  0  0  0  0
  7  8  2  0  0  0  0
  3  8  1  0  0  0  0
  8  9  1  0  0  0  0
  7 10  1  0  0  0  0
 10 11  1  0  0  0  0
  5 12  1  0  0  0  0
 12 13  2  0  0  0  0
 13 14  1  0  0  0  0
 14 15  2  0  0  0  0
 15 16  1  0  0  0  0
 16 17  2  0  0  0  0
 17 18  1  0  0  0  0
 18 19  2  0  0  0  0
 19 20  1  0  0  0  0
 15 20  1  0  0  0  0
 20 21  2  0  0  0  0
 12 21  1  0  0  0  0
 18 22  1  0  0  0  0
 16 23  1  0  0  0  0
 13 24  1  0  0  0  0
 24 25  1  0  0  0  0
 25 26  1  0  0  0  0
 26 27  1  0  0  0  0
 27 28  1  0  0  0  0
 28 29  1  0  0  0  0
 29 30  1  0  0  0  0
 25 30  1  0  0  0  0
 29 31  1  0  0  0  0
 31 32  1  0  0  0  0
 28 33  1  0  0  0  0
 27 34  1  0  0  0  0
 26 35  1  0  0  0  0
  1 36  1  0  0  0  0
  1 37  1  0  0  0  0
  1 38  1  0  0  0  0
  4 39  1  0  0  0  0
  6 40  1  0  0  0  0
  9 41  1  0  0  0  0
 11 42  1  0  0  0  0
 11 43  1  0  0  0  0
 11 44  1  0  0  0  0
 14 45  1  0  0  0  0
 17 46  1  0  0  0  0
 19 47  1  0  0  0  0
 22 48  1  0  0  0  0
 23 49  1  0  0  0  0
 25 50  1  0  0  0  0
 26 51  1  0  0  0  0
 27 52  1  0  0  0  0
 28 53  1  0  0  0  0
 29 54  1  0  0  0  0
 31 55  1  0  0  0  0
 31 56  1  0  0  0  0
 32 57  1  0  0  0  0
 33 58  1  0  0  0  0
 34 59  1  0  0  0  0
 35 60  1  0  0  0  0
M  CHG  1  21   1
M  END
$$$$
