C21H21O12
APtclcactv06211806543D 0   0.00000     0.00000
 
 54 57  0  0  0  0  0  0  0  0999 V2000
   -0.2764    3.5018   -0.4032 C   0  0  0  0  0  0  0  0  0  0  0  0
    0.0145    2.2005    0.0091 C   0  0  0  0  0  0  0  0  0  0  0  0
    1.2610    1.9090    0.5652 C   0  0  0  0  0  0  0  0  0  0  0  0
    2.2052    2.9098    0.7066 C   0  0  0  0  0  0  0  0  0  0  0  0
    1.9129    4.2067    0.2952 C   0  0  0  0  0  0  0  0  0  0  0  0
    0.6707    4.4995   -0.2600 C   0  0  0  0  0  0  0  0  0  0  0  0
    0.3875    5.7679   -0.6607 O   0  0  0  0  0  0  0  0  0  0  0  0
    2.8424    5.1892    0.4355 O   0  0  0  0  0  0  0  0  0  0  0  0
    3.4200    2.6263    1.2484 O   0  0  0  0  0  0  0  0  0  0  0  0
   -0.9971    1.1319   -0.1426 C   0  0  0  0  0  0  0  0  0  0  0  0
   -0.5721   -0.1457   -0.5498 C   0  0  0  0  0  0  0  0  0  0  0  0
   -1.5276   -1.1295   -0.6856 C   0  0  0  0  0  0  0  0  0  0  0  0
   -2.8506   -0.7361   -0.3949 C   0  0  0  0  0  0  0  0  0  0  0  0
   -3.9249   -1.6392   -0.4917 C   0  0  0  0  0  0  0  0  0  0  0  0
   -5.1917   -1.2160   -0.2003 C   0  0  0  0  0  0  0  0  0  0  0  0
   -5.4264    0.1035    0.1915 C   0  0  0  0  0  0  0  0  0  0  0  0
   -4.3922    1.0081    0.2938 C   0  0  0  0  0  0  0  0  0  0  0  0
   -3.0799    0.6055    0.0026 C   0  0  0  0  0  0  0  0  0  0  0  0
   -2.1545    1.3917    0.0935 O   0  3  0  0  0  0  0  0  0  0  0  0
   -6.6934    0.5014    0.4755 O   0  0  0  0  0  0  0  0  0  0  0  0
   -3.7049   -2.9236   -0.8727 O   0  0  0  0  0  0  0  0  0  0  0  0
    0.7389   -0.4015   -0.8018 O   0  0  0  0  0  0  0  0  0  0  0  0
    1.0739   -1.7293   -1.2103 C   0  0  0  0  0  0  0  0  0  0  0  0
    2.5615   -1.7939   -1.5662 C   0  0  0  0  0  0  0  0  0  0  0  0
    3.3912   -1.4674   -0.3207 C   0  0  0  0  0  0  0  0  0  0  0  0
    3.0182   -2.4447    0.7983 C   0  0  0  0  0  0  0  0  0  0  0  0
    1.5130   -2.3549    1.0629 C   0  0  0  0  0  0  0  0  0  0  0  0
    0.8009   -2.6394   -0.1429 O   0  0  0  0  0  0  0  0  0  0  0  0
    1.1225   -3.3711    2.1380 C   0  0  0  0  0  0  0  0  0  0  0  0
   -0.2582   -3.2082    2.4684 O   0  0  0  0  0  0  0  0  0  0  0  0
    3.3549   -3.7757    0.4018 O   0  0  0  0  0  0  0  0  0  0  0  0
    4.7814   -1.5971   -0.6249 O   0  0  0  0  0  0  0  0  0  0  0  0
    2.8860   -3.1077   -2.0254 O   0  0  0  0  0  0  0  0  0  0  0  0
   -1.2387    3.7286   -0.8378 H   0  0  0  0  0  0  0  0  0  0  0  0
    1.4880    0.9028    0.8853 H   0  0  0  0  0  0  0  0  0  0  0  0
    0.6218    5.9512   -1.5809 H   0  0  0  0  0  0  0  0  0  0  0  0
    3.4271    5.2895   -0.3282 H   0  0  0  0  0  0  0  0  0  0  0  0
    4.0870    2.3601    0.6008 H   0  0  0  0  0  0  0  0  0  0  0  0
   -1.2799   -2.1344   -0.9943 H   0  0  0  0  0  0  0  0  0  0  0  0
   -6.0177   -1.9078   -0.2740 H   0  0  0  0  0  0  0  0  0  0  0  0
   -4.5912    2.0252    0.5975 H   0  0  0  0  0  0  0  0  0  0  0  0
   -6.9432    0.3866    1.4026 H   0  0  0  0  0  0  0  0  0  0  0  0
   -3.5235   -3.5261   -0.1385 H   0  0  0  0  0  0  0  0  0  0  0  0
    0.4794   -2.0023   -2.0821 H   0  0  0  0  0  0  0  0  0  0  0  0
    2.7803   -1.0687   -2.3500 H   0  0  0  0  0  0  0  0  0  0  0  0
    3.1805   -0.4474    0.0007 H   0  0  0  0  0  0  0  0  0  0  0  0
    3.5637   -2.1849    1.7056 H   0  0  0  0  0  0  0  0  0  0  0  0
    1.2632   -1.3503    1.4042 H   0  0  0  0  0  0  0  0  0  0  0  0
    1.2894   -4.3804    1.7617 H   0  0  0  0  0  0  0  0  0  0  0  0
    1.7306   -3.2101    3.0282 H   0  0  0  0  0  0  0  0  0  0  0  0
   -0.5756   -3.8212    3.1455 H   0  0  0  0  0  0  0  0  0  0  0  0
    4.2945   -3.9040    0.2129 H   0  0  0  0  0  0  0  0  0  0  0  0
    5.0857   -1.0110   -1.3314 H   0  0  0  0  0  0  0  0  0  0  0  0
    2.3930   -3.3829   -2.8104 H   0  0  0  0  0  0  0  0  0  0  0  0
  1  2  2  0  0  0  0
  2  3  1  0  0  0  0
  3  4  2  0  0  0  0
  4  5  1  0  0  0  0
  5  6  2  0  0  0  0
  1  6  1  0  0  0  0
  6  7  1  0  0  0  0
  5  8  1  0  0  0  0
  4  9  1  0  0  0  0
  2 10  1  0  0  0  0
 10 11  2  0  0  0  0
 11 12  1  0  0  0  0
 12 13  2  0  0  0  0
 13 14  1  0  0  0  0
 14 15  2  0  0  0  0
 15 16  1  0  0  0  0
 16 17  2  0  0  0  0
 17 18  1  0  0  0  0
 13 18  1  0  0  0  0
 18 19  2  0  0  0  0
 10 19  1  0  0  0  0
 16 20  1  0  0  0  0
 14 21  1  0  0  0  0
 11 22  1  0  0  0  0
 22 23  1  0  0  0  0
 23 24  1  0  0  0  0
 24 25  1  0  0  0  0
 25 26  1  0  0  0  0
 26 27  1  0  0  0  0
 27 28  1  0  0  0  0
 23 28  1  0  0  0  0
 27 29  1  0  0  0  0
 29 30  1  0  0  0  0
 26 31  1  0  0  0  0
 25 32  1  0  0  0  0
 24 33  1  0  0  0  0
  1 34  1  0  0  0  0
  3 35  1  0  0  0  0
  7 36  1  0  0  0  0
  8 37  1  0  0  0  0
  9 38  1  0  0  0  0
 12 39  1  0  0  0  0
 15 40  1  0  0  0  0
 17 41  1  0  0  0  0
 20 42  1  0  0  0  0
 21 43  1  0  0  0  0
 23 44  1  0  0  0  0
 24 45  1  0  0  0  0
 25 46  1  0  0  0  0
 26 47  1  0  0  0  0
 27 48  1  0  0  0  0
 29 49  1  0  0  0  0
 29 50  1  0  0  0  0
 30 51  1  0  0  0  0
 31 52  1  0  0  0  0
 32 53  1  0  0  0  0
 33 54  1  0  0  0  0
M  CHG  1  19   1
M  END
$$$$
