C14H9NO2
APtclcactv06211806553D 0   0.00000     0.00000
 
 26 29  0  0  0  0  0  0  0  0999 V2000
   -4.3474    0.7174    0.3077 C   0  0  0  0  0  0  0  0  0  0  0  0
   -3.9159   -0.5997   -0.0812 O   0  0  0  0  0  0  0  0  0  0  0  0
   -2.5508   -0.5575   -0.0622 C   0  0  0  0  0  0  0  0  0  0  0  0
   -2.1489    0.7855   -0.0760 C   0  0  0  0  0  0  0  0  0  0  0  0
   -3.2643    1.5712   -0.1045 O   0  0  0  0  0  0  0  0  0  0  0  0
   -0.8079    1.1145   -0.0595 C   0  0  0  0  0  0  0  0  0  0  0  0
    0.1493    0.1049   -0.0296 C   0  0  0  0  0  0  0  0  0  0  0  0
    1.5881    0.3872   -0.0082 C   0  0  0  0  0  0  0  0  0  0  0  0
    2.0824    1.6908   -0.0145 C   0  0  0  0  0  0  0  0  0  0  0  0
    3.4325    1.9023    0.0068 C   0  0  0  0  0  0  0  0  0  0  0  0
    4.3161    0.8306    0.0350 C   0  0  0  0  0  0  0  0  0  0  0  0
    3.8609   -0.4554    0.0416 C   0  0  0  0  0  0  0  0  0  0  0  0
    2.4819   -0.7081    0.0200 C   0  0  0  0  0  0  0  0  0  0  0  0
    2.0123   -1.9671    0.0267 N   0  0  0  0  0  0  0  0  0  0  0  0
    0.7421   -2.2576    0.0091 C   0  0  0  0  0  0  0  0  0  0  0  0
   -0.2509   -1.2539   -0.0183 C   0  0  0  0  0  0  0  0  0  0  0  0
   -1.6153   -1.5685   -0.0345 C   0  0  0  0  0  0  0  0  0  0  0  0
   -5.2667    0.9877   -0.2118 H   0  0  0  0  0  0  0  0  0  0  0  0
   -4.4871    0.7709    1.3874 H   0  0  0  0  0  0  0  0  0  0  0  0
   -0.5034    2.1506   -0.0694 H   0  0  0  0  0  0  0  0  0  0  0  0
    1.4020    2.5292   -0.0365 H   0  0  0  0  0  0  0  0  0  0  0  0
    3.8160    2.9119    0.0021 H   0  0  0  0  0  0  0  0  0  0  0  0
    5.3796    1.0184    0.0516 H   0  0  0  0  0  0  0  0  0  0  0  0
    4.5613   -1.2772    0.0631 H   0  0  0  0  0  0  0  0  0  0  0  0
    0.4404   -3.2946    0.0161 H   0  0  0  0  0  0  0  0  0  0  0  0
   -1.9333   -2.6006   -0.0248 H   0  0  0  0  0  0  0  0  0  0  0  0
  1  2  1  0  0  0  0
  2  3  1  0  0  0  0
  3  4  2  0  0  0  0
  4  5  1  0  0  0  0
  1  5  1  0  0  0  0
  4  6  1  0  0  0  0
  6  7  2  0  0  0  0
  7  8  1  0  0  0  0
  8  9  2  0  0  0  0
  9 10  1  0  0  0  0
 10 11  2  0  0  0  0
 11 12  1  0  0  0  0
 12 13  2  0  0  0  0
  8 13  1  0  0  0  0
 13 14  1  0  0  0  0
 14 15  2  0  0  0  0
 15 16  1  0  0  0  0
  7 16  1  0  0  0  0
 16 17  2  0  0  0  0
  3 17  1  0  0  0  0
  1 18  1  0  0  0  0
  1 19  1  0  0  0  0
  6 20  1  0  0  0  0
  9 21  1  0  0  0  0
 10 22  1  0  0  0  0
 11 23  1  0  0  0  0
 12 24  1  0  0  0  0
 15 25  1  0  0  0  0
 17 26  1  0  0  0  0
M  END
$$$$
