C22H23O12
APtclcactv06211806553D 0   0.00000     0.00000
 
 57 60  0  0  0  0  0  0  0  0999 V2000
    2.7802   -5.2254   -1.0123 C   0  0  0  0  0  0  0  0  0  0  0  0
    1.4760   -5.4261   -0.4639 O   0  0  0  0  0  0  0  0  0  0  0  0
    0.7814   -4.3148   -0.1004 C   0  0  0  0  0  0  0  0  0  0  0  0
    1.3438   -3.0627   -0.2684 C   0  0  0  0  0  0  0  0  0  0  0  0
    0.6302   -1.9223    0.1045 C   0  0  0  0  0  0  0  0  0  0  0  0
   -0.6496   -2.0487    0.6463 C   0  0  0  0  0  0  0  0  0  0  0  0
   -1.2084   -3.3032    0.8127 C   0  0  0  0  0  0  0  0  0  0  0  0
   -0.4974   -4.4383    0.4353 C   0  0  0  0  0  0  0  0  0  0  0  0
   -1.0487   -5.6704    0.5993 O   0  0  0  0  0  0  0  0  0  0  0  0
   -2.4554   -3.4270    1.3410 O   0  0  0  0  0  0  0  0  0  0  0  0
    1.2300   -0.5820   -0.0739 C   0  0  0  0  0  0  0  0  0  0  0  0
    0.4094    0.4697   -0.5202 C   0  0  0  0  0  0  0  0  0  0  0  0
    0.9843    1.7118   -0.6809 C   0  0  0  0  0  0  0  0  0  0  0  0
    2.3587    1.7896   -0.3734 C   0  0  0  0  0  0  0  0  0  0  0  0
    3.0721    2.9963   -0.4923 C   0  0  0  0  0  0  0  0  0  0  0  0
    4.4035    3.0274   -0.1834 C   0  0  0  0  0  0  0  0  0  0  0  0
    5.0589    1.8724    0.2479 C   0  0  0  0  0  0  0  0  0  0  0  0
    4.3838    0.6778    0.3725 C   0  0  0  0  0  0  0  0  0  0  0  0
    3.0163    0.6122    0.0643 C   0  0  0  0  0  0  0  0  0  0  0  0
    2.4044   -0.4348    0.1747 O   0  3  0  0  0  0  0  0  0  0  0  0
    6.3821    1.9272    0.5487 O   0  0  0  0  0  0  0  0  0  0  0  0
    2.4422    4.1234   -0.9117 O   0  0  0  0  0  0  0  0  0  0  0  0
   -0.9085    0.2672   -0.7850 O   0  0  0  0  0  0  0  0  0  0  0  0
   -1.6610    1.3962   -1.2336 C   0  0  0  0  0  0  0  0  0  0  0  0
   -3.0801    0.9519   -1.5973 C   0  0  0  0  0  0  0  0  0  0  0  0
   -3.7706    0.4004   -0.3462 C   0  0  0  0  0  0  0  0  0  0  0  0
   -3.7597    1.4752    0.7452 C   0  0  0  0  0  0  0  0  0  0  0  0
   -2.3143    1.8992    1.0185 C   0  0  0  0  0  0  0  0  0  0  0  0
   -1.7213    2.3730   -0.1923 O   0  0  0  0  0  0  0  0  0  0  0  0
   -2.2992    3.0154    2.0649 C   0  0  0  0  0  0  0  0  0  0  0  0
   -0.9477    3.3307    2.4055 O   0  0  0  0  0  0  0  0  0  0  0  0
   -4.5150    2.6069    0.3085 O   0  0  0  0  0  0  0  0  0  0  0  0
   -5.1204    0.0512   -0.6597 O   0  0  0  0  0  0  0  0  0  0  0  0
   -3.8174    2.0698   -2.0961 O   0  0  0  0  0  0  0  0  0  0  0  0
    3.4069   -4.7144   -0.2815 H   0  0  0  0  0  0  0  0  0  0  0  0
    3.2230   -6.1904   -1.2592 H   0  0  0  0  0  0  0  0  0  0  0  0
    2.7055   -4.6185   -1.9146 H   0  0  0  0  0  0  0  0  0  0  0  0
    2.3346   -2.9671   -0.6876 H   0  0  0  0  0  0  0  0  0  0  0  0
   -1.2033   -1.1678    0.9358 H   0  0  0  0  0  0  0  0  0  0  0  0
   -1.5590   -5.9776   -0.1625 H   0  0  0  0  0  0  0  0  0  0  0  0
   -3.1642   -3.4152    0.6833 H   0  0  0  0  0  0  0  0  0  0  0  0
    0.4204    2.5682   -1.0200 H   0  0  0  0  0  0  0  0  0  0  0  0
    4.9529    3.9528   -0.2740 H   0  0  0  0  0  0  0  0  0  0  0  0
    4.9060   -0.2065    0.7067 H   0  0  0  0  0  0  0  0  0  0  0  0
    6.5667    2.1429    1.4730 H   0  0  0  0  0  0  0  0  0  0  0  0
    2.0605    4.6501   -0.1962 H   0  0  0  0  0  0  0  0  0  0  0  0
   -1.1795    1.8287   -2.1106 H   0  0  0  0  0  0  0  0  0  0  0  0
   -3.0342    0.1749   -2.3604 H   0  0  0  0  0  0  0  0  0  0  0  0
   -3.2367   -0.4822    0.0059 H   0  0  0  0  0  0  0  0  0  0  0  0
   -4.1999    1.0724    1.6575 H   0  0  0  0  0  0  0  0  0  0  0  0
   -1.7489    1.0447    1.3902 H   0  0  0  0  0  0  0  0  0  0  0  0
   -2.7876    3.9011    1.6584 H   0  0  0  0  0  0  0  0  0  0  0  0
   -2.8310    2.6844    2.9569 H   0  0  0  0  0  0  0  0  0  0  0  0
   -0.8619    4.0321    3.0656 H   0  0  0  0  0  0  0  0  0  0  0  0
   -5.4411    2.4098    0.1121 H   0  0  0  0  0  0  0  0  0  0  0  0
   -5.2025   -0.6211   -1.3499 H   0  0  0  0  0  0  0  0  0  0  0  0
   -3.4336    2.4729   -2.8869 H   0  0  0  0  0  0  0  0  0  0  0  0
  1  2  1  0  0  0  0
  2  3  1  0  0  0  0
  3  4  2  0  0  0  0
  4  5  1  0  0  0  0
  5  6  2  0  0  0  0
  6  7  1  0  0  0  0
  7  8  2  0  0  0  0
  3  8  1  0  0  0  0
  8  9  1  0  0  0  0
  7 10  1  0  0  0  0
  5 11  1  0  0  0  0
 11 12  2  0  0  0  0
 12 13  1  0  0  0  0
 13 14  2  0  0  0  0
 14 15  1  0  0  0  0
 15 16  2  0  0  0  0
 16 17  1  0  0  0  0
 17 18  2  0  0  0  0
 18 19  1  0  0  0  0
 14 19  1  0  0  0  0
 19 20  2  0  0  0  0
 11 20  1  0  0  0  0
 17 21  1  0  0  0  0
 15 22  1  0  0  0  0
 12 23  1  0  0  0  0
 23 24  1  0  0  0  0
 24 25  1  0  0  0  0
 25 26  1  0  0  0  0
 26 27  1  0  0  0  0
 27 28  1  0  0  0  0
 28 29  1  0  0  0  0
 24 29  1  0  0  0  0
 28 30  1  0  0  0  0
 30 31  1  0  0  0  0
 27 32  1  0  0  0  0
 26 33  1  0  0  0  0
 25 34  1  0  0  0  0
  1 35  1  0  0  0  0
  1 36  1  0  0  0  0
  1 37  1  0  0  0  0
  4 38  1  0  0  0  0
  6 39  1  0  0  0  0
  9 40  1  0  0  0  0
 10 41  1  0  0  0  0
 13 42  1  0  0  0  0
 16 43  1  0  0  0  0
 18 44  1  0  0  0  0
 21 45  1  0  0  0  0
 22 46  1  0  0  0  0
 24 47  1  0  0  0  0
 25 48  1  0  0  0  0
 26 49  1  0  0  0  0
 27 50  1  0  0  0  0
 28 51  1  0  0  0  0
 30 52  1  0  0  0  0
 30 53  1  0  0  0  0
 31 54  1  0  0  0  0
 32 55  1  0  0  0  0
 33 56  1  0  0  0  0
 34 57  1  0  0  0  0
M  CHG  1  20   1
M  END
$$$$
