C5H6N4O5
APtclcactv06211806553D 0   0.00000     0.00000
 
 20 20  0  0  0  0  0  0  0  0999 V2000
   -0.3569   -0.0898    0.2177 C   0  0  0  0  0  0  0  0  0  0  0  0
   -0.3701   -1.3618   -0.0824 N   0  0  0  0  0  0  0  0  0  0  0  0
    0.8497   -1.9103   -0.0428 C   0  0  0  0  0  0  0  0  0  0  0  0
    1.0767   -3.0810   -0.2861 O   0  0  0  0  0  0  0  0  0  0  0  0
    1.7973   -1.0154    0.2976 N   0  0  0  0  0  0  0  0  0  0  0  0
    1.0900    0.2622    0.4997 C   0  0  0  0  0  0  0  0  0  0  0  0
    1.5831    1.3021   -0.4733 C   0  0  0  0  0  0  0  0  0  0  0  0
    2.0575    2.3353   -0.0643 O   0  0  0  0  0  0  0  0  0  0  0  0
    1.4952    1.0804   -1.7942 O   0  0  0  0  0  0  0  0  0  0  0  0
    1.2449    0.7163    1.8458 O   0  0  0  0  0  0  0  0  0  0  0  0
   -1.4284    0.7523    0.2624 N   0  0  0  0  0  0  0  0  0  0  0  0
   -2.6618    0.2892   -0.0215 C   0  0  0  0  0  0  0  0  0  0  0  0
   -2.8190   -0.8792   -0.3174 O   0  0  0  0  0  0  0  0  0  0  0  0
   -3.7209    1.1215    0.0226 N   0  0  0  0  0  0  0  0  0  0  0  0
    2.7490   -1.1781    0.3906 H   0  0  0  0  0  0  0  0  0  0  0  0
    1.8245    1.7766   -2.3790 H   0  0  0  0  0  0  0  0  0  0  0  0
    2.1620    0.8879    2.0999 H   0  0  0  0  0  0  0  0  0  0  0  0
   -1.3029    1.6847    0.4985 H   0  0  0  0  0  0  0  0  0  0  0  0
   -3.5954    2.0540    0.2587 H   0  0  0  0  0  0  0  0  0  0  0  0
   -4.6086    0.7882   -0.1818 H   0  0  0  0  0  0  0  0  0  0  0  0
  1  2  2  0  0  0  0
  2  3  1  0  0  0  0
  3  4  2  0  0  0  0
  3  5  1  0  0  0  0
  5  6  1  0  0  0  0
  1  6  1  0  0  0  0
  6  7  1  0  0  0  0
  7  8  2  0  0  0  0
  7  9  1  0  0  0  0
  6 10  1  0  0  0  0
  1 11  1  0  0  0  0
 11 12  1  0  0  0  0
 12 13  2  0  0  0  0
 12 14  1  0  0  0  0
  5 15  1  0  0  0  0
  9 16  1  0  0  0  0
 10 17  1  0  0  0  0
 11 18  1  0  0  0  0
 14 19  1  0  0  0  0
 14 20  1  0  0  0  0
M  END
$$$$
