C20H15NO4
APtclcactv06211806553D 0   0.00000     0.00000
 
 40 44  0  0  0  0  0  0  0  0999 V2000
    6.5875    1.2152   -0.1240 C   0  0  0  0  0  0  0  0  0  0  0  0
    5.7425    0.0643   -0.1841 O   0  0  0  0  0  0  0  0  0  0  0  0
    4.4006    0.2802   -0.1329 C   0  0  0  0  0  0  0  0  0  0  0  0
    3.5315   -0.7959   -0.1870 C   0  0  0  0  0  0  0  0  0  0  0  0
    2.1467   -0.5655   -0.1332 C   0  0  0  0  0  0  0  0  0  0  0  0
    1.2147   -1.6197   -0.1828 C   0  0  0  0  0  0  0  0  0  0  0  0
   -0.0718   -1.3976   -0.1332 N   0  0  0  0  0  0  0  0  0  0  0  0
   -0.6035   -0.1752   -0.0336 C   0  0  0  0  0  0  0  0  0  0  0  0
    0.2213    0.9651    0.0269 C   0  0  0  0  0  0  0  0  0  0  0  0
    1.6712    0.7660   -0.0254 C   0  0  0  0  0  0  0  0  0  0  0  0
    2.5728    1.8274    0.0266 C   0  0  0  0  0  0  0  0  0  0  0  0
    3.9160    1.5812   -0.0209 C   0  0  0  0  0  0  0  0  0  0  0  0
   -0.3412    2.2472    0.1335 C   0  0  0  0  0  0  0  0  0  0  0  0
   -1.6815    2.4280    0.1785 C   0  0  0  0  0  0  0  0  0  0  0  0
   -2.5675    1.3307    0.1196 C   0  0  0  0  0  0  0  0  0  0  0  0
   -3.9562    1.5266    0.1637 C   0  0  0  0  0  0  0  0  0  0  0  0
   -4.8045    0.4444    0.1062 C   0  0  0  0  0  0  0  0  0  0  0  0
   -4.2925   -0.8574    0.0035 C   0  0  0  0  0  0  0  0  0  0  0  0
   -2.9320   -1.0705   -0.0423 C   0  0  0  0  0  0  0  0  0  0  0  0
   -2.0551    0.0164    0.0144 C   0  0  0  0  0  0  0  0  0  0  0  0
   -5.3401   -1.7325   -0.0340 O   0  0  0  0  0  0  0  0  0  0  0  0
   -6.4931   -0.9386   -0.3690 C   0  0  0  0  0  0  0  0  0  0  0  0
   -6.1682    0.3712    0.1317 O   0  0  0  0  0  0  0  0  0  0  0  0
    4.0129   -2.0622   -0.2916 O   0  0  0  0  0  0  0  0  0  0  0  0
    4.2773   -2.7585    0.9279 C   0  0  0  0  0  0  0  0  0  0  0  0
    7.6307    0.9030   -0.1741 H   0  0  0  0  0  0  0  0  0  0  0  0
    6.3646    1.8738   -0.9634 H   0  0  0  0  0  0  0  0  0  0  0  0
    6.4118    1.7465    0.8114 H   0  0  0  0  0  0  0  0  0  0  0  0
    1.5717   -2.6358   -0.2640 H   0  0  0  0  0  0  0  0  0  0  0  0
    2.2109    2.8417    0.1089 H   0  0  0  0  0  0  0  0  0  0  0  0
    4.6109    2.4070    0.0201 H   0  0  0  0  0  0  0  0  0  0  0  0
    0.3099    3.1075    0.1811 H   0  0  0  0  0  0  0  0  0  0  0  0
   -2.0800    3.4284    0.2612 H   0  0  0  0  0  0  0  0  0  0  0  0
   -4.3589    2.5255    0.2431 H   0  0  0  0  0  0  0  0  0  0  0  0
   -2.5440   -2.0753   -0.1214 H   0  0  0  0  0  0  0  0  0  0  0  0
   -6.6374   -0.9102   -1.4491 H   0  0  0  0  0  0  0  0  0  0  0  0
   -7.3826   -1.3277    0.1266 H   0  0  0  0  0  0  0  0  0  0  0  0
    4.6563   -3.7553    0.7024 H   0  0  0  0  0  0  0  0  0  0  0  0
    5.0206   -2.2094    1.5060 H   0  0  0  0  0  0  0  0  0  0  0  0
    3.3568   -2.8420    1.5056 H   0  0  0  0  0  0  0  0  0  0  0  0
  1  2  1  0  0  0  0
  2  3  1  0  0  0  0
  3  4  2  0  0  0  0
  4  5  1  0  0  0  0
  5  6  2  0  0  0  0
  6  7  1  0  0  0  0
  7  8  2  0  0  0  0
  8  9  1  0  0  0  0
  9 10  2  0  0  0  0
  5 10  1  0  0  0  0
 10 11  1  0  0  0  0
 11 12  2  0  0  0  0
  3 12  1  0  0  0  0
  9 13  1  0  0  0  0
 13 14  2  0  0  0  0
 14 15  1  0  0  0  0
 15 16  2  0  0  0  0
 16 17  1  0  0  0  0
 17 18  2  0  0  0  0
 18 19  1  0  0  0  0
 19 20  2  0  0  0  0
 15 20  1  0  0  0  0
  8 20  1  0  0  0  0
 18 21  1  0  0  0  0
 21 22  1  0  0  0  0
 22 23  1  0  0  0  0
 17 23  1  0  0  0  0
  4 24  1  0  0  0  0
 24 25  1  0  0  0  0
  1 26  1  0  0  0  0
  1 27  1  0  0  0  0
  1 28  1  0  0  0  0
  6 29  1  0  0  0  0
 11 30  1  0  0  0  0
 12 31  1  0  0  0  0
 13 32  1  0  0  0  0
 14 33  1  0  0  0  0
 16 34  1  0  0  0  0
 19 35  1  0  0  0  0
 22 36  1  0  0  0  0
 22 37  1  0  0  0  0
 25 38  1  0  0  0  0
 25 39  1  0  0  0  0
 25 40  1  0  0  0  0
M  END
$$$$
