C26H34O4
APtclcactv06291802523D 0   0.00000     0.00000
 
 64 66  0  0  0  0  0  0  0  0999 V2000
   -5.0635    1.8302    0.2807 C   0  0  0  0  0  0  0  0  0  0  0  0
   -5.3398    0.5333   -0.4818 C   0  0  0  0  0  0  0  0  0  0  0  0
   -5.8487   -0.5243    0.5005 C   0  0  0  0  0  0  0  0  0  0  0  0
   -5.6204   -1.9167   -0.0917 C   0  0  0  0  0  0  0  0  0  0  0  0
   -4.4482   -2.5692    0.5986 C   0  0  0  0  0  0  0  0  0  0  0  0
   -3.6910   -3.3955   -0.0839 C   0  0  0  0  0  0  0  0  0  0  0  0
   -2.5147   -4.0584    0.5866 C   0  0  0  0  0  0  0  0  0  0  0  0
   -1.2383   -3.7219   -0.1811 C   0  0  0  0  0  0  0  0  0  0  0  0
   -0.2226   -3.0408    0.7336 C   0  0  0  0  0  0  0  0  0  0  0  0
    1.1279   -2.9553    0.0238 C   0  0  0  0  0  0  0  0  0  0  0  0
    1.2875   -1.5952   -0.6587 C   0  0  0  0  0  0  0  0  0  0  0  0
    2.6463   -1.0268   -0.3365 C   0  0  0  0  0  0  0  0  0  0  0  0
    3.7419   -1.8749   -0.2818 C   0  0  0  0  0  0  0  0  0  0  0  0
    4.9998   -1.3746    0.0310 C   0  0  0  0  0  0  0  0  0  0  0  0
    5.1557   -0.0245    0.2805 C   0  0  0  0  0  0  0  0  0  0  0  0
    4.0713    0.8332    0.2174 C   0  0  0  0  0  0  0  0  0  0  0  0
    2.7991    0.3332   -0.0918 C   0  0  0  0  0  0  0  0  0  0  0  0
    1.6216    1.2263   -0.1182 C   0  0  0  0  0  0  0  0  0  0  0  0
    1.2716    2.0137    0.9721 C   0  0  0  0  0  0  0  0  0  0  0  0
    0.1655    2.8432    0.9187 C   0  0  0  0  0  0  0  0  0  0  0  0
   -0.6023    2.9007   -0.2337 C   0  0  0  0  0  0  0  0  0  0  0  0
   -1.8099    3.8012   -0.2646 C   0  0  0  0  0  0  0  0  0  0  0  0
   -2.9484    3.1465    0.5249 C   0  0  0  0  0  0  0  0  0  0  0  0
   -3.9991    2.6356   -0.4622 C   0  0  0  0  0  0  0  0  0  0  0  0
   -0.2548    2.1448   -1.3324 C   0  0  0  0  0  0  0  0  0  0  0  0
    0.8568    1.3193   -1.2923 C   0  0  0  0  0  0  0  0  0  0  0  0
    1.2176    0.6199   -2.4002 O   0  0  0  0  0  0  0  0  0  0  0  0
    2.0112    1.9680    2.1142 O   0  0  0  0  0  0  0  0  0  0  0  0
    4.2531    2.1630    0.4446 O   0  0  0  0  0  0  0  0  0  0  0  0
    6.0699   -2.2092    0.0937 O   0  0  0  0  0  0  0  0  0  0  0  0
   -5.9807    2.4154    0.3489 H   0  0  0  0  0  0  0  0  0  0  0  0
   -4.7068    1.5955    1.2837 H   0  0  0  0  0  0  0  0  0  0  0  0
   -6.0957    0.7134   -1.2468 H   0  0  0  0  0  0  0  0  0  0  0  0
   -4.4214    0.1811   -0.9516 H   0  0  0  0  0  0  0  0  0  0  0  0
   -5.3091   -0.4367    1.4433 H   0  0  0  0  0  0  0  0  0  0  0  0
   -6.9141   -0.3745    0.6769 H   0  0  0  0  0  0  0  0  0  0  0  0
   -6.5132   -2.5248    0.0540 H   0  0  0  0  0  0  0  0  0  0  0  0
   -5.4115   -1.8276   -1.1578 H   0  0  0  0  0  0  0  0  0  0  0  0
   -4.2364   -2.3599    1.6366 H   0  0  0  0  0  0  0  0  0  0  0  0
   -3.9093   -3.6006   -1.1216 H   0  0  0  0  0  0  0  0  0  0  0  0
   -2.4277   -3.6962    1.6111 H   0  0  0  0  0  0  0  0  0  0  0  0
   -2.6603   -5.1383    0.5947 H   0  0  0  0  0  0  0  0  0  0  0  0
   -0.8062   -4.6407   -0.5775 H   0  0  0  0  0  0  0  0  0  0  0  0
   -1.4826   -3.0545   -1.0073 H   0  0  0  0  0  0  0  0  0  0  0  0
   -0.5705   -2.0383    0.9812 H   0  0  0  0  0  0  0  0  0  0  0  0
   -0.1141   -3.6230    1.6502 H   0  0  0  0  0  0  0  0  0  0  0  0
    1.9249   -3.0891    0.7557 H   0  0  0  0  0  0  0  0  0  0  0  0
    1.1936   -3.7440   -0.7260 H   0  0  0  0  0  0  0  0  0  0  0  0
    1.1949   -1.7256   -1.7378 H   0  0  0  0  0  0  0  0  0  0  0  0
    0.5105   -0.9208   -0.3029 H   0  0  0  0  0  0  0  0  0  0  0  0
    3.6172   -2.9293   -0.4846 H   0  0  0  0  0  0  0  0  0  0  0  0
    6.1321    0.3648    0.5278 H   0  0  0  0  0  0  0  0  0  0  0  0
   -0.0978    3.4466    1.7745 H   0  0  0  0  0  0  0  0  0  0  0  0
   -1.5594    4.7610    0.1887 H   0  0  0  0  0  0  0  0  0  0  0  0
   -2.1235    3.9572   -1.2968 H   0  0  0  0  0  0  0  0  0  0  0  0
   -2.5582    2.3121    1.1073 H   0  0  0  0  0  0  0  0  0  0  0  0
   -3.4006    3.8798    1.1923 H   0  0  0  0  0  0  0  0  0  0  0  0
   -3.5183    2.0024   -1.2071 H   0  0  0  0  0  0  0  0  0  0  0  0
   -4.4701    3.4832   -0.9599 H   0  0  0  0  0  0  0  0  0  0  0  0
   -0.8537    2.1955   -2.2307 H   0  0  0  0  0  0  0  0  0  0  0  0
    1.8315    1.0910   -2.9801 H   0  0  0  0  0  0  0  0  0  0  0  0
    2.7374    2.6061    2.1383 H   0  0  0  0  0  0  0  0  0  0  0  0
    4.4559    2.6738   -0.3510 H   0  0  0  0  0  0  0  0  0  0  0  0
    6.5380   -2.3123   -0.7461 H   0  0  0  0  0  0  0  0  0  0  0  0
  1  2  1  0  0  0  0
  2  3  1  0  0  0  0
  3  4  1  0  0  0  0
  4  5  1  0  0  0  0
  5  6  2  0  0  0  0
  6  7  1  0  0  0  0
  7  8  1  0  0  0  0
  8  9  1  0  0  0  0
  9 10  1  0  0  0  0
 10 11  1  0  0  0  0
 11 12  1  0  0  0  0
 12 13  2  0  0  0  0
 13 14  1  0  0  0  0
 14 15  2  0  0  0  0
 15 16  1  0  0  0  0
 16 17  2  0  0  0  0
 12 17  1  0  0  0  0
 17 18  1  0  0  0  0
 18 19  2  0  0  0  0
 19 20  1  0  0  0  0
 20 21  2  0  0  0  0
 21 22  1  0  0  0  0
 22 23  1  0  0  0  0
 23 24  1  0  0  0  0
  1 24  1  0  0  0  0
 21 25  1  0  0  0  0
 25 26  2  0  0  0  0
 18 26  1  0  0  0  0
 26 27  1  0  0  0  0
 19 28  1  0  0  0  0
 16 29  1  0  0  0  0
 14 30  1  0  0  0  0
  1 31  1  0  0  0  0
  1 32  1  0  0  0  0
  2 33  1  0  0  0  0
  2 34  1  0  0  0  0
  3 35  1  0  0  0  0
  3 36  1  0  0  0  0
  4 37  1  0  0  0  0
  4 38  1  0  0  0  0
  5 39  1  0  0  0  0
  6 40  1  0  0  0  0
  7 41  1  0  0  0  0
  7 42  1  0  0  0  0
  8 43  1  0  0  0  0
  8 44  1  0  0  0  0
  9 45  1  0  0  0  0
  9 46  1  0  0  0  0
 10 47  1  0  0  0  0
 10 48  1  0  0  0  0
 11 49  1  0  0  0  0
 11 50  1  0  0  0  0
 13 51  1  0  0  0  0
 15 52  1  0  0  0  0
 20 53  1  0  0  0  0
 22 54  1  0  0  0  0
 22 55  1  0  0  0  0
 23 56  1  0  0  0  0
 23 57  1  0  0  0  0
 24 58  1  0  0  0  0
 24 59  1  0  0  0  0
 25 60  1  0  0  0  0
 27 61  1  0  0  0  0
 28 62  1  0  0  0  0
 29 63  1  0  0  0  0
 30 64  1  0  0  0  0
M  END
$$$$
