C15H10O4
APtclcactv06291802523D 0   0.00000     0.00000
 
 29 31  0  0  0  0  0  0  0  0999 V2000
   -4.4296    1.0852    0.3513 C   0  0  0  0  0  0  0  0  0  0  0  0
   -4.6058   -0.2859    0.3660 C   0  0  0  0  0  0  0  0  0  0  0  0
   -3.5267   -1.1342    0.1829 C   0  0  0  0  0  0  0  0  0  0  0  0
   -2.2568   -0.6040   -0.0166 C   0  0  0  0  0  0  0  0  0  0  0  0
   -2.0776    0.7920   -0.0317 C   0  0  0  0  0  0  0  0  0  0  0  0
   -3.1717    1.6295    0.1533 C   0  0  0  0  0  0  0  0  0  0  0  0
   -0.7257    1.3549   -0.2435 C   0  0  0  0  0  0  0  0  0  0  0  0
   -0.5850    2.5329   -0.5077 O   0  0  0  0  0  0  0  0  0  0  0  0
    0.4508    0.4694   -0.1297 C   0  0  0  0  0  0  0  0  0  0  0  0
    1.7326    1.0052   -0.0362 C   0  0  0  0  0  0  0  0  0  0  0  0
    2.8244    0.1649    0.0705 C   0  0  0  0  0  0  0  0  0  0  0  0
    2.6523   -1.2127    0.0849 C   0  0  0  0  0  0  0  0  0  0  0  0
    1.3769   -1.7628   -0.0078 C   0  0  0  0  0  0  0  0  0  0  0  0
    0.2728   -0.9281   -0.1148 C   0  0  0  0  0  0  0  0  0  0  0  0
   -1.0913   -1.4937   -0.2122 C   0  0  0  0  0  0  0  0  0  0  0  0
   -1.2519   -2.6744   -0.4495 O   0  0  0  0  0  0  0  0  0  0  0  0
    3.7329   -2.0271    0.1894 O   0  0  0  0  0  0  0  0  0  0  0  0
    4.2106    0.7474    0.1713 C   0  0  0  0  0  0  0  0  0  0  0  0
    4.1317    2.1738    0.1349 O   0  0  0  0  0  0  0  0  0  0  0  0
   -5.2797    1.7366    0.4909 H   0  0  0  0  0  0  0  0  0  0  0  0
   -5.5917   -0.6982    0.5216 H   0  0  0  0  0  0  0  0  0  0  0  0
   -3.6709   -2.2045    0.1954 H   0  0  0  0  0  0  0  0  0  0  0  0
   -3.0410    2.7015    0.1422 H   0  0  0  0  0  0  0  0  0  0  0  0
    1.8734    2.0760   -0.0474 H   0  0  0  0  0  0  0  0  0  0  0  0
    1.2468   -2.8349    0.0032 H   0  0  0  0  0  0  0  0  0  0  0  0
    3.9745   -2.2450    1.1001 H   0  0  0  0  0  0  0  0  0  0  0  0
    4.6697    0.4327    1.1085 H   0  0  0  0  0  0  0  0  0  0  0  0
    4.8144    0.3955   -0.6652 H   0  0  0  0  0  0  0  0  0  0  0  0
    4.9891    2.6168    0.1956 H   0  0  0  0  0  0  0  0  0  0  0  0
  1  2  2  0  0  0  0
  2  3  1  0  0  0  0
  3  4  2  0  0  0  0
  4  5  1  0  0  0  0
  5  6  2  0  0  0  0
  1  6  1  0  0  0  0
  5  7  1  0  0  0  0
  7  8  2  0  0  0  0
  7  9  1  0  0  0  0
  9 10  2  0  0  0  0
 10 11  1  0  0  0  0
 11 12  2  0  0  0  0
 12 13  1  0  0  0  0
 13 14  2  0  0  0  0
  9 14  1  0  0  0  0
 14 15  1  0  0  0  0
  4 15  1  0  0  0  0
 15 16  2  0  0  0  0
 12 17  1  0  0  0  0
 11 18  1  0  0  0  0
 18 19  1  0  0  0  0
  1 20  1  0  0  0  0
  2 21  1  0  0  0  0
  3 22  1  0  0  0  0
  6 23  1  0  0  0  0
 10 24  1  0  0  0  0
 13 25  1  0  0  0  0
 17 26  1  0  0  0  0
 18 27  1  0  0  0  0
 18 28  1  0  0  0  0
 19 29  1  0  0  0  0
M  END
$$$$
