C19H16O5
APtclcactv06291802523D 0   0.00000     0.00000
 
 40 42  0  0  0  0  0  0  0  0999 V2000
   -4.1481   -0.1101   -2.5247 C   0  0  0  0  0  0  0  0  0  0  0  0
   -4.3592    0.7595   -1.4105 O   0  0  0  0  0  0  0  0  0  0  0  0
   -3.3955    0.7787   -0.4511 C   0  0  0  0  0  0  0  0  0  0  0  0
   -3.5376    1.6042    0.6627 C   0  0  0  0  0  0  0  0  0  0  0  0
   -2.5561    1.6263    1.6437 C   0  0  0  0  0  0  0  0  0  0  0  0
   -1.4362    0.8319    1.5207 C   0  0  0  0  0  0  0  0  0  0  0  0
   -1.2874    0.0021    0.4067 C   0  0  0  0  0  0  0  0  0  0  0  0
   -2.2781   -0.0244   -0.5779 C   0  0  0  0  0  0  0  0  0  0  0  0
   -0.0882   -0.8498    0.2732 C   0  0  0  0  0  0  0  0  0  0  0  0
   -0.2038   -2.2475    0.2979 C   0  0  0  0  0  0  0  0  0  0  0  0
    0.9422   -3.0564    0.1703 C   0  0  0  0  0  0  0  0  0  0  0  0
    2.1717   -2.5048    0.0216 C   0  0  0  0  0  0  0  0  0  0  0  0
    2.3266   -1.1041   -0.0081 C   0  0  0  0  0  0  0  0  0  0  0  0
    3.5957   -0.5249   -0.1611 C   0  0  0  0  0  0  0  0  0  0  0  0
    3.7205    0.8453   -0.1867 C   0  0  0  0  0  0  0  0  0  0  0  0
    2.5919    1.6683   -0.0609 C   0  0  0  0  0  0  0  0  0  0  0  0
    1.3476    1.1274    0.0889 C   0  0  0  0  0  0  0  0  0  0  0  0
    1.1896   -0.2666    0.1131 C   0  0  0  0  0  0  0  0  0  0  0  0
    2.7387    3.0195   -0.0881 O   0  0  0  0  0  0  0  0  0  0  0  0
    4.9490    1.4063   -0.3348 O   0  0  0  0  0  0  0  0  0  0  0  0
    6.0589    0.5146   -0.4573 C   0  0  0  0  0  0  0  0  0  0  0  0
   -1.5212   -2.8683    0.4575 C   0  0  0  0  0  0  0  0  0  0  0  0
   -1.6237   -4.0772    0.4792 O   0  0  0  0  0  0  0  0  0  0  0  0
   -4.6394    2.3895    0.7884 O   0  0  0  0  0  0  0  0  0  0  0  0
   -3.2294    0.1735   -3.0380 H   0  0  0  0  0  0  0  0  0  0  0  0
   -4.0649   -1.1383   -2.1724 H   0  0  0  0  0  0  0  0  0  0  0  0
   -4.9891   -0.0289   -3.2134 H   0  0  0  0  0  0  0  0  0  0  0  0
   -2.6697    2.2676    2.5052 H   0  0  0  0  0  0  0  0  0  0  0  0
   -0.6737    0.8512    2.2853 H   0  0  0  0  0  0  0  0  0  0  0  0
   -2.1668   -0.6646   -1.4406 H   0  0  0  0  0  0  0  0  0  0  0  0
    0.8400   -4.1313    0.1915 H   0  0  0  0  0  0  0  0  0  0  0  0
    3.0379   -3.1427   -0.0743 H   0  0  0  0  0  0  0  0  0  0  0  0
    4.4701   -1.1514   -0.2579 H   0  0  0  0  0  0  0  0  0  0  0  0
    0.4858    1.7712    0.1848 H   0  0  0  0  0  0  0  0  0  0  0  0
    2.6787    3.4039   -0.9733 H   0  0  0  0  0  0  0  0  0  0  0  0
    6.1263   -0.1065    0.4359 H   0  0  0  0  0  0  0  0  0  0  0  0
    5.9197   -0.1207   -1.3320 H   0  0  0  0  0  0  0  0  0  0  0  0
    6.9773    1.0909   -0.5693 H   0  0  0  0  0  0  0  0  0  0  0  0
   -2.4012   -2.2499    0.5559 H   0  0  0  0  0  0  0  0  0  0  0  0
   -5.3733    1.9659    1.2542 H   0  0  0  0  0  0  0  0  0  0  0  0
  1  2  1  0  0  0  0
  2  3  1  0  0  0  0
  3  4  2  0  0  0  0
  4  5  1  0  0  0  0
  5  6  2  0  0  0  0
  6  7  1  0  0  0  0
  7  8  2  0  0  0  0
  3  8  1  0  0  0  0
  7  9  1  0  0  0  0
  9 10  2  0  0  0  0
 10 11  1  0  0  0  0
 11 12  2  0  0  0  0
 12 13  1  0  0  0  0
 13 14  2  0  0  0  0
 14 15  1  0  0  0  0
 15 16  2  0  0  0  0
 16 17  1  0  0  0  0
 17 18  2  0  0  0  0
 13 18  1  0  0  0  0
  9 18  1  0  0  0  0
 16 19  1  0  0  0  0
 15 20  1  0  0  0  0
 20 21  1  0  0  0  0
 10 22  1  0  0  0  0
 22 23  2  0  0  0  0
  4 24  1  0  0  0  0
  1 25  1  0  0  0  0
  1 26  1  0  0  0  0
  1 27  1  0  0  0  0
  5 28  1  0  0  0  0
  6 29  1  0  0  0  0
  8 30  1  0  0  0  0
 11 31  1  0  0  0  0
 12 32  1  0  0  0  0
 14 33  1  0  0  0  0
 17 34  1  0  0  0  0
 19 35  1  0  0  0  0
 21 36  1  0  0  0  0
 21 37  1  0  0  0  0
 21 38  1  0  0  0  0
 22 39  1  0  0  0  0
 24 40  1  0  0  0  0
M  END
$$$$
