C20H32O2
APtclcactv06211806553D 0   0.00000     0.00000
 
 54 53  0  0  0  0  0  0  0  0999 V2000
   11.1898    1.5532   -0.1706 C   0  0  0  0  0  0  0  0  0  0  0  0
   10.0563    0.7281    0.4418 C   0  0  0  0  0  0  0  0  0  0  0  0
    9.0204    0.4048   -0.6368 C   0  0  0  0  0  0  0  0  0  0  0  0
    7.8869   -0.4203   -0.0243 C   0  0  0  0  0  0  0  0  0  0  0  0
    6.8510   -0.7436   -1.1030 C   0  0  0  0  0  0  0  0  0  0  0  0
    5.7345   -1.5563   -0.4997 C   0  0  0  0  0  0  0  0  0  0  0  0
    4.4943   -1.1493   -0.6106 C   0  0  0  0  0  0  0  0  0  0  0  0
    3.3777   -1.9620   -0.0074 C   0  0  0  0  0  0  0  0  0  0  0  0
    2.5690   -1.0932    0.9212 C   0  0  0  0  0  0  0  0  0  0  0  0
    1.2746   -0.9822    0.7530 C   0  0  0  0  0  0  0  0  0  0  0  0
    0.4659   -0.1134    1.6815 C   0  0  0  0  0  0  0  0  0  0  0  0
   -0.3113    0.8955    0.8759 C   0  0  0  0  0  0  0  0  0  0  0  0
   -1.6113    0.9819    1.0130 C   0  0  0  0  0  0  0  0  0  0  0  0
   -2.3885    1.9908    0.2073 C   0  0  0  0  0  0  0  0  0  0  0  0
   -3.4802    1.2886   -0.5583 C   0  0  0  0  0  0  0  0  0  0  0  0
   -4.7248    1.6762   -0.4283 C   0  0  0  0  0  0  0  0  0  0  0  0
   -5.8165    0.9740   -1.1940 C   0  0  0  0  0  0  0  0  0  0  0  0
   -6.8896    0.4849   -0.2192 C   0  0  0  0  0  0  0  0  0  0  0  0
   -7.9980   -0.2280   -0.9965 C   0  0  0  0  0  0  0  0  0  0  0  0
   -9.0549   -0.7098   -0.0364 C   0  0  0  0  0  0  0  0  0  0  0  0
   -8.9340   -0.5041    1.1481 O   0  0  0  0  0  0  0  0  0  0  0  0
  -10.1305   -1.3674   -0.4971 O   0  0  0  0  0  0  0  0  0  0  0  0
   11.9278    1.7835    0.5978 H   0  0  0  0  0  0  0  0  0  0  0  0
   11.6634    0.9830   -0.9699 H   0  0  0  0  0  0  0  0  0  0  0  0
   10.7859    2.4808   -0.5761 H   0  0  0  0  0  0  0  0  0  0  0  0
   10.4602   -0.1996    0.8474 H   0  0  0  0  0  0  0  0  0  0  0  0
    9.5827    1.2982    1.2411 H   0  0  0  0  0  0  0  0  0  0  0  0
    8.6165    1.3324   -1.0423 H   0  0  0  0  0  0  0  0  0  0  0  0
    9.4940   -0.1654   -1.4360 H   0  0  0  0  0  0  0  0  0  0  0  0
    8.2908   -1.3480    0.3812 H   0  0  0  0  0  0  0  0  0  0  0  0
    7.4133    0.1498    0.7749 H   0  0  0  0  0  0  0  0  0  0  0  0
    6.4471    0.1840   -1.5085 H   0  0  0  0  0  0  0  0  0  0  0  0
    7.3246   -1.3137   -1.9022 H   0  0  0  0  0  0  0  0  0  0  0  0
    5.9568   -2.4743    0.0240 H   0  0  0  0  0  0  0  0  0  0  0  0
    4.2720   -0.2314   -1.1344 H   0  0  0  0  0  0  0  0  0  0  0  0
    2.7349   -2.3420   -0.8014 H   0  0  0  0  0  0  0  0  0  0  0  0
    3.7979   -2.7983    0.5513 H   0  0  0  0  0  0  0  0  0  0  0  0
    3.0566   -0.5621    1.7253 H   0  0  0  0  0  0  0  0  0  0  0  0
    0.7871   -1.5133   -0.0511 H   0  0  0  0  0  0  0  0  0  0  0  0
   -0.2258   -0.7348    2.2503 H   0  0  0  0  0  0  0  0  0  0  0  0
    1.1349    0.4067    2.3672 H   0  0  0  0  0  0  0  0  0  0  0  0
    0.2034    1.5473    0.1855 H   0  0  0  0  0  0  0  0  0  0  0  0
   -2.1260    0.3300    1.7033 H   0  0  0  0  0  0  0  0  0  0  0  0
   -2.8310    2.7278    0.8775 H   0  0  0  0  0  0  0  0  0  0  0  0
   -1.7186    2.4913   -0.4918 H   0  0  0  0  0  0  0  0  0  0  0  0
   -3.2365    0.4660   -1.2143 H   0  0  0  0  0  0  0  0  0  0  0  0
   -4.9685    2.4988    0.2276 H   0  0  0  0  0  0  0  0  0  0  0  0
   -6.2627    1.6664   -1.9079 H   0  0  0  0  0  0  0  0  0  0  0  0
   -5.3956    0.1223   -1.7283 H   0  0  0  0  0  0  0  0  0  0  0  0
   -6.4435   -0.2075    0.4948 H   0  0  0  0  0  0  0  0  0  0  0  0
   -7.3105    1.3366    0.3151 H   0  0  0  0  0  0  0  0  0  0  0  0
   -8.4441    0.4644   -1.7105 H   0  0  0  0  0  0  0  0  0  0  0  0
   -7.5770   -1.0797   -1.5308 H   0  0  0  0  0  0  0  0  0  0  0  0
  -10.7815   -1.6568    0.1568 H   0  0  0  0  0  0  0  0  0  0  0  0
  1  2  1  0  0  0  0
  2  3  1  0  0  0  0
  3  4  1  0  0  0  0
  4  5  1  0  0  0  0
  5  6  1  0  0  0  0
  6  7  2  0  0  0  0
  7  8  1  0  0  0  0
  8  9  1  0  0  0  0
  9 10  2  0  0  0  0
 10 11  1  0  0  0  0
 11 12  1  0  0  0  0
 12 13  2  0  0  0  0
 13 14  1  0  0  0  0
 14 15  1  0  0  0  0
 15 16  2  0  0  0  0
 16 17  1  0  0  0  0
 17 18  1  0  0  0  0
 18 19  1  0  0  0  0
 19 20  1  0  0  0  0
 20 21  2  0  0  0  0
 20 22  1  0  0  0  0
  1 23  1  0  0  0  0
  1 24  1  0  0  0  0
  1 25  1  0  0  0  0
  2 26  1  0  0  0  0
  2 27  1  0  0  0  0
  3 28  1  0  0  0  0
  3 29  1  0  0  0  0
  4 30  1  0  0  0  0
  4 31  1  0  0  0  0
  5 32  1  0  0  0  0
  5 33  1  0  0  0  0
  6 34  1  0  0  0  0
  7 35  1  0  0  0  0
  8 36  1  0  0  0  0
  8 37  1  0  0  0  0
  9 38  1  0  0  0  0
 10 39  1  0  0  0  0
 11 40  1  0  0  0  0
 11 41  1  0  0  0  0
 12 42  1  0  0  0  0
 13 43  1  0  0  0  0
 14 44  1  0  0  0  0
 14 45  1  0  0  0  0
 15 46  1  0  0  0  0
 16 47  1  0  0  0  0
 17 48  1  0  0  0  0
 17 49  1  0  0  0  0
 18 50  1  0  0  0  0
 18 51  1  0  0  0  0
 19 52  1  0  0  0  0
 19 53  1  0  0  0  0
 22 54  1  0  0  0  0
M  END
$$$$
