C4H4O4
APtclcactv06221813183D 0   0.00000     0.00000
 
 12 11  0  0  0  0  0  0  0  0999 V2000
    0.5096   -0.4374   -0.0001 C   0  0  0  0  0  0  0  0  0  0  0  0
   -0.5096    0.4374   -0.0000 C   0  0  0  0  0  0  0  0  0  0  0  0
   -1.9018   -0.0518   -0.0000 C   0  0  0  0  0  0  0  0  0  0  0  0
   -2.1260   -1.2454   -0.0001 O   0  0  0  0  0  0  0  0  0  0  0  0
   -2.9243    0.8258    0.0000 O   0  0  0  0  0  0  0  0  0  0  0  0
    1.9018    0.0518   -0.0000 C   0  0  0  0  0  0  0  0  0  0  0  0
    2.1260    1.2454    0.0001 O   0  0  0  0  0  0  0  0  0  0  0  0
    2.9243   -0.8258   -0.0001 O   0  0  0  0  0  0  0  0  0  0  0  0
    0.3101   -1.4988    0.0043 H   0  0  0  0  0  0  0  0  0  0  0  0
   -0.3101    1.4988    0.0001 H   0  0  0  0  0  0  0  0  0  0  0  0
   -3.8186    0.4580    0.0000 H   0  0  0  0  0  0  0  0  0  0  0  0
    3.8186   -0.4580   -0.0001 H   0  0  0  0  0  0  0  0  0  0  0  0
  1  2  2  0  0  0  0
  2  3  1  0  0  0  0
  3  4  2  0  0  0  0
  3  5  1  0  0  0  0
  1  6  1  0  0  0  0
  6  7  2  0  0  0  0
  6  8  1  0  0  0  0
  1  9  1  0  0  0  0
  2 10  1  0  0  0  0
  5 11  1  0  0  0  0
  8 12  1  0  0  0  0
M  END
$$$$
