C24H26O4
APtclcactv06291802523D 0   0.00000     0.00000
 
 54 56  0  0  0  0  0  0  0  0999 V2000
   -3.9804   -2.2642   -2.4832 C   0  0  0  0  0  0  0  0  0  0  0  0
   -4.5495   -3.2077   -1.4551 C   0  0  0  0  0  0  0  0  0  0  0  0
   -4.1505   -3.1371   -0.2093 C   0  0  0  0  0  0  0  0  0  0  0  0
   -3.1223   -2.1124    0.1956 C   0  0  0  0  0  0  0  0  0  0  0  0
   -3.6717   -1.2655    1.3453 C   0  0  0  0  0  0  0  0  0  0  0  0
   -2.6435   -0.2408    1.7502 C   0  0  0  0  0  0  0  0  0  0  0  0
   -2.6923    0.9691    1.2502 C   0  0  0  0  0  0  0  0  0  0  0  0
   -1.7219    2.0200    1.7245 C   0  0  0  0  0  0  0  0  0  0  0  0
   -1.0059    2.6142    0.5391 C   0  0  0  0  0  0  0  0  0  0  0  0
   -1.5303    3.7206   -0.1051 C   0  0  0  0  0  0  0  0  0  0  0  0
   -0.8774    4.2779   -1.2014 C   0  0  0  0  0  0  0  0  0  0  0  0
    0.2924    3.7381   -1.6562 C   0  0  0  0  0  0  0  0  0  0  0  0
    0.8354    2.6216   -1.0178 C   0  0  0  0  0  0  0  0  0  0  0  0
    0.1851    2.0562    0.0937 C   0  0  0  0  0  0  0  0  0  0  0  0
    0.9226    1.0043    0.5039 O   0  0  0  0  0  0  0  0  0  0  0  0
    2.0136    0.8504   -0.2730 C   0  0  0  0  0  0  0  0  0  0  0  0
    2.0358    1.8087   -1.2293 C   0  0  0  0  0  0  0  0  0  0  0  0
    3.0357   -0.2037   -0.1028 C   0  0  0  0  0  0  0  0  0  0  0  0
    2.9116   -1.1392    0.9250 C   0  0  0  0  0  0  0  0  0  0  0  0
    3.8713   -2.1256    1.0806 C   0  0  0  0  0  0  0  0  0  0  0  0
    4.9550   -2.1843    0.2162 C   0  0  0  0  0  0  0  0  0  0  0  0
    5.0825   -1.2558   -0.8069 C   0  0  0  0  0  0  0  0  0  0  0  0
    4.1243   -0.2697   -0.9731 C   0  0  0  0  0  0  0  0  0  0  0  0
    6.1462   -1.3176   -1.6506 O   0  0  0  0  0  0  0  0  0  0  0  0
    3.7516   -3.0369    2.0817 O   0  0  0  0  0  0  0  0  0  0  0  0
   -2.6934    4.2682    0.3358 O   0  0  0  0  0  0  0  0  0  0  0  0
   -1.5593   -0.6079    2.7304 C   0  0  0  0  0  0  0  0  0  0  0  0
   -5.5777   -4.2324   -1.8600 C   0  0  0  0  0  0  0  0  0  0  0  0
   -2.9009   -2.4017   -2.5443 H   0  0  0  0  0  0  0  0  0  0  0  0
   -4.4288   -2.4721   -3.4547 H   0  0  0  0  0  0  0  0  0  0  0  0
   -4.2000   -1.2364   -2.1942 H   0  0  0  0  0  0  0  0  0  0  0  0
   -4.5583   -3.8133    0.5275 H   0  0  0  0  0  0  0  0  0  0  0  0
   -2.2129   -2.6186    0.5196 H   0  0  0  0  0  0  0  0  0  0  0  0
   -2.8966   -1.4686   -0.6544 H   0  0  0  0  0  0  0  0  0  0  0  0
   -4.5811   -0.7593    1.0214 H   0  0  0  0  0  0  0  0  0  0  0  0
   -3.8973   -1.9093    2.1953 H   0  0  0  0  0  0  0  0  0  0  0  0
   -3.4279    1.2133    0.4981 H   0  0  0  0  0  0  0  0  0  0  0  0
   -2.2650    2.8045    2.2516 H   0  0  0  0  0  0  0  0  0  0  0  0
   -0.9950    1.5660    2.3979 H   0  0  0  0  0  0  0  0  0  0  0  0
   -1.2981    5.1414   -1.6951 H   0  0  0  0  0  0  0  0  0  0  0  0
    0.7952    4.1734   -2.5071 H   0  0  0  0  0  0  0  0  0  0  0  0
    2.7839    1.9429   -1.9965 H   0  0  0  0  0  0  0  0  0  0  0  0
    2.0685   -1.0939    1.5985 H   0  0  0  0  0  0  0  0  0  0  0  0
    5.7016   -2.9547    0.3403 H   0  0  0  0  0  0  0  0  0  0  0  0
    4.2241    0.4525   -1.7700 H   0  0  0  0  0  0  0  0  0  0  0  0
    5.9963   -1.8657   -2.4330 H   0  0  0  0  0  0  0  0  0  0  0  0
    3.2589   -3.8311    1.8336 H   0  0  0  0  0  0  0  0  0  0  0  0
   -2.5754    4.9570    1.0042 H   0  0  0  0  0  0  0  0  0  0  0  0
   -0.6625   -0.9039    2.1861 H   0  0  0  0  0  0  0  0  0  0  0  0
   -1.3340    0.2516    3.3617 H   0  0  0  0  0  0  0  0  0  0  0  0
   -1.8971   -1.4369    3.3522 H   0  0  0  0  0  0  0  0  0  0  0  0
   -5.0755   -5.1521   -2.1598 H   0  0  0  0  0  0  0  0  0  0  0  0
   -6.2381   -4.4370   -1.0174 H   0  0  0  0  0  0  0  0  0  0  0  0
   -6.1631   -3.8490   -2.6957 H   0  0  0  0  0  0  0  0  0  0  0  0
  1  2  1  0  0  0  0
  2  3  2  0  0  0  0
  3  4  1  0  0  0  0
  4  5  1  0  0  0  0
  5  6  1  0  0  0  0
  6  7  2  0  0  0  0
  7  8  1  0  0  0  0
  8  9  1  0  0  0  0
  9 10  2  0  0  0  0
 10 11  1  0  0  0  0
 11 12  2  0  0  0  0
 12 13  1  0  0  0  0
 13 14  2  0  0  0  0
  9 14  1  0  0  0  0
 14 15  1  0  0  0  0
 15 16  1  0  0  0  0
 16 17  2  0  0  0  0
 13 17  1  0  0  0  0
 16 18  1  0  0  0  0
 18 19  2  0  0  0  0
 19 20  1  0  0  0  0
 20 21  2  0  0  0  0
 21 22  1  0  0  0  0
 22 23  2  0  0  0  0
 18 23  1  0  0  0  0
 22 24  1  0  0  0  0
 20 25  1  0  0  0  0
 10 26  1  0  0  0  0
  6 27  1  0  0  0  0
  2 28  1  0  0  0  0
  1 29  1  0  0  0  0
  1 30  1  0  0  0  0
  1 31  1  0  0  0  0
  3 32  1  0  0  0  0
  4 33  1  0  0  0  0
  4 34  1  0  0  0  0
  5 35  1  0  0  0  0
  5 36  1  0  0  0  0
  7 37  1  0  0  0  0
  8 38  1  0  0  0  0
  8 39  1  0  0  0  0
 11 40  1  0  0  0  0
 12 41  1  0  0  0  0
 17 42  1  0  0  0  0
 19 43  1  0  0  0  0
 21 44  1  0  0  0  0
 23 45  1  0  0  0  0
 24 46  1  0  0  0  0
 25 47  1  0  0  0  0
 26 48  1  0  0  0  0
 27 49  1  0  0  0  0
 27 50  1  0  0  0  0
 27 51  1  0  0  0  0
 28 52  1  0  0  0  0
 28 53  1  0  0  0  0
 28 54  1  0  0  0  0
M  END
$$$$
