C18H34O2
APtclcactv06221815483D 0   0.00000     0.00000
 
 54 53  0  0  0  0  0  0  0  0999 V2000
  -10.1399    3.0348   -0.2878 C   0  0  0  0  0  0  0  0  0  0  0  0
   -9.4318    1.8192    0.3136 C   0  0  0  0  0  0  0  0  0  0  0  0
   -8.0361    1.6872   -0.2991 C   0  0  0  0  0  0  0  0  0  0  0  0
   -7.3279    0.4716    0.3022 C   0  0  0  0  0  0  0  0  0  0  0  0
   -5.9322    0.3396   -0.3105 C   0  0  0  0  0  0  0  0  0  0  0  0
   -5.2241   -0.8761    0.2909 C   0  0  0  0  0  0  0  0  0  0  0  0
   -3.8283   -1.0080   -0.3219 C   0  0  0  0  0  0  0  0  0  0  0  0
   -3.1202   -2.2237    0.2795 C   0  0  0  0  0  0  0  0  0  0  0  0
   -1.7455   -2.3537   -0.3240 C   0  0  0  0  0  0  0  0  0  0  0  0
   -0.6913   -2.4026    0.4522 C   0  0  0  0  0  0  0  0  0  0  0  0
    0.6834   -2.5325   -0.1514 C   0  0  0  0  0  0  0  0  0  0  0  0
    1.5718   -1.3938    0.3535 C   0  0  0  0  0  0  0  0  0  0  0  0
    2.9675   -1.5258   -0.2592 C   0  0  0  0  0  0  0  0  0  0  0  0
    3.8559   -0.3870    0.2457 C   0  0  0  0  0  0  0  0  0  0  0  0
    5.2516   -0.5190   -0.3670 C   0  0  0  0  0  0  0  0  0  0  0  0
    6.1400    0.6198    0.1379 C   0  0  0  0  0  0  0  0  0  0  0  0
    7.5358    0.4878   -0.4749 C   0  0  0  0  0  0  0  0  0  0  0  0
    8.4108    1.6094    0.0224 C   0  0  0  0  0  0  0  0  0  0  0  0
    7.9639    2.4301    0.7884 O   0  0  0  0  0  0  0  0  0  0  0  0
    9.6866    1.6967   -0.3855 O   0  0  0  0  0  0  0  0  0  0  0  0
   -9.5626    3.9343   -0.0737 H   0  0  0  0  0  0  0  0  0  0  0  0
  -10.2274    2.9074   -1.3668 H   0  0  0  0  0  0  0  0  0  0  0  0
  -11.1343    3.1288    0.1488 H   0  0  0  0  0  0  0  0  0  0  0  0
   -9.3443    1.9466    1.3926 H   0  0  0  0  0  0  0  0  0  0  0  0
  -10.0091    0.9197    0.0996 H   0  0  0  0  0  0  0  0  0  0  0  0
   -8.1235    1.5598   -1.3781 H   0  0  0  0  0  0  0  0  0  0  0  0
   -7.4588    2.5867   -0.0851 H   0  0  0  0  0  0  0  0  0  0  0  0
   -7.2405    0.5990    1.3812 H   0  0  0  0  0  0  0  0  0  0  0  0
   -7.9052   -0.4279    0.0882 H   0  0  0  0  0  0  0  0  0  0  0  0
   -6.0196    0.2122   -1.3895 H   0  0  0  0  0  0  0  0  0  0  0  0
   -5.3549    1.2390   -0.0965 H   0  0  0  0  0  0  0  0  0  0  0  0
   -5.1366   -0.7486    1.3699 H   0  0  0  0  0  0  0  0  0  0  0  0
   -5.8014   -1.7755    0.0768 H   0  0  0  0  0  0  0  0  0  0  0  0
   -3.9158   -1.1355   -1.4008 H   0  0  0  0  0  0  0  0  0  0  0  0
   -3.2510   -0.1086   -0.1078 H   0  0  0  0  0  0  0  0  0  0  0  0
   -3.0328   -2.0963    1.3585 H   0  0  0  0  0  0  0  0  0  0  0  0
   -3.6975   -3.1231    0.0655 H   0  0  0  0  0  0  0  0  0  0  0  0
   -1.6293   -2.4065   -1.3965 H   0  0  0  0  0  0  0  0  0  0  0  0
   -0.8075   -2.3497    1.5246 H   0  0  0  0  0  0  0  0  0  0  0  0
    1.1186   -3.4889    0.1387 H   0  0  0  0  0  0  0  0  0  0  0  0
    0.6096   -2.4815   -1.2377 H   0  0  0  0  0  0  0  0  0  0  0  0
    1.1366   -0.4375    0.0635 H   0  0  0  0  0  0  0  0  0  0  0  0
    1.6456   -1.4448    1.4398 H   0  0  0  0  0  0  0  0  0  0  0  0
    3.4027   -2.4821    0.0309 H   0  0  0  0  0  0  0  0  0  0  0  0
    2.8937   -1.4747   -1.3455 H   0  0  0  0  0  0  0  0  0  0  0  0
    3.4207    0.5693   -0.0444 H   0  0  0  0  0  0  0  0  0  0  0  0
    3.9297   -0.4381    1.3320 H   0  0  0  0  0  0  0  0  0  0  0  0
    5.6869   -1.4753   -0.0770 H   0  0  0  0  0  0  0  0  0  0  0  0
    5.1779   -0.4679   -1.4533 H   0  0  0  0  0  0  0  0  0  0  0  0
    5.7048    1.5761   -0.1522 H   0  0  0  0  0  0  0  0  0  0  0  0
    6.2138    0.5687    1.2242 H   0  0  0  0  0  0  0  0  0  0  0  0
    7.9710   -0.4685   -0.1848 H   0  0  0  0  0  0  0  0  0  0  0  0
    7.4620    0.5388   -1.5612 H   0  0  0  0  0  0  0  0  0  0  0  0
   10.2088    2.4334   -0.0394 H   0  0  0  0  0  0  0  0  0  0  0  0
  1  2  1  0  0  0  0
  2  3  1  0  0  0  0
  3  4  1  0  0  0  0
  4  5  1  0  0  0  0
  5  6  1  0  0  0  0
  6  7  1  0  0  0  0
  7  8  1  0  0  0  0
  8  9  1  0  0  0  0
  9 10  2  0  0  0  0
 10 11  1  0  0  0  0
 11 12  1  0  0  0  0
 12 13  1  0  0  0  0
 13 14  1  0  0  0  0
 14 15  1  0  0  0  0
 15 16  1  0  0  0  0
 16 17  1  0  0  0  0
 17 18  1  0  0  0  0
 18 19  2  0  0  0  0
 18 20  1  0  0  0  0
  1 21  1  0  0  0  0
  1 22  1  0  0  0  0
  1 23  1  0  0  0  0
  2 24  1  0  0  0  0
  2 25  1  0  0  0  0
  3 26  1  0  0  0  0
  3 27  1  0  0  0  0
  4 28  1  0  0  0  0
  4 29  1  0  0  0  0
  5 30  1  0  0  0  0
  5 31  1  0  0  0  0
  6 32  1  0  0  0  0
  6 33  1  0  0  0  0
  7 34  1  0  0  0  0
  7 35  1  0  0  0  0
  8 36  1  0  0  0  0
  8 37  1  0  0  0  0
  9 38  1  0  0  0  0
 10 39  1  0  0  0  0
 11 40  1  0  0  0  0
 11 41  1  0  0  0  0
 12 42  1  0  0  0  0
 12 43  1  0  0  0  0
 13 44  1  0  0  0  0
 13 45  1  0  0  0  0
 14 46  1  0  0  0  0
 14 47  1  0  0  0  0
 15 48  1  0  0  0  0
 15 49  1  0  0  0  0
 16 50  1  0  0  0  0
 16 51  1  0  0  0  0
 17 52  1  0  0  0  0
 17 53  1  0  0  0  0
 20 54  1  0  0  0  0
M  END
$$$$
