C16H30O2
APtclcactv06221815483D 0   0.00000     0.00000
 
 48 47  0  0  0  0  0  0  0  0999 V2000
   -8.8850    2.8495   -0.3233 C   0  0  0  0  0  0  0  0  0  0  0  0
   -8.3005    1.5756    0.2900 C   0  0  0  0  0  0  0  0  0  0  0  0
   -6.9247    1.3005   -0.3204 C   0  0  0  0  0  0  0  0  0  0  0  0
   -6.3401    0.0265    0.2930 C   0  0  0  0  0  0  0  0  0  0  0  0
   -4.9644   -0.2485   -0.3174 C   0  0  0  0  0  0  0  0  0  0  0  0
   -4.3798   -1.5225    0.2959 C   0  0  0  0  0  0  0  0  0  0  0  0
   -3.0247   -1.7934   -0.3053 C   0  0  0  0  0  0  0  0  0  0  0  0
   -1.9805   -1.9390    0.4722 C   0  0  0  0  0  0  0  0  0  0  0  0
   -0.6254   -2.2099   -0.1290 C   0  0  0  0  0  0  0  0  0  0  0  0
    0.3713   -1.1598    0.3659 C   0  0  0  0  0  0  0  0  0  0  0  0
    1.7470   -1.4349   -0.2445 C   0  0  0  0  0  0  0  0  0  0  0  0
    2.7437   -0.3848    0.2504 C   0  0  0  0  0  0  0  0  0  0  0  0
    4.1195   -0.6599   -0.3599 C   0  0  0  0  0  0  0  0  0  0  0  0
    5.1162    0.3902    0.1350 C   0  0  0  0  0  0  0  0  0  0  0  0
    6.4919    0.1151   -0.4754 C   0  0  0  0  0  0  0  0  0  0  0  0
    7.4736    1.1494    0.0121 C   0  0  0  0  0  0  0  0  0  0  0  0
    7.1102    2.0174    0.7699 O   0  0  0  0  0  0  0  0  0  0  0  0
    8.7518    1.1063   -0.3956 O   0  0  0  0  0  0  0  0  0  0  0  0
   -8.9848    2.7212   -1.4011 H   0  0  0  0  0  0  0  0  0  0  0  0
   -9.8651    3.0455    0.1115 H   0  0  0  0  0  0  0  0  0  0  0  0
   -8.2216    3.6895   -0.1173 H   0  0  0  0  0  0  0  0  0  0  0  0
   -8.2007    1.7039    1.3678 H   0  0  0  0  0  0  0  0  0  0  0  0
   -8.9639    0.7356    0.0839 H   0  0  0  0  0  0  0  0  0  0  0  0
   -7.0245    1.1722   -1.3982 H   0  0  0  0  0  0  0  0  0  0  0  0
   -6.2613    2.1405   -0.1143 H   0  0  0  0  0  0  0  0  0  0  0  0
   -6.2404    0.1548    1.3708 H   0  0  0  0  0  0  0  0  0  0  0  0
   -7.0035   -0.8134    0.0869 H   0  0  0  0  0  0  0  0  0  0  0  0
   -5.0641   -0.3768   -1.3952 H   0  0  0  0  0  0  0  0  0  0  0  0
   -4.3010    0.5914   -0.1114 H   0  0  0  0  0  0  0  0  0  0  0  0
   -4.2800   -1.3942    1.3737 H   0  0  0  0  0  0  0  0  0  0  0  0
   -5.0432   -2.3625    0.0899 H   0  0  0  0  0  0  0  0  0  0  0  0
   -2.9145   -1.8676   -1.3771 H   0  0  0  0  0  0  0  0  0  0  0  0
   -2.0907   -1.8648    1.5440 H   0  0  0  0  0  0  0  0  0  0  0  0
   -0.2868   -3.2018    0.1704 H   0  0  0  0  0  0  0  0  0  0  0  0
   -0.6939   -2.1620   -1.2158 H   0  0  0  0  0  0  0  0  0  0  0  0
    0.0327   -0.1680    0.0665 H   0  0  0  0  0  0  0  0  0  0  0  0
    0.4398   -1.2077    1.4527 H   0  0  0  0  0  0  0  0  0  0  0  0
    2.0856   -2.4268    0.0549 H   0  0  0  0  0  0  0  0  0  0  0  0
    1.6785   -1.3870   -1.3313 H   0  0  0  0  0  0  0  0  0  0  0  0
    2.4051    0.6070   -0.0489 H   0  0  0  0  0  0  0  0  0  0  0  0
    2.8122   -0.4327    1.3372 H   0  0  0  0  0  0  0  0  0  0  0  0
    4.4581   -1.6518   -0.0605 H   0  0  0  0  0  0  0  0  0  0  0  0
    4.0510   -0.6120   -1.4467 H   0  0  0  0  0  0  0  0  0  0  0  0
    4.7776    1.3820   -0.1644 H   0  0  0  0  0  0  0  0  0  0  0  0
    5.1847    0.3423    1.2218 H   0  0  0  0  0  0  0  0  0  0  0  0
    6.8305   -0.8768   -0.1760 H   0  0  0  0  0  0  0  0  0  0  0  0
    6.4234    0.1630   -1.5622 H   0  0  0  0  0  0  0  0  0  0  0  0
    9.3442    1.7909   -0.0561 H   0  0  0  0  0  0  0  0  0  0  0  0
  1  2  1  0  0  0  0
  2  3  1  0  0  0  0
  3  4  1  0  0  0  0
  4  5  1  0  0  0  0
  5  6  1  0  0  0  0
  6  7  1  0  0  0  0
  7  8  2  0  0  0  0
  8  9  1  0  0  0  0
  9 10  1  0  0  0  0
 10 11  1  0  0  0  0
 11 12  1  0  0  0  0
 12 13  1  0  0  0  0
 13 14  1  0  0  0  0
 14 15  1  0  0  0  0
 15 16  1  0  0  0  0
 16 17  2  0  0  0  0
 16 18  1  0  0  0  0
  1 19  1  0  0  0  0
  1 20  1  0  0  0  0
  1 21  1  0  0  0  0
  2 22  1  0  0  0  0
  2 23  1  0  0  0  0
  3 24  1  0  0  0  0
  3 25  1  0  0  0  0
  4 26  1  0  0  0  0
  4 27  1  0  0  0  0
  5 28  1  0  0  0  0
  5 29  1  0  0  0  0
  6 30  1  0  0  0  0
  6 31  1  0  0  0  0
  7 32  1  0  0  0  0
  8 33  1  0  0  0  0
  9 34  1  0  0  0  0
  9 35  1  0  0  0  0
 10 36  1  0  0  0  0
 10 37  1  0  0  0  0
 11 38  1  0  0  0  0
 11 39  1  0  0  0  0
 12 40  1  0  0  0  0
 12 41  1  0  0  0  0
 13 42  1  0  0  0  0
 13 43  1  0  0  0  0
 14 44  1  0  0  0  0
 14 45  1  0  0  0  0
 15 46  1  0  0  0  0
 15 47  1  0  0  0  0
 18 48  1  0  0  0  0
M  END
$$$$
