C13H12O3
APtclcactv06291802523D 0   0.00000     0.00000
 
 28 29  0  0  0  0  0  0  0  0999 V2000
   -5.6570   -0.5761   -0.6438 C   0  0  0  0  0  0  0  0  0  0  0  0
   -4.9342    0.4033    0.2830 C   0  0  0  0  0  0  0  0  0  0  0  0
   -3.4743    0.0376    0.3602 C   0  0  0  0  0  0  0  0  0  0  0  0
   -2.5450    0.9448    0.0714 C   0  0  0  0  0  0  0  0  0  0  0  0
   -1.1211    0.5880    0.1467 C   0  0  0  0  0  0  0  0  0  0  0  0
   -0.1852    1.5294   -0.1524 C   0  0  0  0  0  0  0  0  0  0  0  0
    1.2277    1.1542   -0.1029 C   0  0  0  0  0  0  0  0  0  0  0  0
    1.5324   -0.2286   -0.0083 C   0  0  0  0  0  0  0  0  0  0  0  0
    2.8627   -0.6471    0.0335 C   0  0  0  0  0  0  0  0  0  0  0  0
    3.8717    0.3033   -0.0110 C   0  0  0  0  0  0  0  0  0  0  0  0
    3.5696    1.6536   -0.0974 C   0  0  0  0  0  0  0  0  0  0  0  0
    2.2605    2.0871   -0.1449 C   0  0  0  0  0  0  0  0  0  0  0  0
    3.1653   -1.9669    0.1171 O   0  0  0  0  0  0  0  0  0  0  0  0
    0.3976   -1.1580    0.0453 C   0  0  0  0  0  0  0  0  0  0  0  0
    0.5055   -2.3163   -0.3123 O   0  0  0  0  0  0  0  0  0  0  0  0
   -0.7750   -0.6650    0.5165 O   0  0  0  0  0  0  0  0  0  0  0  0
   -5.2168   -0.5261   -1.6397 H   0  0  0  0  0  0  0  0  0  0  0  0
   -5.5563   -1.5884   -0.2524 H   0  0  0  0  0  0  0  0  0  0  0  0
   -6.7130   -0.3115   -0.6997 H   0  0  0  0  0  0  0  0  0  0  0  0
   -5.0349    1.4156   -0.1084 H   0  0  0  0  0  0  0  0  0  0  0  0
   -5.3744    0.3534    1.2789 H   0  0  0  0  0  0  0  0  0  0  0  0
   -3.1824   -0.9610    0.6501 H   0  0  0  0  0  0  0  0  0  0  0  0
   -2.8369    1.9434   -0.2184 H   0  0  0  0  0  0  0  0  0  0  0  0
   -0.4797    2.5331   -0.4213 H   0  0  0  0  0  0  0  0  0  0  0  0
    4.9041   -0.0120    0.0224 H   0  0  0  0  0  0  0  0  0  0  0  0
    4.3709    2.3770   -0.1286 H   0  0  0  0  0  0  0  0  0  0  0  0
    2.0386    3.1419   -0.2132 H   0  0  0  0  0  0  0  0  0  0  0  0
    3.2640   -2.4029   -0.7404 H   0  0  0  0  0  0  0  0  0  0  0  0
  1  2  1  0  0  0  0
  2  3  1  0  0  0  0
  3  4  2  0  0  0  0
  4  5  1  0  0  0  0
  5  6  2  0  0  0  0
  6  7  1  0  0  0  0
  7  8  2  0  0  0  0
  8  9  1  0  0  0  0
  9 10  2  0  0  0  0
 10 11  1  0  0  0  0
 11 12  2  0  0  0  0
  7 12  1  0  0  0  0
  9 13  1  0  0  0  0
  8 14  1  0  0  0  0
 14 15  2  0  0  0  0
 14 16  1  0  0  0  0
  5 16  1  0  0  0  0
  1 17  1  0  0  0  0
  1 18  1  0  0  0  0
  1 19  1  0  0  0  0
  2 20  1  0  0  0  0
  2 21  1  0  0  0  0
  3 22  1  0  0  0  0
  4 23  1  0  0  0  0
  6 24  1  0  0  0  0
 10 25  1  0  0  0  0
 11 26  1  0  0  0  0
 12 27  1  0  0  0  0
 13 28  1  0  0  0  0
M  END
$$$$
