C20H20O7
APtclcactv06291802523D 0   0.00000     0.00000
 
 47 49  0  0  0  0  0  0  0  0999 V2000
   -7.0522    0.9561    1.0432 C   0  0  0  0  0  0  0  0  0  0  0  0
   -6.2731   -0.0439    0.3836 O   0  0  0  0  0  0  0  0  0  0  0  0
   -4.9374    0.1821    0.2826 C   0  0  0  0  0  0  0  0  0  0  0  0
   -4.1198   -0.7535   -0.3493 C   0  0  0  0  0  0  0  0  0  0  0  0
   -2.7611   -0.5254   -0.4529 C   0  0  0  0  0  0  0  0  0  0  0  0
   -2.2098    0.6446    0.0769 C   0  0  0  0  0  0  0  0  0  0  0  0
   -3.0355    1.5782    0.7091 C   0  0  0  0  0  0  0  0  0  0  0  0
   -4.3908    1.3467    0.8038 C   0  0  0  0  0  0  0  0  0  0  0  0
   -0.7599    0.8931   -0.0305 C   0  0  0  0  0  0  0  0  0  0  0  0
   -0.3305    2.1556   -0.3042 C   0  0  0  0  0  0  0  0  0  0  0  0
    1.0553    2.4129   -0.4104 C   0  0  0  0  0  0  0  0  0  0  0  0
    1.4753    3.5324   -0.6542 O   0  0  0  0  0  0  0  0  0  0  0  0
    1.9741    1.2755   -0.2144 C   0  0  0  0  0  0  0  0  0  0  0  0
    3.3572    1.4398   -0.3011 C   0  0  0  0  0  0  0  0  0  0  0  0
    4.1879    0.3534   -0.1117 C   0  0  0  0  0  0  0  0  0  0  0  0
    3.6473   -0.9031    0.1651 C   0  0  0  0  0  0  0  0  0  0  0  0
    2.2738   -1.0744    0.2523 C   0  0  0  0  0  0  0  0  0  0  0  0
    1.4261    0.0128    0.0639 C   0  0  0  0  0  0  0  0  0  0  0  0
    0.0859   -0.1328    0.1508 O   0  0  0  0  0  0  0  0  0  0  0  0
    1.7560   -2.3035    0.5226 O   0  0  0  0  0  0  0  0  0  0  0  0
    1.4406   -3.1349   -0.5960 C   0  0  0  0  0  0  0  0  0  0  0  0
    4.4731   -1.9671    0.3501 O   0  0  0  0  0  0  0  0  0  0  0  0
    4.9303   -2.2095    1.6821 C   0  0  0  0  0  0  0  0  0  0  0  0
    5.5367    0.5081   -0.1955 O   0  0  0  0  0  0  0  0  0  0  0  0
    6.0226    1.8211   -0.4821 C   0  0  0  0  0  0  0  0  0  0  0  0
   -4.6595   -1.8910   -0.8633 O   0  0  0  0  0  0  0  0  0  0  0  0
   -3.7629   -2.8056   -1.4971 C   0  0  0  0  0  0  0  0  0  0  0  0
   -6.9546    1.9024    0.5111 H   0  0  0  0  0  0  0  0  0  0  0  0
   -8.0989    0.6521    1.0550 H   0  0  0  0  0  0  0  0  0  0  0  0
   -6.6973    1.0766    2.0668 H   0  0  0  0  0  0  0  0  0  0  0  0
   -2.1265   -1.2496   -0.9419 H   0  0  0  0  0  0  0  0  0  0  0  0
   -2.6123    2.4831    1.1194 H   0  0  0  0  0  0  0  0  0  0  0  0
   -5.0278    2.0690    1.2926 H   0  0  0  0  0  0  0  0  0  0  0  0
   -1.0438    2.9551   -0.4397 H   0  0  0  0  0  0  0  0  0  0  0  0
    3.7757    2.4120   -0.5156 H   0  0  0  0  0  0  0  0  0  0  0  0
    1.0154   -4.0741   -0.2422 H   0  0  0  0  0  0  0  0  0  0  0  0
    0.7180   -2.6265   -1.2343 H   0  0  0  0  0  0  0  0  0  0  0  0
    2.3479   -3.3383   -1.1648 H   0  0  0  0  0  0  0  0  0  0  0  0
    4.0734   -2.3606    2.3386 H   0  0  0  0  0  0  0  0  0  0  0  0
    5.5586   -3.1001    1.6941 H   0  0  0  0  0  0  0  0  0  0  0  0
    5.5077   -1.3528    2.0297 H   0  0  0  0  0  0  0  0  0  0  0  0
    5.6295    2.1521   -1.4433 H   0  0  0  0  0  0  0  0  0  0  0  0
    5.6970    2.5076    0.2995 H   0  0  0  0  0  0  0  0  0  0  0  0
    7.1118    1.8050   -0.5210 H   0  0  0  0  0  0  0  0  0  0  0  0
   -3.2707   -2.3107   -2.3343 H   0  0  0  0  0  0  0  0  0  0  0  0
   -3.0129   -3.1360   -0.7785 H   0  0  0  0  0  0  0  0  0  0  0  0
   -4.3211   -3.6678   -1.8619 H   0  0  0  0  0  0  0  0  0  0  0  0
  1  2  1  0  0  0  0
  2  3  1  0  0  0  0
  3  4  2  0  0  0  0
  4  5  1  0  0  0  0
  5  6  2  0  0  0  0
  6  7  1  0  0  0  0
  7  8  2  0  0  0  0
  3  8  1  0  0  0  0
  6  9  1  0  0  0  0
  9 10  2  0  0  0  0
 10 11  1  0  0  0  0
 11 12  2  0  0  0  0
 11 13  1  0  0  0  0
 13 14  2  0  0  0  0
 14 15  1  0  0  0  0
 15 16  2  0  0  0  0
 16 17  1  0  0  0  0
 17 18  2  0  0  0  0
 13 18  1  0  0  0  0
 18 19  1  0  0  0  0
  9 19  1  0  0  0  0
 17 20  1  0  0  0  0
 20 21  1  0  0  0  0
 16 22  1  0  0  0  0
 22 23  1  0  0  0  0
 15 24  1  0  0  0  0
 24 25  1  0  0  0  0
  4 26  1  0  0  0  0
 26 27  1  0  0  0  0
  1 28  1  0  0  0  0
  1 29  1  0  0  0  0
  1 30  1  0  0  0  0
  5 31  1  0  0  0  0
  7 32  1  0  0  0  0
  8 33  1  0  0  0  0
 10 34  1  0  0  0  0
 14 35  1  0  0  0  0
 21 36  1  0  0  0  0
 21 37  1  0  0  0  0
 21 38  1  0  0  0  0
 23 39  1  0  0  0  0
 23 40  1  0  0  0  0
 23 41  1  0  0  0  0
 25 42  1  0  0  0  0
 25 43  1  0  0  0  0
 25 44  1  0  0  0  0
 27 45  1  0  0  0  0
 27 46  1  0  0  0  0
 27 47  1  0  0  0  0
M  END
$$$$
