C10H20O7P2
APtclcactv06221815483D 0   0.00000     0.00000
 
 39 38  0  0  0  0  0  0  0  0999 V2000
   -5.0600   -2.6243    0.3429 C   0  0  0  0  0  0  0  0  0  0  0  0
   -6.1838   -1.6539    0.0852 C   0  0  0  0  0  0  0  0  0  0  0  0
   -5.9833   -0.3671    0.2264 C   0  0  0  0  0  0  0  0  0  0  0  0
   -4.6005    0.1517    0.5256 C   0  0  0  0  0  0  0  0  0  0  0  0
   -4.2134    1.2027   -0.5168 C   0  0  0  0  0  0  0  0  0  0  0  0
   -2.8305    1.7215   -0.2175 C   0  0  0  0  0  0  0  0  0  0  0  0
   -1.7903    1.1973   -0.8170 C   0  0  0  0  0  0  0  0  0  0  0  0
   -0.4075    1.7161   -0.5177 C   0  0  0  0  0  0  0  0  0  0  0  0
    0.4843    0.6151   -0.3312 O   0  0  0  0  0  0  0  0  0  0  0  0
    2.0478    0.8004    0.0054 P   0  0  0  0  0  0  0  0  0  0  0  0
    2.6760    1.6572   -1.0250 O   0  0  0  0  0  0  0  0  0  0  0  0
    2.2074    1.4933    1.4498 O   0  0  0  0  0  0  0  0  0  0  0  0
    2.7682   -0.6394    0.0183 O   0  0  0  0  0  0  0  0  0  0  0  0
    4.3037   -1.1220   -0.0204 P   0  0  0  0  0  0  0  0  0  0  0  0
    5.0639   -0.2735   -0.9650 O   0  0  0  0  0  0  0  0  0  0  0  0
    4.9439   -0.9933    1.4512 O   0  0  0  0  0  0  0  0  0  0  0  0
    4.3719   -2.6565   -0.5030 O   0  0  0  0  0  0  0  0  0  0  0  0
   -2.6442    2.8432    0.7715 C   0  0  0  0  0  0  0  0  0  0  0  0
   -7.5382   -2.1639   -0.3350 C   0  0  0  0  0  0  0  0  0  0  0  0
   -4.6612   -2.4607    1.3441 H   0  0  0  0  0  0  0  0  0  0  0  0
   -5.4356   -3.6445    0.2637 H   0  0  0  0  0  0  0  0  0  0  0  0
   -4.2705   -2.4697   -0.3925 H   0  0  0  0  0  0  0  0  0  0  0  0
   -6.8091    0.3220    0.1283 H   0  0  0  0  0  0  0  0  0  0  0  0
   -4.5884    0.6025    1.5179 H   0  0  0  0  0  0  0  0  0  0  0  0
   -3.8881   -0.6726    0.4924 H   0  0  0  0  0  0  0  0  0  0  0  0
   -4.2254    0.7518   -1.5091 H   0  0  0  0  0  0  0  0  0  0  0  0
   -4.9258    2.0270   -0.4835 H   0  0  0  0  0  0  0  0  0  0  0  0
   -1.9238    0.3934   -1.5257 H   0  0  0  0  0  0  0  0  0  0  0  0
   -0.0606    2.3275   -1.3508 H   0  0  0  0  0  0  0  0  0  0  0  0
   -0.4343    2.3197    0.3895 H   0  0  0  0  0  0  0  0  0  0  0  0
    1.8176    0.9857    2.1748 H   0  0  0  0  0  0  0  0  0  0  0  0
    4.4948   -1.5241    2.1233 H   0  0  0  0  0  0  0  0  0  0  0  0
    5.2690   -3.0145   -0.5498 H   0  0  0  0  0  0  0  0  0  0  0  0
   -2.5066    2.4282    1.7699 H   0  0  0  0  0  0  0  0  0  0  0  0
   -1.7661    3.4277    0.4967 H   0  0  0  0  0  0  0  0  0  0  0  0
   -3.5251    3.4851    0.7630 H   0  0  0  0  0  0  0  0  0  0  0  0
   -8.1465   -2.3511    0.5498 H   0  0  0  0  0  0  0  0  0  0  0  0
   -8.0284   -1.4190   -0.9620 H   0  0  0  0  0  0  0  0  0  0  0  0
   -7.4194   -3.0903   -0.8969 H   0  0  0  0  0  0  0  0  0  0  0  0
  1  2  1  0  0  0  0
  2  3  2  0  0  0  0
  3  4  1  0  0  0  0
  4  5  1  0  0  0  0
  5  6  1  0  0  0  0
  6  7  2  0  0  0  0
  7  8  1  0  0  0  0
  8  9  1  0  0  0  0
  9 10  1  0  0  0  0
 10 11  2  0  0  0  0
 10 12  1  0  0  0  0
 10 13  1  0  0  0  0
 13 14  1  0  0  0  0
 14 15  2  0  0  0  0
 14 16  1  0  0  0  0
 14 17  1  0  0  0  0
  6 18  1  0  0  0  0
  2 19  1  0  0  0  0
  1 20  1  0  0  0  0
  1 21  1  0  0  0  0
  1 22  1  0  0  0  0
  3 23  1  0  0  0  0
  4 24  1  0  0  0  0
  4 25  1  0  0  0  0
  5 26  1  0  0  0  0
  5 27  1  0  0  0  0
  7 28  1  0  0  0  0
  8 29  1  0  0  0  0
  8 30  1  0  0  0  0
 12 31  1  0  0  0  0
 16 32  1  0  0  0  0
 17 33  1  0  0  0  0
 18 34  1  0  0  0  0
 18 35  1  0  0  0  0
 18 36  1  0  0  0  0
 19 37  1  0  0  0  0
 19 38  1  0  0  0  0
 19 39  1  0  0  0  0
M  END
$$$$
