C40H56
APtclcactv06221815493D 0   0.00000     0.00000
 
 96 97  0  0  0  0  0  0  0  0999 V2000
   11.8334    2.6206   -0.9273 C   0  0  0  0  0  0  0  0  0  0  0  0
   12.2606    1.3081   -0.3224 C   0  0  0  0  0  0  0  0  0  0  0  0
   13.2811    1.3104    0.4739 C   0  0  0  0  0  0  0  0  0  0  0  0
   13.8286    0.0835    1.1426 C   0  0  0  0  0  0  0  0  0  0  0  0
   12.7955   -1.0446    1.1013 C   0  0  0  0  0  0  0  0  0  0  0  0
   12.2787   -1.1769   -0.3368 C   0  0  0  0  0  0  0  0  0  0  0  0
   11.4726    0.0808   -0.6758 C   0  0  0  0  0  0  0  0  0  0  0  0
   10.1789    0.0684    0.0972 C   0  0  0  0  0  0  0  0  0  0  0  0
    9.0116    0.0796   -0.5535 C   0  0  0  0  0  0  0  0  0  0  0  0
    7.7946    0.0679    0.1737 C   0  0  0  0  0  0  0  0  0  0  0  0
    6.6078    0.0793   -0.4879 C   0  0  0  0  0  0  0  0  0  0  0  0
    5.4008    0.0677    0.2333 C   0  0  0  0  0  0  0  0  0  0  0  0
    4.2089    0.0791   -0.4311 C   0  0  0  0  0  0  0  0  0  0  0  0
    3.0052    0.0675    0.2881 C   0  0  0  0  0  0  0  0  0  0  0  0
    1.8031    0.0791   -0.3820 C   0  0  0  0  0  0  0  0  0  0  0  0
    0.6007    0.0675    0.3365 C   0  0  0  0  0  0  0  0  0  0  0  0
   -0.6020    0.0791   -0.3339 C   0  0  0  0  0  0  0  0  0  0  0  0
   -1.8044    0.0675    0.3846 C   0  0  0  0  0  0  0  0  0  0  0  0
   -3.0066    0.0791   -0.2855 C   0  0  0  0  0  0  0  0  0  0  0  0
   -3.0292    0.1042   -1.7921 C   0  0  0  0  0  0  0  0  0  0  0  0
   -4.2102    0.0675    0.4337 C   0  0  0  0  0  0  0  0  0  0  0  0
   -5.4021    0.0789   -0.2307 C   0  0  0  0  0  0  0  0  0  0  0  0
   -6.6091    0.0673    0.4905 C   0  0  0  0  0  0  0  0  0  0  0  0
   -7.7959    0.0787   -0.1711 C   0  0  0  0  0  0  0  0  0  0  0  0
   -7.8186    0.1039   -1.6777 C   0  0  0  0  0  0  0  0  0  0  0  0
   -9.0129    0.0670    0.5561 C   0  0  0  0  0  0  0  0  0  0  0  0
  -10.1803    0.0782   -0.0946 C   0  0  0  0  0  0  0  0  0  0  0  0
  -11.4739    0.0658    0.6783 C   0  0  0  0  0  0  0  0  0  0  0  0
  -12.2636    1.2979    0.3463 C   0  0  0  0  0  0  0  0  0  0  0  0
  -13.2855    1.3122   -0.4481 C   0  0  0  0  0  0  0  0  0  0  0  0
  -13.8292    0.0969   -1.1406 C   0  0  0  0  0  0  0  0  0  0  0  0
  -12.7916   -1.0277   -1.1238 C   0  0  0  0  0  0  0  0  0  0  0  0
  -12.2723   -1.1869    0.3109 C   0  0  0  0  0  0  0  0  0  0  0  0
  -11.3667   -2.4172    0.3965 C   0  0  0  0  0  0  0  0  0  0  0  0
  -13.4532   -1.3444    1.2709 C   0  0  0  0  0  0  0  0  0  0  0  0
  -11.8410    2.5995    0.9774 C   0  0  0  0  0  0  0  0  0  0  0  0
    3.0279    0.0424    1.7947 C   0  0  0  0  0  0  0  0  0  0  0  0
    7.8173    0.0427    1.6803 C   0  0  0  0  0  0  0  0  0  0  0  0
   13.4615   -1.3102   -1.2982 C   0  0  0  0  0  0  0  0  0  0  0  0
   11.3782   -2.4087   -0.4485 C   0  0  0  0  0  0  0  0  0  0  0  0
   12.4931    3.4142   -0.5765 H   0  0  0  0  0  0  0  0  0  0  0  0
   11.8896    2.5552   -2.0139 H   0  0  0  0  0  0  0  0  0  0  0  0
   10.8086    2.8417   -0.6292 H   0  0  0  0  0  0  0  0  0  0  0  0
   13.7692    2.2539    0.6688 H   0  0  0  0  0  0  0  0  0  0  0  0
   14.7335   -0.2362    0.6259 H   0  0  0  0  0  0  0  0  0  0  0  0
   14.0698    0.3147    2.1801 H   0  0  0  0  0  0  0  0  0  0  0  0
   13.2619   -1.9800    1.4105 H   0  0  0  0  0  0  0  0  0  0  0  0
   11.9667   -0.8070    1.7681 H   0  0  0  0  0  0  0  0  0  0  0  0
   11.2531    0.0925   -1.7434 H   0  0  0  0  0  0  0  0  0  0  0  0
   10.1952    0.0503    1.1769 H   0  0  0  0  0  0  0  0  0  0  0  0
    8.9954    0.0976   -1.6332 H   0  0  0  0  0  0  0  0  0  0  0  0
    6.5915    0.0973   -1.5676 H   0  0  0  0  0  0  0  0  0  0  0  0
    5.4170    0.0496    1.3130 H   0  0  0  0  0  0  0  0  0  0  0  0
    4.1927    0.0971   -1.5108 H   0  0  0  0  0  0  0  0  0  0  0  0
    1.7869    0.0971   -1.4617 H   0  0  0  0  0  0  0  0  0  0  0  0
    0.6169    0.0495    1.4162 H   0  0  0  0  0  0  0  0  0  0  0  0
   -0.6182    0.0971   -1.4136 H   0  0  0  0  0  0  0  0  0  0  0  0
   -1.7882    0.0495    1.4643 H   0  0  0  0  0  0  0  0  0  0  0  0
   -3.0350   -0.9172   -2.1725 H   0  0  0  0  0  0  0  0  0  0  0  0
   -3.9244    0.6241   -2.1334 H   0  0  0  0  0  0  0  0  0  0  0  0
   -2.1446    0.6240   -2.1602 H   0  0  0  0  0  0  0  0  0  0  0  0
   -4.1940    0.0495    1.5134 H   0  0  0  0  0  0  0  0  0  0  0  0
   -5.4183    0.0970   -1.3104 H   0  0  0  0  0  0  0  0  0  0  0  0
   -6.5929    0.0493    1.5702 H   0  0  0  0  0  0  0  0  0  0  0  0
   -7.8244   -0.9176   -2.0581 H   0  0  0  0  0  0  0  0  0  0  0  0
   -8.7138    0.6238   -2.0190 H   0  0  0  0  0  0  0  0  0  0  0  0
   -6.9340    0.6236   -2.0457 H   0  0  0  0  0  0  0  0  0  0  0  0
   -8.9967    0.0490    1.6358 H   0  0  0  0  0  0  0  0  0  0  0  0
  -10.1965    0.0963   -1.1743 H   0  0  0  0  0  0  0  0  0  0  0  0
  -11.2565    0.0529    1.7464 H   0  0  0  0  0  0  0  0  0  0  0  0
  -13.7777    2.2574   -0.6231 H   0  0  0  0  0  0  0  0  0  0  0  0
  -14.7321   -0.2368   -0.6290 H   0  0  0  0  0  0  0  0  0  0  0  0
  -14.0731    0.3480   -2.1728 H   0  0  0  0  0  0  0  0  0  0  0  0
  -13.2549   -1.9585   -1.4510 H   0  0  0  0  0  0  0  0  0  0  0  0
  -11.9649   -0.7734   -1.7869 H   0  0  0  0  0  0  0  0  0  0  0  0
  -10.5227   -2.2950   -0.2824 H   0  0  0  0  0  0  0  0  0  0  0  0
  -10.9993   -2.5276    1.4167 H   0  0  0  0  0  0  0  0  0  0  0  0
  -11.9329   -3.3053    0.1161 H   0  0  0  0  0  0  0  0  0  0  0  0
  -14.0304   -2.2270    0.9951 H   0  0  0  0  0  0  0  0  0  0  0  0
  -13.0810   -1.4573    2.2892 H   0  0  0  0  0  0  0  0  0  0  0  0
  -14.0893   -0.4613    1.2123 H   0  0  0  0  0  0  0  0  0  0  0  0
  -11.1167    3.0975    0.3328 H   0  0  0  0  0  0  0  0  0  0  0  0
  -12.7130    3.2404    1.1072 H   0  0  0  0  0  0  0  0  0  0  0  0
  -11.3875    2.4020    1.9487 H   0  0  0  0  0  0  0  0  0  0  0  0
    3.0337    1.0638    2.1751 H   0  0  0  0  0  0  0  0  0  0  0  0
    2.1433   -0.4774    2.1628 H   0  0  0  0  0  0  0  0  0  0  0  0
    3.9231   -0.4775    2.1360 H   0  0  0  0  0  0  0  0  0  0  0  0
    7.8231    1.0642    2.0607 H   0  0  0  0  0  0  0  0  0  0  0  0
    6.9327   -0.4770    2.0483 H   0  0  0  0  0  0  0  0  0  0  0  0
    8.7124   -0.4772    2.0216 H   0  0  0  0  0  0  0  0  0  0  0  0
   14.0419   -2.1958   -1.0394 H   0  0  0  0  0  0  0  0  0  0  0  0
   13.0911   -1.4040   -2.3190 H   0  0  0  0  0  0  0  0  0  0  0  0
   14.0940   -0.4259   -1.2209 H   0  0  0  0  0  0  0  0  0  0  0  0
   10.5328   -2.3037    0.2315 H   0  0  0  0  0  0  0  0  0  0  0  0
   11.0126   -2.5000   -1.4713 H   0  0  0  0  0  0  0  0  0  0  0  0
   11.9476   -3.3001   -0.1853 H   0  0  0  0  0  0  0  0  0  0  0  0
  1  2  1  0  0  0  0
  2  3  2  0  0  0  0
  3  4  1  0  0  0  0
  4  5  1  0  0  0  0
  5  6  1  0  0  0  0
  6  7  1  0  0  0  0
  2  7  1  0  0  0  0
  7  8  1  0  0  0  0
  8  9  2  0  0  0  0
  9 10  1  0  0  0  0
 10 11  2  0  0  0  0
 11 12  1  0  0  0  0
 12 13  2  0  0  0  0
 13 14  1  0  0  0  0
 14 15  2  0  0  0  0
 15 16  1  0  0  0  0
 16 17  2  0  0  0  0
 17 18  1  0  0  0  0
 18 19  2  0  0  0  0
 19 20  1  0  0  0  0
 19 21  1  0  0  0  0
 21 22  2  0  0  0  0
 22 23  1  0  0  0  0
 23 24  2  0  0  0  0
 24 25  1  0  0  0  0
 24 26  1  0  0  0  0
 26 27  2  0  0  0  0
 27 28  1  0  0  0  0
 28 29  1  0  0  0  0
 29 30  2  0  0  0  0
 30 31  1  0  0  0  0
 31 32  1  0  0  0  0
 32 33  1  0  0  0  0
 28 33  1  0  0  0  0
 33 34  1  0  0  0  0
 33 35  1  0  0  0  0
 29 36  1  0  0  0  0
 14 37  1  0  0  0  0
 10 38  1  0  0  0  0
  6 39  1  0  0  0  0
  6 40  1  0  0  0  0
  1 41  1  0  0  0  0
  1 42  1  0  0  0  0
  1 43  1  0  0  0  0
  3 44  1  0  0  0  0
  4 45  1  0  0  0  0
  4 46  1  0  0  0  0
  5 47  1  0  0  0  0
  5 48  1  0  0  0  0
  7 49  1  0  0  0  0
  8 50  1  0  0  0  0
  9 51  1  0  0  0  0
 11 52  1  0  0  0  0
 12 53  1  0  0  0  0
 13 54  1  0  0  0  0
 15 55  1  0  0  0  0
 16 56  1  0  0  0  0
 17 57  1  0  0  0  0
 18 58  1  0  0  0  0
 20 59  1  0  0  0  0
 20 60  1  0  0  0  0
 20 61  1  0  0  0  0
 21 62  1  0  0  0  0
 22 63  1  0  0  0  0
 23 64  1  0  0  0  0
 25 65  1  0  0  0  0
 25 66  1  0  0  0  0
 25 67  1  0  0  0  0
 26 68  1  0  0  0  0
 27 69  1  0  0  0  0
 28 70  1  0  0  0  0
 30 71  1  0  0  0  0
 31 72  1  0  0  0  0
 31 73  1  0  0  0  0
 32 74  1  0  0  0  0
 32 75  1  0  0  0  0
 34 76  1  0  0  0  0
 34 77  1  0  0  0  0
 34 78  1  0  0  0  0
 35 79  1  0  0  0  0
 35 80  1  0  0  0  0
 35 81  1  0  0  0  0
 36 82  1  0  0  0  0
 36 83  1  0  0  0  0
 36 84  1  0  0  0  0
 37 85  1  0  0  0  0
 37 86  1  0  0  0  0
 37 87  1  0  0  0  0
 38 88  1  0  0  0  0
 38 89  1  0  0  0  0
 38 90  1  0  0  0  0
 39 91  1  0  0  0  0
 39 92  1  0  0  0  0
 39 93  1  0  0  0  0
 40 94  1  0  0  0  0
 40 95  1  0  0  0  0
 40 96  1  0  0  0  0
M  END
$$$$
