C40H56
APtclcactv06221815493D 0   0.00000     0.00000
 
 96 95  0  0  0  0  0  0  0  0999 V2000
  -14.8808   -1.9780    2.5844 C   0  0  0  0  0  0  0  0  0  0  0  0
  -15.9563   -1.4988    1.6438 C   0  0  0  0  0  0  0  0  0  0  0  0
  -15.7545   -0.4359    0.9052 C   0  0  0  0  0  0  0  0  0  0  0  0
  -14.4053    0.2355    0.9035 C   0  0  0  0  0  0  0  0  0  0  0  0
  -13.8927    0.3463   -0.5338 C   0  0  0  0  0  0  0  0  0  0  0  0
  -12.5434    1.0176   -0.5355 C   0  0  0  0  0  0  0  0  0  0  0  0
  -11.4294    0.2790   -0.5335 C   0  0  0  0  0  0  0  0  0  0  0  0
  -10.1603    0.9105   -0.5351 C   0  0  0  0  0  0  0  0  0  0  0  0
   -9.0275    0.1594   -0.5330 C   0  0  0  0  0  0  0  0  0  0  0  0
   -7.7691    0.7856   -0.5346 C   0  0  0  0  0  0  0  0  0  0  0  0
   -6.6313    0.0311   -0.5325 C   0  0  0  0  0  0  0  0  0  0  0  0
   -5.3766    0.6554   -0.5341 C   0  0  0  0  0  0  0  0  0  0  0  0
   -4.2286   -0.1057   -0.5321 C   0  0  0  0  0  0  0  0  0  0  0  0
   -2.9756    0.5178   -0.5336 C   0  0  0  0  0  0  0  0  0  0  0  0
   -1.8266   -0.2441   -0.5316 C   0  0  0  0  0  0  0  0  0  0  0  0
   -0.5743    0.3791   -0.5331 C   0  0  0  0  0  0  0  0  0  0  0  0
    0.5749   -0.3830   -0.5310 C   0  0  0  0  0  0  0  0  0  0  0  0
    1.8273    0.2402   -0.5326 C   0  0  0  0  0  0  0  0  0  0  0  0
    2.9762   -0.5217   -0.5305 C   0  0  0  0  0  0  0  0  0  0  0  0
    2.8830   -2.0258   -0.5266 C   0  0  0  0  0  0  0  0  0  0  0  0
    4.2292    0.1018   -0.5321 C   0  0  0  0  0  0  0  0  0  0  0  0
    5.3772   -0.6594   -0.5300 C   0  0  0  0  0  0  0  0  0  0  0  0
    6.6319   -0.0351   -0.5316 C   0  0  0  0  0  0  0  0  0  0  0  0
    7.7697   -0.7895   -0.5296 C   0  0  0  0  0  0  0  0  0  0  0  0
    7.6765   -2.2936   -0.5256 C   0  0  0  0  0  0  0  0  0  0  0  0
    9.0281   -0.1633   -0.5312 C   0  0  0  0  0  0  0  0  0  0  0  0
   10.1610   -0.9144   -0.5291 C   0  0  0  0  0  0  0  0  0  0  0  0
   11.4301   -0.2829   -0.5307 C   0  0  0  0  0  0  0  0  0  0  0  0
   12.5441   -1.0215   -0.5287 C   0  0  0  0  0  0  0  0  0  0  0  0
   12.4508   -2.5257   -0.5247 C   0  0  0  0  0  0  0  0  0  0  0  0
   13.8933   -0.3502   -0.5304 C   0  0  0  0  0  0  0  0  0  0  0  0
   14.4058   -0.2318    0.9063 C   0  0  0  0  0  0  0  0  0  0  0  0
   15.7550    0.4396    0.9046 C   0  0  0  0  0  0  0  0  0  0  0  0
   15.9542    1.5113    1.6311 C   0  0  0  0  0  0  0  0  0  0  0  0
   14.8342    2.0730    2.4684 C   0  0  0  0  0  0  0  0  0  0  0  0
   17.3034    2.1827    1.6294 C   0  0  0  0  0  0  0  0  0  0  0  0
   -2.8824    2.0219   -0.5376 C   0  0  0  0  0  0  0  0  0  0  0  0
   -7.6759    2.2897   -0.5386 C   0  0  0  0  0  0  0  0  0  0  0  0
  -12.4502    2.5217   -0.5395 C   0  0  0  0  0  0  0  0  0  0  0  0
  -17.2640   -2.2424    1.5529 C   0  0  0  0  0  0  0  0  0  0  0  0
  -14.5909   -1.1646    3.2495 H   0  0  0  0  0  0  0  0  0  0  0  0
  -15.2597   -2.8124    3.1746 H   0  0  0  0  0  0  0  0  0  0  0  0
  -14.0140   -2.3037    2.0094 H   0  0  0  0  0  0  0  0  0  0  0  0
  -16.5551   -0.0407    0.2975 H   0  0  0  0  0  0  0  0  0  0  0  0
  -14.4950    1.2323    1.3352 H   0  0  0  0  0  0  0  0  0  0  0  0
  -13.7051   -0.3548    1.4945 H   0  0  0  0  0  0  0  0  0  0  0  0
  -13.8030   -0.6506   -0.9655 H   0  0  0  0  0  0  0  0  0  0  0  0
  -14.5929    0.9365   -1.1248 H   0  0  0  0  0  0  0  0  0  0  0  0
  -11.4962   -0.7989   -0.5306 H   0  0  0  0  0  0  0  0  0  0  0  0
  -10.0935    1.9884   -0.5379 H   0  0  0  0  0  0  0  0  0  0  0  0
   -9.0943   -0.9185   -0.5302 H   0  0  0  0  0  0  0  0  0  0  0  0
   -6.6981   -1.0468   -0.5297 H   0  0  0  0  0  0  0  0  0  0  0  0
   -5.3098    1.7334   -0.5370 H   0  0  0  0  0  0  0  0  0  0  0  0
   -4.2954   -1.1836   -0.5292 H   0  0  0  0  0  0  0  0  0  0  0  0
   -1.8934   -1.3220   -0.5287 H   0  0  0  0  0  0  0  0  0  0  0  0
   -0.5075    1.4570   -0.5360 H   0  0  0  0  0  0  0  0  0  0  0  0
    0.5082   -1.4609   -0.5282 H   0  0  0  0  0  0  0  0  0  0  0  0
    1.8941    1.3181   -0.5355 H   0  0  0  0  0  0  0  0  0  0  0  0
    2.8606   -2.3911   -1.5533 H   0  0  0  0  0  0  0  0  0  0  0  0
    3.7488   -2.4421   -0.0116 H   0  0  0  0  0  0  0  0  0  0  0  0
    1.9723   -2.3320   -0.0120 H   0  0  0  0  0  0  0  0  0  0  0  0
    4.2960    1.1797   -0.5350 H   0  0  0  0  0  0  0  0  0  0  0  0
    5.3104   -1.7373   -0.5272 H   0  0  0  0  0  0  0  0  0  0  0  0
    6.6987    1.0429   -0.5345 H   0  0  0  0  0  0  0  0  0  0  0  0
    7.6541   -2.6589   -1.5523 H   0  0  0  0  0  0  0  0  0  0  0  0
    8.5423   -2.7099   -0.0106 H   0  0  0  0  0  0  0  0  0  0  0  0
    6.7657   -2.5998   -0.0110 H   0  0  0  0  0  0  0  0  0  0  0  0
    9.0949    0.9146   -0.5340 H   0  0  0  0  0  0  0  0  0  0  0  0
   10.0942   -1.9923   -0.5263 H   0  0  0  0  0  0  0  0  0  0  0  0
   11.4969    0.7950   -0.5336 H   0  0  0  0  0  0  0  0  0  0  0  0
   12.4284   -2.8910   -1.5514 H   0  0  0  0  0  0  0  0  0  0  0  0
   13.3166   -2.9420   -0.0097 H   0  0  0  0  0  0  0  0  0  0  0  0
   11.5401   -2.8319   -0.0101 H   0  0  0  0  0  0  0  0  0  0  0  0
   14.5936   -0.9436   -1.1182 H   0  0  0  0  0  0  0  0  0  0  0  0
   13.8037    0.6443   -0.9673 H   0  0  0  0  0  0  0  0  0  0  0  0
   13.7055    0.3616    1.4942 H   0  0  0  0  0  0  0  0  0  0  0  0
   14.4954   -1.2263    1.3433 H   0  0  0  0  0  0  0  0  0  0  0  0
   16.5577    0.0371    0.3045 H   0  0  0  0  0  0  0  0  0  0  0  0
   14.5083    1.3232    3.1893 H   0  0  0  0  0  0  0  0  0  0  0  0
   15.1856    2.9581    2.9986 H   0  0  0  0  0  0  0  0  0  0  0  0
   13.9986    2.3439    1.8230 H   0  0  0  0  0  0  0  0  0  0  0  0
   17.3345    2.9339    0.8401 H   0  0  0  0  0  0  0  0  0  0  0  0
   17.4721    2.6618    2.5938 H   0  0  0  0  0  0  0  0  0  0  0  0
   18.0796    1.4380    1.4529 H   0  0  0  0  0  0  0  0  0  0  0  0
   -2.8600    2.3872    0.4891 H   0  0  0  0  0  0  0  0  0  0  0  0
   -1.9717    2.3281   -1.0522 H   0  0  0  0  0  0  0  0  0  0  0  0
   -3.7482    2.4382   -1.0526 H   0  0  0  0  0  0  0  0  0  0  0  0
   -7.6535    2.6550    0.4881 H   0  0  0  0  0  0  0  0  0  0  0  0
   -6.7651    2.5959   -1.0532 H   0  0  0  0  0  0  0  0  0  0  0  0
   -8.5417    2.7060   -1.0536 H   0  0  0  0  0  0  0  0  0  0  0  0
  -12.4278    2.8871    0.4872 H   0  0  0  0  0  0  0  0  0  0  0  0
  -11.5395    2.8280   -1.0541 H   0  0  0  0  0  0  0  0  0  0  0  0
  -13.3160    2.9381   -1.0545 H   0  0  0  0  0  0  0  0  0  0  0  0
  -17.9674   -1.8301    2.2763 H   0  0  0  0  0  0  0  0  0  0  0  0
  -17.6727   -2.1371    0.5480 H   0  0  0  0  0  0  0  0  0  0  0  0
  -17.0976   -3.2977    1.7688 H   0  0  0  0  0  0  0  0  0  0  0  0
  1  2  1  0  0  0  0
  2  3  2  0  0  0  0
  3  4  1  0  0  0  0
  4  5  1  0  0  0  0
  5  6  1  0  0  0  0
  6  7  2  0  0  0  0
  7  8  1  0  0  0  0
  8  9  2  0  0  0  0
  9 10  1  0  0  0  0
 10 11  2  0  0  0  0
 11 12  1  0  0  0  0
 12 13  2  0  0  0  0
 13 14  1  0  0  0  0
 14 15  2  0  0  0  0
 15 16  1  0  0  0  0
 16 17  2  0  0  0  0
 17 18  1  0  0  0  0
 18 19  2  0  0  0  0
 19 20  1  0  0  0  0
 19 21  1  0  0  0  0
 21 22  2  0  0  0  0
 22 23  1  0  0  0  0
 23 24  2  0  0  0  0
 24 25  1  0  0  0  0
 24 26  1  0  0  0  0
 26 27  2  0  0  0  0
 27 28  1  0  0  0  0
 28 29  2  0  0  0  0
 29 30  1  0  0  0  0
 29 31  1  0  0  0  0
 31 32  1  0  0  0  0
 32 33  1  0  0  0  0
 33 34  2  0  0  0  0
 34 35  1  0  0  0  0
 34 36  1  0  0  0  0
 14 37  1  0  0  0  0
 10 38  1  0  0  0  0
  6 39  1  0  0  0  0
  2 40  1  0  0  0  0
  1 41  1  0  0  0  0
  1 42  1  0  0  0  0
  1 43  1  0  0  0  0
  3 44  1  0  0  0  0
  4 45  1  0  0  0  0
  4 46  1  0  0  0  0
  5 47  1  0  0  0  0
  5 48  1  0  0  0  0
  7 49  1  0  0  0  0
  8 50  1  0  0  0  0
  9 51  1  0  0  0  0
 11 52  1  0  0  0  0
 12 53  1  0  0  0  0
 13 54  1  0  0  0  0
 15 55  1  0  0  0  0
 16 56  1  0  0  0  0
 17 57  1  0  0  0  0
 18 58  1  0  0  0  0
 20 59  1  0  0  0  0
 20 60  1  0  0  0  0
 20 61  1  0  0  0  0
 21 62  1  0  0  0  0
 22 63  1  0  0  0  0
 23 64  1  0  0  0  0
 25 65  1  0  0  0  0
 25 66  1  0  0  0  0
 25 67  1  0  0  0  0
 26 68  1  0  0  0  0
 27 69  1  0  0  0  0
 28 70  1  0  0  0  0
 30 71  1  0  0  0  0
 30 72  1  0  0  0  0
 30 73  1  0  0  0  0
 31 74  1  0  0  0  0
 31 75  1  0  0  0  0
 32 76  1  0  0  0  0
 32 77  1  0  0  0  0
 33 78  1  0  0  0  0
 35 79  1  0  0  0  0
 35 80  1  0  0  0  0
 35 81  1  0  0  0  0
 36 82  1  0  0  0  0
 36 83  1  0  0  0  0
 36 84  1  0  0  0  0
 37 85  1  0  0  0  0
 37 86  1  0  0  0  0
 37 87  1  0  0  0  0
 38 88  1  0  0  0  0
 38 89  1  0  0  0  0
 38 90  1  0  0  0  0
 39 91  1  0  0  0  0
 39 92  1  0  0  0  0
 39 93  1  0  0  0  0
 40 94  1  0  0  0  0
 40 95  1  0  0  0  0
 40 96  1  0  0  0  0
M  END
$$$$
