C10H13N5O4
APtclcactv06221815493D 0   0.00000     0.00000
 
 32 34  0  0  0  0  0  0  0  0999 V2000
    3.4475   -1.6227   -0.7495 C   0  0  0  0  0  0  0  0  0  0  0  0
    2.1553   -1.4231   -0.7255 N   0  0  0  0  0  0  0  0  0  0  0  0
    1.6472   -0.2536   -0.2865 C   0  0  0  0  0  0  0  0  0  0  0  0
    0.4049    0.3141   -0.1154 C   0  0  0  0  0  0  0  0  0  0  0  0
    0.6031    1.5495    0.3794 N   0  0  0  0  0  0  0  0  0  0  0  0
    1.8533    1.8097    0.5346 N   0  0  0  0  0  0  0  0  0  0  0  0
    2.5899    0.7884    0.1636 C   0  0  0  0  0  0  0  0  0  0  0  0
    4.0138    0.4643    0.0968 C   0  0  0  0  0  0  0  0  0  0  0  0
    4.3494   -0.7335   -0.3614 N   0  0  0  0  0  0  0  0  0  0  0  0
    4.9722    1.3715    0.4939 N   0  0  0  0  0  0  0  0  0  0  0  0
   -0.9240   -0.3259   -0.4243 C   0  0  0  0  0  0  0  0  0  0  0  0
   -1.3835   -1.1834    0.7744 C   0  0  0  0  0  0  0  0  0  0  0  0
   -2.9105   -0.9029    0.8142 C   0  0  0  0  0  0  0  0  0  0  0  0
   -2.9501    0.5755    0.3523 C   0  0  0  0  0  0  0  0  0  0  0  0
   -1.9138    0.6875   -0.6362 O   0  0  0  0  0  0  0  0  0  0  0  0
   -4.3110    0.9026   -0.2657 C   0  0  0  0  0  0  0  0  0  0  0  0
   -4.3697    2.2957   -0.5785 O   0  0  0  0  0  0  0  0  0  0  0  0
   -3.6132   -1.7471   -0.0999 O   0  0  0  0  0  0  0  0  0  0  0  0
   -1.1270   -2.5690    0.5366 O   0  0  0  0  0  0  0  0  0  0  0  0
    3.8030   -2.5783   -1.1056 H   0  0  0  0  0  0  0  0  0  0  0  0
   -0.1113    2.1699    0.5932 H   0  0  0  0  0  0  0  0  0  0  0  0
    4.7068    2.2437    0.8252 H   0  0  0  0  0  0  0  0  0  0  0  0
    5.9122    1.1378    0.4421 H   0  0  0  0  0  0  0  0  0  0  0  0
   -0.8359   -0.9503   -1.3134 H   0  0  0  0  0  0  0  0  0  0  0  0
   -0.9040   -0.8515    1.6953 H   0  0  0  0  0  0  0  0  0  0  0  0
   -3.3032   -1.0092    1.8254 H   0  0  0  0  0  0  0  0  0  0  0  0
   -2.7455    1.2398    1.1919 H   0  0  0  0  0  0  0  0  0  0  0  0
   -4.4459    0.3196   -1.1767 H   0  0  0  0  0  0  0  0  0  0  0  0
   -5.1009    0.6559    0.4438 H   0  0  0  0  0  0  0  0  0  0  0  0
   -5.2065    2.5749   -0.9747 H   0  0  0  0  0  0  0  0  0  0  0  0
   -4.5699   -1.6068   -0.1089 H   0  0  0  0  0  0  0  0  0  0  0  0
   -1.3981   -3.1492    1.2611 H   0  0  0  0  0  0  0  0  0  0  0  0
  1  2  2  0  0  0  0
  2  3  1  0  0  0  0
  3  4  2  0  0  0  0
  4  5  1  0  0  0  0
  5  6  1  0  0  0  0
  6  7  2  0  0  0  0
  3  7  1  0  0  0  0
  7  8  1  0  0  0  0
  8  9  2  0  0  0  0
  1  9  1  0  0  0  0
  8 10  1  0  0  0  0
  4 11  1  0  0  0  0
 11 12  1  0  0  0  0
 12 13  1  0  0  0  0
 13 14  1  0  0  0  0
 14 15  1  0  0  0  0
 11 15  1  0  0  0  0
 14 16  1  0  0  0  0
 16 17  1  0  0  0  0
 13 18  1  0  0  0  0
 12 19  1  0  0  0  0
  1 20  1  0  0  0  0
  5 21  1  0  0  0  0
 10 22  1  0  0  0  0
 10 23  1  0  0  0  0
 11 24  1  0  0  0  0
 12 25  1  0  0  0  0
 13 26  1  0  0  0  0
 14 27  1  0  0  0  0
 16 28  1  0  0  0  0
 16 29  1  0  0  0  0
 17 30  1  0  0  0  0
 18 31  1  0  0  0  0
 19 32  1  0  0  0  0
M  END
$$$$
