C20H18O5
APtclcactv06281816393D 0   0.00000     0.00000
 
 43 47  0  0  0  0  0  0  0  0999 V2000
   -4.5650    0.0751    2.0432 C   0  0  0  0  0  0  0  0  0  0  0  0
   -4.9671    0.0579    0.5671 C   0  0  0  0  0  0  0  0  0  0  0  0
   -4.5382    1.3485   -0.0797 C   0  0  0  0  0  0  0  0  0  0  0  0
   -3.3239    1.4512   -0.6166 C   0  0  0  0  0  0  0  0  0  0  0  0
   -2.4373    0.2692   -0.5637 C   0  0  0  0  0  0  0  0  0  0  0  0
   -3.0073   -0.9808   -0.2875 C   0  0  0  0  0  0  0  0  0  0  0  0
   -4.3473   -1.0557   -0.0771 O   0  0  0  0  0  0  0  0  0  0  0  0
   -2.2119   -2.1112   -0.2332 C   0  0  0  0  0  0  0  0  0  0  0  0
   -0.8456   -2.0003   -0.4433 C   0  0  0  0  0  0  0  0  0  0  0  0
   -0.2823   -0.7784   -0.7044 C   0  0  0  0  0  0  0  0  0  0  0  0
   -1.0652    0.3817   -0.7878 C   0  0  0  0  0  0  0  0  0  0  0  0
   -0.5075    1.5740   -1.1040 O   0  0  0  0  0  0  0  0  0  0  0  0
    0.8491    1.8909   -0.7656 C   0  0  0  0  0  0  0  0  0  0  0  0
    1.4536    0.7268   -0.0206 C   0  0  0  0  0  0  0  0  0  0  0  0
    1.1814   -0.5498   -0.8910 C   0  0  0  0  0  0  0  0  0  0  0  0
    2.1018   -1.4601   -0.3026 O   0  0  0  0  0  0  0  0  0  0  0  0
    3.2285   -0.7391   -0.0368 C   0  0  0  0  0  0  0  0  0  0  0  0
    2.9247    0.6294    0.1340 C   0  0  0  0  0  0  0  0  0  0  0  0
    3.9037    1.5627    0.3949 C   0  0  0  0  0  0  0  0  0  0  0  0
    5.2114    1.1060    0.4953 C   0  0  0  0  0  0  0  0  0  0  0  0
    5.5201   -0.2351    0.3405 C   0  0  0  0  0  0  0  0  0  0  0  0
    4.5398   -1.1852    0.0715 C   0  0  0  0  0  0  0  0  0  0  0  0
    6.8144   -0.6336    0.4542 O   0  0  0  0  0  0  0  0  0  0  0  0
    0.8216    0.5875    1.2535 O   0  0  0  0  0  0  0  0  0  0  0  0
   -6.4871   -0.0797    0.4597 C   0  0  0  0  0  0  0  0  0  0  0  0
   -5.0513    0.9131    2.5425 H   0  0  0  0  0  0  0  0  0  0  0  0
   -4.8739   -0.8578    2.5148 H   0  0  0  0  0  0  0  0  0  0  0  0
   -3.4833    0.1822    2.1238 H   0  0  0  0  0  0  0  0  0  0  0  0
   -5.2149    2.1898   -0.1083 H   0  0  0  0  0  0  0  0  0  0  0  0
   -2.9963    2.3713   -1.0778 H   0  0  0  0  0  0  0  0  0  0  0  0
   -2.6528   -3.0756   -0.0286 H   0  0  0  0  0  0  0  0  0  0  0  0
   -0.2222   -2.8812   -0.4005 H   0  0  0  0  0  0  0  0  0  0  0  0
    1.4185    2.0763   -1.6764 H   0  0  0  0  0  0  0  0  0  0  0  0
    0.8696    2.7788   -0.1337 H   0  0  0  0  0  0  0  0  0  0  0  0
    1.4158   -0.3695   -1.9402 H   0  0  0  0  0  0  0  0  0  0  0  0
    3.6637    2.6087    0.5163 H   0  0  0  0  0  0  0  0  0  0  0  0
    6.0038    1.8113    0.6978 H   0  0  0  0  0  0  0  0  0  0  0  0
    4.7887   -2.2293   -0.0486 H   0  0  0  0  0  0  0  0  0  0  0  0
    7.0738   -0.8755    1.3539 H   0  0  0  0  0  0  0  0  0  0  0  0
    0.9003    1.3679    1.8190 H   0  0  0  0  0  0  0  0  0  0  0  0
   -6.9645    0.7638    0.9585 H   0  0  0  0  0  0  0  0  0  0  0  0
   -6.7775   -0.0922   -0.5909 H   0  0  0  0  0  0  0  0  0  0  0  0
   -6.8024   -1.0086    0.9349 H   0  0  0  0  0  0  0  0  0  0  0  0
  1  2  1  0  0  0  0
  2  3  1  0  0  0  0
  3  4  2  0  0  0  0
  4  5  1  0  0  0  0
  5  6  2  0  0  0  0
  6  7  1  0  0  0  0
  2  7  1  0  0  0  0
  6  8  1  0  0  0  0
  8  9  2  0  0  0  0
  9 10  1  0  0  0  0
 10 11  2  0  0  0  0
  5 11  1  0  0  0  0
 11 12  1  0  0  0  0
 12 13  1  0  0  0  0
 13 14  1  0  0  0  0
 14 15  1  0  0  0  0
 10 15  1  0  0  0  0
 15 16  1  0  0  0  0
 16 17  1  0  0  0  0
 17 18  2  0  0  0  0
 14 18  1  0  0  0  0
 18 19  1  0  0  0  0
 19 20  2  0  0  0  0
 20 21  1  0  0  0  0
 21 22  2  0  0  0  0
 17 22  1  0  0  0  0
 21 23  1  0  0  0  0
 14 24  1  0  0  0  0
  2 25  1  0  0  0  0
  1 26  1  0  0  0  0
  1 27  1  0  0  0  0
  1 28  1  0  0  0  0
  3 29  1  0  0  0  0
  4 30  1  0  0  0  0
  8 31  1  0  0  0  0
  9 32  1  0  0  0  0
 13 33  1  0  0  0  0
 13 34  1  0  0  0  0
 15 35  1  0  0  0  0
 19 36  1  0  0  0  0
 20 37  1  0  0  0  0
 22 38  1  0  0  0  0
 23 39  1  0  0  0  0
 24 40  1  0  0  0  0
 25 41  1  0  0  0  0
 25 42  1  0  0  0  0
 25 43  1  0  0  0  0
M  END
$$$$
