C24H26N2O13
APtclcactv06281816403D 0   0.00000     0.00000
 
 65 68  0  0  0  0  0  0  0  0999 V2000
   -5.9350    1.4767   -0.0397 C   0  0  0  0  0  0  0  0  0  0  0  0
   -7.0835    0.5227    0.3088 C   0  0  0  0  0  0  0  0  0  0  0  0
   -7.1029   -0.5579   -0.6889 N   0  0  0  0  0  0  0  0  0  0  0  0
   -5.9209   -1.2573   -0.9272 C   0  0  0  0  0  0  0  0  0  0  0  0
   -4.7245   -0.6467   -0.6975 C   0  0  0  0  0  0  0  0  0  0  0  0
   -4.6710    0.6792   -0.2348 C   0  0  0  0  0  0  0  0  0  0  0  0
   -3.4662    1.2485    0.0401 C   0  0  0  0  0  0  0  0  0  0  0  0
   -2.2905    0.4737   -0.0199 C   0  0  0  0  0  0  0  0  0  0  0  0
   -1.1365    1.0093    0.2916 N   0  3  0  0  0  0  0  0  0  0  0  0
   -0.9297    2.4296    0.5840 C   0  0  0  0  0  0  0  0  0  0  0  0
    0.5724    2.5619    0.8891 C   0  0  0  0  0  0  0  0  0  0  0  0
    1.1020    1.1529    0.7367 C   0  0  0  0  0  0  0  0  0  0  0  0
    2.3729    0.6407    0.8837 C   0  0  0  0  0  0  0  0  0  0  0  0
    2.6076   -0.7128    0.6863 C   0  0  0  0  0  0  0  0  0  0  0  0
    1.5537   -1.5559    0.3383 C   0  0  0  0  0  0  0  0  0  0  0  0
    0.2797   -1.0495    0.1891 C   0  0  0  0  0  0  0  0  0  0  0  0
    0.0345    0.3205    0.3935 C   0  0  0  0  0  0  0  0  0  0  0  0
    1.7827   -2.8824    0.1446 O   0  0  0  0  0  0  0  0  0  0  0  0
    3.8624   -1.2150    0.8317 O   0  0  0  0  0  0  0  0  0  0  0  0
    4.8931   -0.2921    1.1892 C   0  0  0  0  0  0  0  0  0  0  0  0
    6.1997   -1.0533    1.4280 C   0  0  0  0  0  0  0  0  0  0  0  0
    6.6242   -1.7436    0.1282 C   0  0  0  0  0  0  0  0  0  0  0  0
    6.7585   -0.6905   -0.9760 C   0  0  0  0  0  0  0  0  0  0  0  0
    5.4303    0.0567   -1.1220 C   0  0  0  0  0  0  0  0  0  0  0  0
    5.0785    0.6491    0.1300 O   0  0  0  0  0  0  0  0  0  0  0  0
    5.5742    1.1509   -2.1817 C   0  0  0  0  0  0  0  0  0  0  0  0
    4.3056    1.7709   -2.4015 O   0  0  0  0  0  0  0  0  0  0  0  0
    7.7914    0.2345   -0.6306 O   0  0  0  0  0  0  0  0  0  0  0  0
    7.8807   -2.3962    0.3218 O   0  0  0  0  0  0  0  0  0  0  0  0
    7.2178   -0.1379    1.8371 O   0  0  0  0  0  0  0  0  0  0  0  0
   -1.2964    3.2690   -0.6126 C   0  0  0  0  0  0  0  0  0  0  0  0
   -1.7239    2.7366   -1.6228 O   0  0  0  0  0  0  0  0  0  0  0  0
   -1.1656    4.4805   -0.5707 O   0  5  0  0  0  0  0  0  0  0  0  0
   -5.9646   -2.6415   -1.4216 C   0  0  0  0  0  0  0  0  0  0  0  0
   -7.0349   -3.1810   -1.6242 O   0  0  0  0  0  0  0  0  0  0  0  0
   -4.8171   -3.3125   -1.6501 O   0  0  0  0  0  0  0  0  0  0  0  0
   -6.8634   -0.0575    1.6822 C   0  0  0  0  0  0  0  0  0  0  0  0
   -6.4044   -1.1687    1.8021 O   0  0  0  0  0  0  0  0  0  0  0  0
   -7.1774    0.6602    2.7721 O   0  0  0  0  0  0  0  0  0  0  0  0
   -6.1729    2.0129   -0.9584 H   0  0  0  0  0  0  0  0  0  0  0  0
   -5.7942    2.1894    0.7730 H   0  0  0  0  0  0  0  0  0  0  0  0
   -8.0301    1.0625    0.2846 H   0  0  0  0  0  0  0  0  0  0  0  0
   -7.9170   -0.7783   -1.1682 H   0  0  0  0  0  0  0  0  0  0  0  0
   -3.8066   -1.1880   -0.8731 H   0  0  0  0  0  0  0  0  0  0  0  0
   -3.4109    2.2942    0.3044 H   0  0  0  0  0  0  0  0  0  0  0  0
   -2.3411   -0.5618   -0.3228 H   0  0  0  0  0  0  0  0  0  0  0  0
   -1.5196    2.7272    1.4510 H   0  0  0  0  0  0  0  0  0  0  0  0
    1.0506    3.2296    0.1725 H   0  0  0  0  0  0  0  0  0  0  0  0
    0.7255    2.9196    1.9073 H   0  0  0  0  0  0  0  0  0  0  0  0
    3.1890    1.2948    1.1531 H   0  0  0  0  0  0  0  0  0  0  0  0
   -0.5329   -1.7074   -0.0814 H   0  0  0  0  0  0  0  0  0  0  0  0
    1.6885   -3.4185    0.9438 H   0  0  0  0  0  0  0  0  0  0  0  0
    4.6085    0.2360    2.0993 H   0  0  0  0  0  0  0  0  0  0  0  0
    6.0481   -1.8021    2.2054 H   0  0  0  0  0  0  0  0  0  0  0  0
    5.8709   -2.4777   -0.1577 H   0  0  0  0  0  0  0  0  0  0  0  0
    7.0065   -1.1799   -1.9179 H   0  0  0  0  0  0  0  0  0  0  0  0
    4.6511   -0.6427   -1.4249 H   0  0  0  0  0  0  0  0  0  0  0  0
    6.2891    1.8982   -1.8375 H   0  0  0  0  0  0  0  0  0  0  0  0
    5.9294    0.7101   -3.1131 H   0  0  0  0  0  0  0  0  0  0  0  0
    4.3219    2.4762   -3.0629 H   0  0  0  0  0  0  0  0  0  0  0  0
    8.6615   -0.1718   -0.5172 H   0  0  0  0  0  0  0  0  0  0  0  0
    7.8704   -3.0723    1.0130 H   0  0  0  0  0  0  0  0  0  0  0  0
    7.0130    0.3394    2.6528 H   0  0  0  0  0  0  0  0  0  0  0  0
   -4.8964   -4.2200   -1.9747 H   0  0  0  0  0  0  0  0  0  0  0  0
   -7.0185    0.2460    3.6313 H   0  0  0  0  0  0  0  0  0  0  0  0
  1  2  1  0  0  0  0
  2  3  1  0  0  0  0
  3  4  1  0  0  0  0
  4  5  2  0  0  0  0
  5  6  1  0  0  0  0
  1  6  1  0  0  0  0
  6  7  2  0  0  0  0
  7  8  1  0  0  0  0
  8  9  2  0  0  0  0
  9 10  1  0  0  0  0
 10 11  1  0  0  0  0
 11 12  1  0  0  0  0
 12 13  2  0  0  0  0
 13 14  1  0  0  0  0
 14 15  2  0  0  0  0
 15 16  1  0  0  0  0
 16 17  2  0  0  0  0
 12 17  1  0  0  0  0
  9 17  1  0  0  0  0
 15 18  1  0  0  0  0
 14 19  1  0  0  0  0
 19 20  1  0  0  0  0
 20 21  1  0  0  0  0
 21 22  1  0  0  0  0
 22 23  1  0  0  0  0
 23 24  1  0  0  0  0
 24 25  1  0  0  0  0
 20 25  1  0  0  0  0
 24 26  1  0  0  0  0
 26 27  1  0  0  0  0
 23 28  1  0  0  0  0
 22 29  1  0  0  0  0
 21 30  1  0  0  0  0
 10 31  1  0  0  0  0
 31 32  2  0  0  0  0
 31 33  1  0  0  0  0
  4 34  1  0  0  0  0
 34 35  2  0  0  0  0
 34 36  1  0  0  0  0
  2 37  1  0  0  0  0
 37 38  2  0  0  0  0
 37 39  1  0  0  0  0
  1 40  1  0  0  0  0
  1 41  1  0  0  0  0
  2 42  1  0  0  0  0
  3 43  1  0  0  0  0
  5 44  1  0  0  0  0
  7 45  1  0  0  0  0
  8 46  1  0  0  0  0
 10 47  1  0  0  0  0
 11 48  1  0  0  0  0
 11 49  1  0  0  0  0
 13 50  1  0  0  0  0
 16 51  1  0  0  0  0
 18 52  1  0  0  0  0
 20 53  1  0  0  0  0
 21 54  1  0  0  0  0
 22 55  1  0  0  0  0
 23 56  1  0  0  0  0
 24 57  1  0  0  0  0
 26 58  1  0  0  0  0
 26 59  1  0  0  0  0
 27 60  1  0  0  0  0
 28 61  1  0  0  0  0
 29 62  1  0  0  0  0
 30 63  1  0  0  0  0
 36 64  1  0  0  0  0
 39 65  1  0  0  0  0
M  CHG  2   9   1  33  -1
M  END
$$$$
