C33H41O21
APtclcactv06281816403D 0   0.00000     0.00000
 
 95100  0  0  0  0  0  0  0  0999 V2000
   -2.0374   -1.9851   -1.4770 C   0  0  0  0  0  0  0  0  0  0  0  0
   -3.2107   -2.6195   -1.8263 C   0  0  0  0  0  0  0  0  0  0  0  0
   -4.4216   -1.9492   -1.7266 C   0  0  0  0  0  0  0  0  0  0  0  0
   -4.4566   -0.6320   -1.2734 C   0  0  0  0  0  0  0  0  0  0  0  0
   -3.2836    0.0090   -0.9217 C   0  0  0  0  0  0  0  0  0  0  0  0
   -2.0658   -0.6659   -1.0218 C   0  0  0  0  0  0  0  0  0  0  0  0
   -0.8078    0.0157   -0.6462 C   0  0  0  0  0  0  0  0  0  0  0  0
    0.1734   -0.7149    0.0481 C   0  0  0  0  0  0  0  0  0  0  0  0
    1.3394   -0.0647    0.3898 C   0  0  0  0  0  0  0  0  0  0  0  0
    1.4188    1.2876   -0.0035 C   0  0  0  0  0  0  0  0  0  0  0  0
    2.5524    2.0710    0.2800 C   0  0  0  0  0  0  0  0  0  0  0  0
    2.5878    3.3778   -0.1199 C   0  0  0  0  0  0  0  0  0  0  0  0
    1.5089    3.9394   -0.8057 C   0  0  0  0  0  0  0  0  0  0  0  0
    0.3867    3.1943   -1.0955 C   0  0  0  0  0  0  0  0  0  0  0  0
    0.3190    1.8497   -0.6999 C   0  0  0  0  0  0  0  0  0  0  0  0
   -0.6636    1.1766   -0.9533 O   0  3  0  0  0  0  0  0  0  0  0  0
    1.5664    5.2399   -1.1927 O   0  0  0  0  0  0  0  0  0  0  0  0
    3.6050    1.5325    0.9471 O   0  0  0  0  0  0  0  0  0  0  0  0
    4.7206    2.3893    1.1987 C   0  0  0  0  0  0  0  0  0  0  0  0
    5.7470    1.6509    2.0620 C   0  0  0  0  0  0  0  0  0  0  0  0
    6.2627    0.4291    1.2955 C   0  0  0  0  0  0  0  0  0  0  0  0
    6.8516    0.8900   -0.0414 C   0  0  0  0  0  0  0  0  0  0  0  0
    5.7826    1.6577   -0.8234 C   0  0  0  0  0  0  0  0  0  0  0  0
    5.3240    2.7626   -0.0417 O   0  0  0  0  0  0  0  0  0  0  0  0
    6.3808    2.1731   -2.1339 C   0  0  0  0  0  0  0  0  0  0  0  0
    5.3553    2.7882   -2.9162 O   0  0  0  0  0  0  0  0  0  0  0  0
    7.9723    1.7433    0.1993 O   0  0  0  0  0  0  0  0  0  0  0  0
    7.2748   -0.2248    2.0636 O   0  0  0  0  0  0  0  0  0  0  0  0
    6.8384    2.5244    2.3583 O   0  0  0  0  0  0  0  0  0  0  0  0
   -0.0225   -2.0205    0.3721 O   0  0  0  0  0  0  0  0  0  0  0  0
    1.0313   -2.6790    1.0777 C   0  0  0  0  0  0  0  0  0  0  0  0
    0.5836   -4.0916    1.4620 C   0  0  0  0  0  0  0  0  0  0  0  0
    0.3044   -4.8947    0.1879 C   0  0  0  0  0  0  0  0  0  0  0  0
    1.5635   -4.9012   -0.6845 C   0  0  0  0  0  0  0  0  0  0  0  0
    1.9734   -3.4573   -0.9860 C   0  0  0  0  0  0  0  0  0  0  0  0
    2.1877   -2.7581    0.2418 O   0  0  0  0  0  0  0  0  0  0  0  0
    3.2644   -3.4542   -1.8070 C   0  0  0  0  0  0  0  0  0  0  0  0
    3.5840   -2.1143   -2.1872 O   0  0  0  0  0  0  0  0  0  0  0  0
    2.6224   -5.5631    0.0102 O   0  0  0  0  0  0  0  0  0  0  0  0
   -0.0433   -6.2366    0.5352 O   0  0  0  0  0  0  0  0  0  0  0  0
    1.6166   -4.7321    2.2136 O   0  0  0  0  0  0  0  0  0  0  0  0
   -5.6446    0.0228   -1.1775 O   0  0  0  0  0  0  0  0  0  0  0  0
   -5.6060    1.3710   -0.7053 C   0  0  0  0  0  0  0  0  0  0  0  0
   -7.0086    1.9796   -0.7831 C   0  0  0  0  0  0  0  0  0  0  0  0
   -7.9497    1.1926    0.1342 C   0  0  0  0  0  0  0  0  0  0  0  0
   -7.3874    1.2083    1.5589 C   0  0  0  0  0  0  0  0  0  0  0  0
   -5.9702    0.6296    1.5462 C   0  0  0  0  0  0  0  0  0  0  0  0
   -5.1552    1.3884    0.6506 O   0  0  0  0  0  0  0  0  0  0  0  0
   -5.3788    0.6971    2.9557 C   0  0  0  0  0  0  0  0  0  0  0  0
   -4.1036    0.0523    2.9686 O   0  0  0  0  0  0  0  0  0  0  0  0
   -7.3500    2.5524    2.0428 O   0  0  0  0  0  0  0  0  0  0  0  0
   -9.2439    1.7984    0.1244 O   0  0  0  0  0  0  0  0  0  0  0  0
   -6.9612    3.3441   -0.3613 O   0  0  0  0  0  0  0  0  0  0  0  0
   -5.5753   -2.5784   -2.0720 O   0  0  0  0  0  0  0  0  0  0  0  0
   -1.0967   -2.5105   -1.5512 H   0  0  0  0  0  0  0  0  0  0  0  0
   -3.1871   -3.6401   -2.1787 H   0  0  0  0  0  0  0  0  0  0  0  0
   -3.3092    1.0300   -0.5706 H   0  0  0  0  0  0  0  0  0  0  0  0
    2.1388   -0.5574    0.9232 H   0  0  0  0  0  0  0  0  0  0  0  0
    3.4571    3.9808    0.0967 H   0  0  0  0  0  0  0  0  0  0  0  0
   -0.4392    3.6444   -1.6262 H   0  0  0  0  0  0  0  0  0  0  0  0
    1.9442    5.3720   -2.0730 H   0  0  0  0  0  0  0  0  0  0  0  0
    4.3816    3.2834    1.7219 H   0  0  0  0  0  0  0  0  0  0  0  0
    5.2763    1.3267    2.9901 H   0  0  0  0  0  0  0  0  0  0  0  0
    5.4390   -0.2610    1.1126 H   0  0  0  0  0  0  0  0  0  0  0  0
    7.1710    0.0215   -0.6174 H   0  0  0  0  0  0  0  0  0  0  0  0
    4.9455    0.9946   -1.0417 H   0  0  0  0  0  0  0  0  0  0  0  0
    7.1589    2.9044   -1.9152 H   0  0  0  0  0  0  0  0  0  0  0  0
    6.8111    1.3399   -2.6894 H   0  0  0  0  0  0  0  0  0  0  0  0
    5.6635    3.1388   -3.7631 H   0  0  0  0  0  0  0  0  0  0  0  0
    8.6876    1.3225    0.6958 H   0  0  0  0  0  0  0  0  0  0  0  0
    6.9727   -0.5373    2.9274 H   0  0  0  0  0  0  0  0  0  0  0  0
    6.5833    3.3233    2.8397 H   0  0  0  0  0  0  0  0  0  0  0  0
    1.2723   -2.1160    1.9794 H   0  0  0  0  0  0  0  0  0  0  0  0
   -0.3239   -4.0351    2.0632 H   0  0  0  0  0  0  0  0  0  0  0  0
   -0.5170   -4.4342   -0.3608 H   0  0  0  0  0  0  0  0  0  0  0  0
    1.3568   -5.4237   -1.6185 H   0  0  0  0  0  0  0  0  0  0  0  0
    1.1819   -2.9652   -1.5511 H   0  0  0  0  0  0  0  0  0  0  0  0
    4.0769   -3.8655   -1.2079 H   0  0  0  0  0  0  0  0  0  0  0  0
    3.1280   -4.0629   -2.7009 H   0  0  0  0  0  0  0  0  0  0  0  0
    4.3927   -2.0365   -2.7115 H   0  0  0  0  0  0  0  0  0  0  0  0
    2.4290   -6.4828    0.2379 H   0  0  0  0  0  0  0  0  0  0  0  0
   -0.8293   -6.3070    1.0941 H   0  0  0  0  0  0  0  0  0  0  0  0
    1.8486   -4.2739    3.0329 H   0  0  0  0  0  0  0  0  0  0  0  0
   -4.9224    1.9532   -1.3233 H   0  0  0  0  0  0  0  0  0  0  0  0
   -7.3721    1.9270   -1.8094 H   0  0  0  0  0  0  0  0  0  0  0  0
   -8.0248    0.1634   -0.2169 H   0  0  0  0  0  0  0  0  0  0  0  0
   -8.0218    0.6042    2.2076 H   0  0  0  0  0  0  0  0  0  0  0  0
   -6.0044   -0.4085    1.2155 H   0  0  0  0  0  0  0  0  0  0  0  0
   -5.2618    1.7398    3.2510 H   0  0  0  0  0  0  0  0  0  0  0  0
   -6.0472    0.1943    3.6546 H   0  0  0  0  0  0  0  0  0  0  0  0
   -3.6692    0.0571    3.8325 H   0  0  0  0  0  0  0  0  0  0  0  0
   -8.2150    2.9837    2.0731 H   0  0  0  0  0  0  0  0  0  0  0  0
   -9.6574    1.8287   -0.7493 H   0  0  0  0  0  0  0  0  0  0  0  0
   -6.3790    3.9011   -0.8959 H   0  0  0  0  0  0  0  0  0  0  0  0
   -6.0006   -3.0488   -1.3420 H   0  0  0  0  0  0  0  0  0  0  0  0
  1  2  2  0  0  0  0
  2  3  1  0  0  0  0
  3  4  2  0  0  0  0
  4  5  1  0  0  0  0
  5  6  2  0  0  0  0
  1  6  1  0  0  0  0
  6  7  1  0  0  0  0
  7  8  2  0  0  0  0
  8  9  1  0  0  0  0
  9 10  2  0  0  0  0
 10 11  1  0  0  0  0
 11 12  2  0  0  0  0
 12 13  1  0  0  0  0
 13 14  2  0  0  0  0
 14 15  1  0  0  0  0
 10 15  1  0  0  0  0
 15 16  2  0  0  0  0
  7 16  1  0  0  0  0
 13 17  1  0  0  0  0
 11 18  1  0  0  0  0
 18 19  1  0  0  0  0
 19 20  1  0  0  0  0
 20 21  1  0  0  0  0
 21 22  1  0  0  0  0
 22 23  1  0  0  0  0
 23 24  1  0  0  0  0
 19 24  1  0  0  0  0
 23 25  1  0  0  0  0
 25 26  1  0  0  0  0
 22 27  1  0  0  0  0
 21 28  1  0  0  0  0
 20 29  1  0  0  0  0
  8 30  1  0  0  0  0
 30 31  1  0  0  0  0
 31 32  1  0  0  0  0
 32 33  1  0  0  0  0
 33 34  1  0  0  0  0
 34 35  1  0  0  0  0
 35 36  1  0  0  0  0
 31 36  1  0  0  0  0
 35 37  1  0  0  0  0
 37 38  1  0  0  0  0
 34 39  1  0  0  0  0
 33 40  1  0  0  0  0
 32 41  1  0  0  0  0
  4 42  1  0  0  0  0
 42 43  1  0  0  0  0
 43 44  1  0  0  0  0
 44 45  1  0  0  0  0
 45 46  1  0  0  0  0
 46 47  1  0  0  0  0
 47 48  1  0  0  0  0
 43 48  1  0  0  0  0
 47 49  1  0  0  0  0
 49 50  1  0  0  0  0
 46 51  1  0  0  0  0
 45 52  1  0  0  0  0
 44 53  1  0  0  0  0
  3 54  1  0  0  0  0
  1 55  1  0  0  0  0
  2 56  1  0  0  0  0
  5 57  1  0  0  0  0
  9 58  1  0  0  0  0
 12 59  1  0  0  0  0
 14 60  1  0  0  0  0
 17 61  1  0  0  0  0
 19 62  1  0  0  0  0
 20 63  1  0  0  0  0
 21 64  1  0  0  0  0
 22 65  1  0  0  0  0
 23 66  1  0  0  0  0
 25 67  1  0  0  0  0
 25 68  1  0  0  0  0
 26 69  1  0  0  0  0
 27 70  1  0  0  0  0
 28 71  1  0  0  0  0
 29 72  1  0  0  0  0
 31 73  1  0  0  0  0
 32 74  1  0  0  0  0
 33 75  1  0  0  0  0
 34 76  1  0  0  0  0
 35 77  1  0  0  0  0
 37 78  1  0  0  0  0
 37 79  1  0  0  0  0
 38 80  1  0  0  0  0
 39 81  1  0  0  0  0
 40 82  1  0  0  0  0
 41 83  1  0  0  0  0
 43 84  1  0  0  0  0
 44 85  1  0  0  0  0
 45 86  1  0  0  0  0
 46 87  1  0  0  0  0
 47 88  1  0  0  0  0
 49 89  1  0  0  0  0
 49 90  1  0  0  0  0
 50 91  1  0  0  0  0
 51 92  1  0  0  0  0
 52 93  1  0  0  0  0
 53 94  1  0  0  0  0
 54 95  1  0  0  0  0
M  CHG  1  16   1
M  END
$$$$
