C17H14O6
APtclcactv06281816403D 0   0.00000     0.00000
 
 37 41  0  0  0  0  0  0  0  0999 V2000
   -6.5584    1.1365    0.6359 C   0  0  0  0  0  0  0  0  0  0  0  0
   -5.8296   -0.0692    0.3969 O   0  0  0  0  0  0  0  0  0  0  0  0
   -4.5125    0.0572    0.0869 C   0  0  0  0  0  0  0  0  0  0  0  0
   -3.7512   -1.0745   -0.1560 C   0  0  0  0  0  0  0  0  0  0  0  0
   -2.4069   -0.9552   -0.4723 C   0  0  0  0  0  0  0  0  0  0  0  0
   -1.8401    0.3272   -0.5225 C   0  0  0  0  0  0  0  0  0  0  0  0
   -2.5949    1.4462   -0.2913 C   0  0  0  0  0  0  0  0  0  0  0  0
   -3.9405    1.3195    0.0103 C   0  0  0  0  0  0  0  0  0  0  0  0
   -0.3764    0.3460   -0.8160 C   0  0  0  0  0  0  0  0  0  0  0  0
    0.1852   -0.7924    0.1054 C   0  0  0  0  0  0  0  0  0  0  0  0
   -0.2522   -2.0979   -0.5111 C   0  0  0  0  0  0  0  0  0  0  0  0
   -1.6642   -2.0529   -0.7532 O   0  0  0  0  0  0  0  0  0  0  0  0
    1.6244   -0.4284    0.1185 C   0  0  0  0  0  0  0  0  0  0  0  0
    2.7616   -1.1877    0.3373 C   0  0  0  0  0  0  0  0  0  0  0  0
    3.9623   -0.4788    0.2828 C   0  0  0  0  0  0  0  0  0  0  0  0
    4.0103    0.8978    0.0248 C   0  0  0  0  0  0  0  0  0  0  0  0
    2.8656    1.6610   -0.2011 C   0  0  0  0  0  0  0  0  0  0  0  0
    1.6620    0.9548   -0.1516 C   0  0  0  0  0  0  0  0  0  0  0  0
    0.4045    1.4451   -0.3672 O   0  0  0  0  0  0  0  0  0  0  0  0
    5.3044    1.2982    0.0394 O   0  0  0  0  0  0  0  0  0  0  0  0
    6.0837    0.0908   -0.0846 C   0  0  0  0  0  0  0  0  0  0  0  0
    5.2261   -0.9357    0.4553 O   0  0  0  0  0  0  0  0  0  0  0  0
   -0.3637   -0.6687    1.4190 O   0  0  0  0  0  0  0  0  0  0  0  0
   -6.1106    1.6718    1.4731 H   0  0  0  0  0  0  0  0  0  0  0  0
   -6.5261    1.7633   -0.2553 H   0  0  0  0  0  0  0  0  0  0  0  0
   -7.5945    0.8939    0.8721 H   0  0  0  0  0  0  0  0  0  0  0  0
   -4.2062   -2.0523   -0.0983 H   0  0  0  0  0  0  0  0  0  0  0  0
   -2.1428    2.4253   -0.3483 H   0  0  0  0  0  0  0  0  0  0  0  0
   -4.5404    2.1988    0.1934 H   0  0  0  0  0  0  0  0  0  0  0  0
   -0.1891    0.1295   -1.8677 H   0  0  0  0  0  0  0  0  0  0  0  0
    0.2743   -2.2505   -1.4532 H   0  0  0  0  0  0  0  0  0  0  0  0
   -0.0254   -2.9172    0.1711 H   0  0  0  0  0  0  0  0  0  0  0  0
    2.7222   -2.2487    0.5349 H   0  0  0  0  0  0  0  0  0  0  0  0
    2.9067    2.7219   -0.3992 H   0  0  0  0  0  0  0  0  0  0  0  0
    6.3100   -0.1120   -1.1314 H   0  0  0  0  0  0  0  0  0  0  0  0
    7.0018    0.1671    0.4979 H   0  0  0  0  0  0  0  0  0  0  0  0
   -0.0560   -1.3440    2.0390 H   0  0  0  0  0  0  0  0  0  0  0  0
  1  2  1  0  0  0  0
  2  3  1  0  0  0  0
  3  4  2  0  0  0  0
  4  5  1  0  0  0  0
  5  6  2  0  0  0  0
  6  7  1  0  0  0  0
  7  8  2  0  0  0  0
  3  8  1  0  0  0  0
  6  9  1  0  0  0  0
  9 10  1  0  0  0  0
 10 11  1  0  0  0  0
 11 12  1  0  0  0  0
  5 12  1  0  0  0  0
 10 13  1  0  0  0  0
 13 14  2  0  0  0  0
 14 15  1  0  0  0  0
 15 16  2  0  0  0  0
 16 17  1  0  0  0  0
 17 18  2  0  0  0  0
 13 18  1  0  0  0  0
 18 19  1  0  0  0  0
  9 19  1  0  0  0  0
 16 20  1  0  0  0  0
 20 21  1  0  0  0  0
 21 22  1  0  0  0  0
 15 22  1  0  0  0  0
 10 23  1  0  0  0  0
  1 24  1  0  0  0  0
  1 25  1  0  0  0  0
  1 26  1  0  0  0  0
  4 27  1  0  0  0  0
  7 28  1  0  0  0  0
  8 29  1  0  0  0  0
  9 30  1  0  0  0  0
 11 31  1  0  0  0  0
 11 32  1  0  0  0  0
 14 33  1  0  0  0  0
 17 34  1  0  0  0  0
 21 35  1  0  0  0  0
 21 36  1  0  0  0  0
 23 37  1  0  0  0  0
M  END
$$$$
