C20H20O4
APtclcactv06281816403D 0   0.00000     0.00000
 
 44 47  0  0  0  0  0  0  0  0999 V2000
   -5.0681    1.6985   -1.0360 C   0  0  0  0  0  0  0  0  0  0  0  0
   -5.3143    0.4662   -0.1632 C   0  0  0  0  0  0  0  0  0  0  0  0
   -5.0437   -0.7760   -0.9703 C   0  0  0  0  0  0  0  0  0  0  0  0
   -3.8175   -1.2948   -1.0037 C   0  0  0  0  0  0  0  0  0  0  0  0
   -2.7575   -0.6241   -0.2221 C   0  0  0  0  0  0  0  0  0  0  0  0
   -3.1368    0.2878    0.7723 C   0  0  0  0  0  0  0  0  0  0  0  0
   -4.4584    0.5194    0.9788 O   0  0  0  0  0  0  0  0  0  0  0  0
   -2.1674    0.9310    1.5195 C   0  0  0  0  0  0  0  0  0  0  0  0
   -0.8286    0.6723    1.2832 C   0  0  0  0  0  0  0  0  0  0  0  0
   -0.4474   -0.2261    0.3034 C   0  0  0  0  0  0  0  0  0  0  0  0
   -1.4065   -0.8812   -0.4551 C   0  0  0  0  0  0  0  0  0  0  0  0
   -1.0331   -1.7641   -1.4174 O   0  0  0  0  0  0  0  0  0  0  0  0
    1.0152   -0.4948    0.0593 C   0  0  0  0  0  0  0  0  0  0  0  0
    1.7190    0.8047   -0.3393 C   0  0  0  0  0  0  0  0  0  0  0  0
    3.2133    0.6076   -0.2947 C   0  0  0  0  0  0  0  0  0  0  0  0
    3.7806   -0.4493    0.3962 C   0  0  0  0  0  0  0  0  0  0  0  0
    5.1633   -0.5956    0.4197 C   0  0  0  0  0  0  0  0  0  0  0  0
    5.9704    0.3101   -0.2476 C   0  0  0  0  0  0  0  0  0  0  0  0
    5.3962    1.3661   -0.9416 C   0  0  0  0  0  0  0  0  0  0  0  0
    4.0239    1.5109   -0.9629 C   0  0  0  0  0  0  0  0  0  0  0  0
    7.3214    0.1658   -0.2226 O   0  0  0  0  0  0  0  0  0  0  0  0
    3.0220   -1.3630    1.0559 O   0  0  0  0  0  0  0  0  0  0  0  0
    1.6660   -1.0205    1.3451 C   0  0  0  0  0  0  0  0  0  0  0  0
   -6.7725    0.4593    0.2999 C   0  0  0  0  0  0  0  0  0  0  0  0
   -5.7335    1.6714   -1.8989 H   0  0  0  0  0  0  0  0  0  0  0  0
   -5.2630    2.6000   -0.4551 H   0  0  0  0  0  0  0  0  0  0  0  0
   -4.0324    1.7021   -1.3758 H   0  0  0  0  0  0  0  0  0  0  0  0
   -5.8442   -1.2465   -1.5219 H   0  0  0  0  0  0  0  0  0  0  0  0
   -3.6042   -2.1799   -1.5847 H   0  0  0  0  0  0  0  0  0  0  0  0
   -2.4547    1.6348    2.2866 H   0  0  0  0  0  0  0  0  0  0  0  0
   -0.0746    1.1768    1.8692 H   0  0  0  0  0  0  0  0  0  0  0  0
   -0.9463   -2.6746   -1.1035 H   0  0  0  0  0  0  0  0  0  0  0  0
    1.1255   -1.2313   -0.7366 H   0  0  0  0  0  0  0  0  0  0  0  0
    1.4200    1.0840   -1.3496 H   0  0  0  0  0  0  0  0  0  0  0  0
    1.4369    1.5972    0.3539 H   0  0  0  0  0  0  0  0  0  0  0  0
    5.6087   -1.4177    0.9602 H   0  0  0  0  0  0  0  0  0  0  0  0
    6.0227    2.0739   -1.4641 H   0  0  0  0  0  0  0  0  0  0  0  0
    3.5793    2.3333   -1.5036 H   0  0  0  0  0  0  0  0  0  0  0  0
    7.6724   -0.3760   -0.9426 H   0  0  0  0  0  0  0  0  0  0  0  0
    1.6383   -0.2475    2.1131 H   0  0  0  0  0  0  0  0  0  0  0  0
    1.1304   -1.9038    1.6931 H   0  0  0  0  0  0  0  0  0  0  0  0
   -7.4296    0.4286   -0.5692 H   0  0  0  0  0  0  0  0  0  0  0  0
   -6.9519   -0.4175    0.9222 H   0  0  0  0  0  0  0  0  0  0  0  0
   -6.9748    1.3618    0.8767 H   0  0  0  0  0  0  0  0  0  0  0  0
  1  2  1  0  0  0  0
  2  3  1  0  0  0  0
  3  4  2  0  0  0  0
  4  5  1  0  0  0  0
  5  6  2  0  0  0  0
  6  7  1  0  0  0  0
  2  7  1  0  0  0  0
  6  8  1  0  0  0  0
  8  9  2  0  0  0  0
  9 10  1  0  0  0  0
 10 11  2  0  0  0  0
  5 11  1  0  0  0  0
 11 12  1  0  0  0  0
 10 13  1  0  0  0  0
 13 14  1  0  0  0  0
 14 15  1  0  0  0  0
 15 16  2  0  0  0  0
 16 17  1  0  0  0  0
 17 18  2  0  0  0  0
 18 19  1  0  0  0  0
 19 20  2  0  0  0  0
 15 20  1  0  0  0  0
 18 21  1  0  0  0  0
 16 22  1  0  0  0  0
 22 23  1  0  0  0  0
 13 23  1  0  0  0  0
  2 24  1  0  0  0  0
  1 25  1  0  0  0  0
  1 26  1  0  0  0  0
  1 27  1  0  0  0  0
  3 28  1  0  0  0  0
  4 29  1  0  0  0  0
  8 30  1  0  0  0  0
  9 31  1  0  0  0  0
 12 32  1  0  0  0  0
 13 33  1  0  0  0  0
 14 34  1  0  0  0  0
 14 35  1  0  0  0  0
 17 36  1  0  0  0  0
 19 37  1  0  0  0  0
 20 38  1  0  0  0  0
 21 39  1  0  0  0  0
 23 40  1  0  0  0  0
 23 41  1  0  0  0  0
 24 42  1  0  0  0  0
 24 43  1  0  0  0  0
 24 44  1  0  0  0  0
M  END
$$$$
