C22H24O8
APtclcactv06281816403D 0   0.00000     0.00000
 
 54 57  0  0  0  0  0  0  0  0999 V2000
    0.2867    4.2937    0.4733 C   0  0  0  0  0  0  0  0  0  0  0  0
    0.0934    2.8142    0.2617 C   0  0  0  0  0  0  0  0  0  0  0  0
   -0.8158    2.4161   -0.4273 O   0  0  0  0  0  0  0  0  0  0  0  0
    0.9313    1.9386    0.8387 O   0  0  0  0  0  0  0  0  0  0  0  0
    0.6850    0.5292    0.5912 C   0  0  0  0  0  0  0  0  0  0  0  0
    0.7781    0.1551   -0.9036 C   0  0  0  0  0  0  0  0  0  0  0  0
   -0.5895    0.1224   -1.3651 O   0  0  0  0  0  0  0  0  0  0  0  0
   -1.3339   -0.5108   -0.3024 C   0  0  0  0  0  0  0  0  0  0  0  0
   -0.7482    0.0774    0.9992 C   0  0  0  0  0  0  0  0  0  0  0  0
   -0.5017   -1.0747    1.9967 C   0  0  0  0  0  0  0  0  0  0  0  0
    0.8098   -1.5795    1.6658 O   0  0  0  0  0  0  0  0  0  0  0  0
    1.6249   -0.3962    1.3933 C   0  0  0  0  0  0  0  0  0  0  0  0
    2.8343   -0.7700    0.5755 C   0  0  0  0  0  0  0  0  0  0  0  0
    3.9316    0.0703    0.5432 C   0  0  0  0  0  0  0  0  0  0  0  0
    5.0443   -0.2720   -0.2082 C   0  0  0  0  0  0  0  0  0  0  0  0
    5.0541   -1.4622   -0.9290 C   0  0  0  0  0  0  0  0  0  0  0  0
    3.9510   -2.2999   -0.8923 C   0  0  0  0  0  0  0  0  0  0  0  0
    2.8462   -1.9552   -0.1361 C   0  0  0  0  0  0  0  0  0  0  0  0
    6.1437   -1.8023   -1.6683 O   0  0  0  0  0  0  0  0  0  0  0  0
    6.1244    0.5537   -0.2415 O   0  0  0  0  0  0  0  0  0  0  0  0
    6.0436    1.7587    0.5225 C   0  0  0  0  0  0  0  0  0  0  0  0
   -2.7985   -0.1750   -0.4165 C   0  0  0  0  0  0  0  0  0  0  0  0
   -3.7505   -1.1036   -0.0388 C   0  0  0  0  0  0  0  0  0  0  0  0
   -5.0976   -0.7964   -0.1431 C   0  0  0  0  0  0  0  0  0  0  0  0
   -5.4888    0.4477   -0.6283 C   0  0  0  0  0  0  0  0  0  0  0  0
   -4.5296    1.3739   -1.0051 C   0  0  0  0  0  0  0  0  0  0  0  0
   -3.1872    1.0632   -0.8932 C   0  0  0  0  0  0  0  0  0  0  0  0
   -6.8098    0.7537   -0.7329 O   0  0  0  0  0  0  0  0  0  0  0  0
   -6.0353   -1.7090    0.2275 O   0  0  0  0  0  0  0  0  0  0  0  0
   -5.5606   -2.9652    0.7160 C   0  0  0  0  0  0  0  0  0  0  0  0
   -0.4836    4.8420   -0.0691 H   0  0  0  0  0  0  0  0  0  0  0  0
    0.2139    4.5212    1.5368 H   0  0  0  0  0  0  0  0  0  0  0  0
    1.2695    4.5880    0.1052 H   0  0  0  0  0  0  0  0  0  0  0  0
    1.3440    0.9105   -1.4487 H   0  0  0  0  0  0  0  0  0  0  0  0
    1.2413   -0.8246   -1.0209 H   0  0  0  0  0  0  0  0  0  0  0  0
   -1.1886   -1.5907   -0.3292 H   0  0  0  0  0  0  0  0  0  0  0  0
   -1.3521    0.8867    1.4095 H   0  0  0  0  0  0  0  0  0  0  0  0
   -0.5162   -0.6995    3.0200 H   0  0  0  0  0  0  0  0  0  0  0  0
   -1.2518   -1.8548    1.8676 H   0  0  0  0  0  0  0  0  0  0  0  0
    1.9292    0.0776    2.3266 H   0  0  0  0  0  0  0  0  0  0  0  0
    3.9213    0.9936    1.1033 H   0  0  0  0  0  0  0  0  0  0  0  0
    3.9560   -3.2243   -1.4509 H   0  0  0  0  0  0  0  0  0  0  0  0
    1.9870   -2.6090   -0.1083 H   0  0  0  0  0  0  0  0  0  0  0  0
    6.8013   -2.3204   -1.1844 H   0  0  0  0  0  0  0  0  0  0  0  0
    5.8951    1.5130    1.5740 H   0  0  0  0  0  0  0  0  0  0  0  0
    6.9687    2.3238    0.4086 H   0  0  0  0  0  0  0  0  0  0  0  0
    5.2054    2.3584    0.1676 H   0  0  0  0  0  0  0  0  0  0  0  0
   -3.4442   -2.0686    0.3371 H   0  0  0  0  0  0  0  0  0  0  0  0
   -4.8306    2.3402   -1.3820 H   0  0  0  0  0  0  0  0  0  0  0  0
   -2.4405    1.7860   -1.1872 H   0  0  0  0  0  0  0  0  0  0  0  0
   -7.1819    1.1659    0.0587 H   0  0  0  0  0  0  0  0  0  0  0  0
   -4.9655   -3.4536   -0.0556 H   0  0  0  0  0  0  0  0  0  0  0  0
   -4.9451   -2.8019    1.6006 H   0  0  0  0  0  0  0  0  0  0  0  0
   -6.4091   -3.5982    0.9755 H   0  0  0  0  0  0  0  0  0  0  0  0
  1  2  1  0  0  0  0
  2  3  2  0  0  0  0
  2  4  1  0  0  0  0
  4  5  1  0  0  0  0
  5  6  1  0  0  0  0
  6  7  1  0  0  0  0
  7  8  1  0  0  0  0
  8  9  1  0  0  0  0
  5  9  1  0  0  0  0
  9 10  1  0  0  0  0
 10 11  1  0  0  0  0
 11 12  1  0  0  0  0
  5 12  1  0  0  0  0
 12 13  1  0  0  0  0
 13 14  2  0  0  0  0
 14 15  1  0  0  0  0
 15 16  2  0  0  0  0
 16 17  1  0  0  0  0
 17 18  2  0  0  0  0
 13 18  1  0  0  0  0
 16 19  1  0  0  0  0
 15 20  1  0  0  0  0
 20 21  1  0  0  0  0
  8 22  1  0  0  0  0
 22 23  2  0  0  0  0
 23 24  1  0  0  0  0
 24 25  2  0  0  0  0
 25 26  1  0  0  0  0
 26 27  2  0  0  0  0
 22 27  1  0  0  0  0
 25 28  1  0  0  0  0
 24 29  1  0  0  0  0
 29 30  1  0  0  0  0
  1 31  1  0  0  0  0
  1 32  1  0  0  0  0
  1 33  1  0  0  0  0
  6 34  1  0  0  0  0
  6 35  1  0  0  0  0
  8 36  1  0  0  0  0
  9 37  1  0  0  0  0
 10 38  1  0  0  0  0
 10 39  1  0  0  0  0
 12 40  1  0  0  0  0
 14 41  1  0  0  0  0
 17 42  1  0  0  0  0
 18 43  1  0  0  0  0
 19 44  1  0  0  0  0
 21 45  1  0  0  0  0
 21 46  1  0  0  0  0
 21 47  1  0  0  0  0
 23 48  1  0  0  0  0
 26 49  1  0  0  0  0
 27 50  1  0  0  0  0
 28 51  1  0  0  0  0
 30 52  1  0  0  0  0
 30 53  1  0  0  0  0
 30 54  1  0  0  0  0
M  END
$$$$
