C7H13NO3
APtclcactv06281816403D 0   0.00000     0.00000
 
 24 25  0  0  0  0  0  0  0  0999 V2000
    1.3182   -0.8533   -1.1234 C   0  0  0  0  0  0  0  0  0  0  0  0
   -0.1813   -0.5799   -1.3627 C   0  0  0  0  0  0  0  0  0  0  0  0
   -0.8286   -0.6688    0.0386 C   0  0  0  0  0  0  0  0  0  0  0  0
   -0.7631    0.7283    0.6762 C   0  0  0  0  0  0  0  0  0  0  0  0
    0.6538    1.2843    0.5073 C   0  0  0  0  0  0  0  0  0  0  0  0
    1.6712    0.2846    1.0645 C   0  0  0  0  0  0  0  0  0  0  0  0
    1.4407   -1.0824    0.4006 C   0  0  0  0  0  0  0  0  0  0  0  0
    0.0892   -1.5488    0.8099 N   0  0  0  0  0  0  0  0  0  0  0  0
    0.9154    1.5053   -0.8801 O   0  0  0  0  0  0  0  0  0  0  0  0
   -1.6974    1.5943    0.0288 O   0  0  0  0  0  0  0  0  0  0  0  0
   -2.1642   -1.1742   -0.0142 O   0  0  0  0  0  0  0  0  0  0  0  0
    1.6329   -1.7438   -1.6674 H   0  0  0  0  0  0  0  0  0  0  0  0
    1.9138    0.0077   -1.4267 H   0  0  0  0  0  0  0  0  0  0  0  0
   -0.3230    0.4156   -1.7835 H   0  0  0  0  0  0  0  0  0  0  0  0
   -0.6039   -1.3360   -2.0243 H   0  0  0  0  0  0  0  0  0  0  0  0
   -1.0032    0.6571    1.7371 H   0  0  0  0  0  0  0  0  0  0  0  0
    0.7397    2.2277    1.0464 H   0  0  0  0  0  0  0  0  0  0  0  0
    2.6812    0.6312    0.8455 H   0  0  0  0  0  0  0  0  0  0  0  0
    1.5406    0.1935    2.1428 H   0  0  0  0  0  0  0  0  0  0  0  0
    2.2259   -1.7967    0.6482 H   0  0  0  0  0  0  0  0  0  0  0  0
   -0.0481   -1.4328    1.8027 H   0  0  0  0  0  0  0  0  0  0  0  0
    1.7970    1.8580   -1.0628 H   0  0  0  0  0  0  0  0  0  0  0  0
   -1.7093    2.4944    0.3818 H   0  0  0  0  0  0  0  0  0  0  0  0
   -2.7648   -0.6427   -0.5545 H   0  0  0  0  0  0  0  0  0  0  0  0
  1  2  1  0  0  0  0
  2  3  1  0  0  0  0
  3  4  1  0  0  0  0
  4  5  1  0  0  0  0
  5  6  1  0  0  0  0
  6  7  1  0  0  0  0
  1  7  1  0  0  0  0
  7  8  1  0  0  0  0
  3  8  1  0  0  0  0
  5  9  1  0  0  0  0
  4 10  1  0  0  0  0
  3 11  1  0  0  0  0
  1 12  1  0  0  0  0
  1 13  1  0  0  0  0
  2 14  1  0  0  0  0
  2 15  1  0  0  0  0
  4 16  1  0  0  0  0
  5 17  1  0  0  0  0
  6 18  1  0  0  0  0
  6 19  1  0  0  0  0
  7 20  1  0  0  0  0
  8 21  1  0  0  0  0
  9 22  1  0  0  0  0
 10 23  1  0  0  0  0
 11 24  1  0  0  0  0
M  END
$$$$
