C20H20O7
APtclcactv06281816403D 0   0.00000     0.00000
 
 47 51  0  0  0  0  0  0  0  0999 V2000
    6.8566    2.3643   -0.3994 C   0  0  0  0  0  0  0  0  0  0  0  0
    7.0526    0.9605   -0.2178 O   0  0  0  0  0  0  0  0  0  0  0  0
    5.9431    0.2055    0.0021 C   0  0  0  0  0  0  0  0  0  0  0  0
    6.0609   -1.1684    0.1872 C   0  0  0  0  0  0  0  0  0  0  0  0
    4.9296   -1.9359    0.4111 C   0  0  0  0  0  0  0  0  0  0  0  0
    3.6840   -1.3378    0.4502 C   0  0  0  0  0  0  0  0  0  0  0  0
    3.5640    0.0315    0.2655 C   0  0  0  0  0  0  0  0  0  0  0  0
    4.6946    0.8042    0.0477 C   0  0  0  0  0  0  0  0  0  0  0  0
    2.3375    0.6174    0.3035 O   0  0  0  0  0  0  0  0  0  0  0  0
    1.2169   -0.2378    0.5379 C   0  0  0  0  0  0  0  0  0  0  0  0
   -0.0799    0.5936    0.6758 C   0  0  0  0  0  0  0  0  0  0  0  0
   -0.1197    1.6377   -0.4653 C   0  0  0  0  0  0  0  0  0  0  0  0
   -1.5173    1.7119   -0.8160 O   0  0  0  0  0  0  0  0  0  0  0  0
   -2.0304    0.3705   -0.7780 C   0  0  0  0  0  0  0  0  0  0  0  0
   -1.1766   -0.4224    0.2287 C   0  0  0  0  0  0  0  0  0  0  0  0
   -0.3935   -1.5110   -0.5274 C   0  0  0  0  0  0  0  0  0  0  0  0
    0.9740   -1.0783   -0.6086 O   0  0  0  0  0  0  0  0  0  0  0  0
   -3.4689    0.3853   -0.3291 C   0  0  0  0  0  0  0  0  0  0  0  0
   -4.3582   -0.5455   -0.8328 C   0  0  0  0  0  0  0  0  0  0  0  0
   -5.6811   -0.5340   -0.4212 C   0  0  0  0  0  0  0  0  0  0  0  0
   -6.1115    0.4171    0.5005 C   0  0  0  0  0  0  0  0  0  0  0  0
   -5.2148    1.3474    1.0005 C   0  0  0  0  0  0  0  0  0  0  0  0
   -3.8950    1.3262    0.5899 C   0  0  0  0  0  0  0  0  0  0  0  0
   -7.4406    0.2207    0.7417 O   0  0  0  0  0  0  0  0  0  0  0  0
   -7.7240   -1.1105    0.2718 C   0  0  0  0  0  0  0  0  0  0  0  0
   -6.7405   -1.3264   -0.7575 O   0  0  0  0  0  0  0  0  0  0  0  0
    7.2867   -1.7580    0.1480 O   0  0  0  0  0  0  0  0  0  0  0  0
    6.2121    2.5326   -1.2622 H   0  0  0  0  0  0  0  0  0  0  0  0
    6.3885    2.7840    0.4911 H   0  0  0  0  0  0  0  0  0  0  0  0
    7.8196    2.8472   -0.5655 H   0  0  0  0  0  0  0  0  0  0  0  0
    5.0208   -3.0024    0.5549 H   0  0  0  0  0  0  0  0  0  0  0  0
    2.8030   -1.9377    0.6245 H   0  0  0  0  0  0  0  0  0  0  0  0
    4.6010    1.8706   -0.0957 H   0  0  0  0  0  0  0  0  0  0  0  0
    1.3795   -0.8428    1.4300 H   0  0  0  0  0  0  0  0  0  0  0  0
   -0.2252    1.0205    1.6682 H   0  0  0  0  0  0  0  0  0  0  0  0
    0.2382    2.6047   -0.1119 H   0  0  0  0  0  0  0  0  0  0  0  0
    0.4709    1.2975   -1.3160 H   0  0  0  0  0  0  0  0  0  0  0  0
   -1.9540   -0.0831   -1.7662 H   0  0  0  0  0  0  0  0  0  0  0  0
   -1.7606   -0.8118    1.0625 H   0  0  0  0  0  0  0  0  0  0  0  0
   -0.4518   -2.4541    0.0160 H   0  0  0  0  0  0  0  0  0  0  0  0
   -0.8034   -1.6333   -1.5300 H   0  0  0  0  0  0  0  0  0  0  0  0
   -4.0217   -1.2817   -1.5478 H   0  0  0  0  0  0  0  0  0  0  0  0
   -5.5459    2.0861    1.7154 H   0  0  0  0  0  0  0  0  0  0  0  0
   -3.1973    2.0519    0.9810 H   0  0  0  0  0  0  0  0  0  0  0  0
   -7.6013   -1.8350    1.0768 H   0  0  0  0  0  0  0  0  0  0  0  0
   -8.7305   -1.1641   -0.1430 H   0  0  0  0  0  0  0  0  0  0  0  0
    7.7289   -1.8036    1.0068 H   0  0  0  0  0  0  0  0  0  0  0  0
  1  2  1  0  0  0  0
  2  3  1  0  0  0  0
  3  4  2  0  0  0  0
  4  5  1  0  0  0  0
  5  6  2  0  0  0  0
  6  7  1  0  0  0  0
  7  8  2  0  0  0  0
  3  8  1  0  0  0  0
  7  9  1  0  0  0  0
  9 10  1  0  0  0  0
 10 11  1  0  0  0  0
 11 12  1  0  0  0  0
 12 13  1  0  0  0  0
 13 14  1  0  0  0  0
 14 15  1  0  0  0  0
 11 15  1  0  0  0  0
 15 16  1  0  0  0  0
 16 17  1  0  0  0  0
 10 17  1  0  0  0  0
 14 18  1  0  0  0  0
 18 19  2  0  0  0  0
 19 20  1  0  0  0  0
 20 21  2  0  0  0  0
 21 22  1  0  0  0  0
 22 23  2  0  0  0  0
 18 23  1  0  0  0  0
 21 24  1  0  0  0  0
 24 25  1  0  0  0  0
 25 26  1  0  0  0  0
 20 26  1  0  0  0  0
  4 27  1  0  0  0  0
  1 28  1  0  0  0  0
  1 29  1  0  0  0  0
  1 30  1  0  0  0  0
  5 31  1  0  0  0  0
  6 32  1  0  0  0  0
  8 33  1  0  0  0  0
 10 34  1  0  0  0  0
 11 35  1  0  0  0  0
 12 36  1  0  0  0  0
 12 37  1  0  0  0  0
 14 38  1  0  0  0  0
 15 39  1  0  0  0  0
 16 40  1  0  0  0  0
 16 41  1  0  0  0  0
 19 42  1  0  0  0  0
 22 43  1  0  0  0  0
 23 44  1  0  0  0  0
 25 45  1  0  0  0  0
 25 46  1  0  0  0  0
 27 47  1  0  0  0  0
M  END
$$$$
