C10H13N5O
APtclcactv06221815493D 0   0.00000     0.00000
 
 29 30  0  0  0  0  0  0  0  0999 V2000
   -3.6087    1.5489    1.1395 C   0  0  0  0  0  0  0  0  0  0  0  0
   -3.7120    0.3180    0.2762 C   0  0  0  0  0  0  0  0  0  0  0  0
   -2.7253   -0.0070   -0.5219 C   0  0  0  0  0  0  0  0  0  0  0  0
   -1.4386    0.7766   -0.4870 C   0  0  0  0  0  0  0  0  0  0  0  0
   -0.3157   -0.1378   -0.2652 N   0  0  0  0  0  0  0  0  0  0  0  0
    0.9767    0.3563   -0.1951 C   0  0  0  0  0  0  0  0  0  0  0  0
    1.2150    1.6585   -0.3271 N   0  0  0  0  0  0  0  0  0  0  0  0
    2.4444    2.1372   -0.2615 C   0  0  0  0  0  0  0  0  0  0  0  0
    3.4926    1.3689   -0.0648 N   0  0  0  0  0  0  0  0  0  0  0  0
    3.3496    0.0474    0.0791 C   0  0  0  0  0  0  0  0  0  0  0  0
    2.0578   -0.5005    0.0214 C   0  0  0  0  0  0  0  0  0  0  0  0
    2.2105   -1.8594    0.1983 N   0  0  0  0  0  0  0  0  0  0  0  0
    3.5328   -2.0957    0.3526 C   0  0  0  0  0  0  0  0  0  0  0  0
    4.1988   -0.9765    0.2869 N   0  0  0  0  0  0  0  0  0  0  0  0
   -4.9503   -0.5391    0.3311 C   0  0  0  0  0  0  0  0  0  0  0  0
   -4.8092   -1.6383   -0.5711 O   0  0  0  0  0  0  0  0  0  0  0  0
   -3.3924    2.4146    0.5135 H   0  0  0  0  0  0  0  0  0  0  0  0
   -4.5518    1.7056    1.6631 H   0  0  0  0  0  0  0  0  0  0  0  0
   -2.8072    1.4167    1.8663 H   0  0  0  0  0  0  0  0  0  0  0  0
   -2.8341   -0.8365   -1.2049 H   0  0  0  0  0  0  0  0  0  0  0  0
   -1.3030    1.2950   -1.4362 H   0  0  0  0  0  0  0  0  0  0  0  0
   -1.4789    1.5055    0.3225 H   0  0  0  0  0  0  0  0  0  0  0  0
   -0.4772   -1.0893   -0.1675 H   0  0  0  0  0  0  0  0  0  0  0  0
    2.5940    3.2009   -0.3742 H   0  0  0  0  0  0  0  0  0  0  0  0
    1.5020   -2.5218    0.2102 H   0  0  0  0  0  0  0  0  0  0  0  0
    3.9730   -3.0691    0.5114 H   0  0  0  0  0  0  0  0  0  0  0  0
   -5.0867   -0.9161    1.3447 H   0  0  0  0  0  0  0  0  0  0  0  0
   -5.8174    0.0565    0.0453 H   0  0  0  0  0  0  0  0  0  0  0  0
   -5.5712   -2.2335   -0.5881 H   0  0  0  0  0  0  0  0  0  0  0  0
  1  2  1  0  0  0  0
  2  3  2  0  0  0  0
  3  4  1  0  0  0  0
  4  5  1  0  0  0  0
  5  6  1  0  0  0  0
  6  7  2  0  0  0  0
  7  8  1  0  0  0  0
  8  9  2  0  0  0  0
  9 10  1  0  0  0  0
 10 11  2  0  0  0  0
  6 11  1  0  0  0  0
 11 12  1  0  0  0  0
 12 13  1  0  0  0  0
 13 14  2  0  0  0  0
 10 14  1  0  0  0  0
  2 15  1  0  0  0  0
 15 16  1  0  0  0  0
  1 17  1  0  0  0  0
  1 18  1  0  0  0  0
  1 19  1  0  0  0  0
  3 20  1  0  0  0  0
  4 21  1  0  0  0  0
  4 22  1  0  0  0  0
  5 23  1  0  0  0  0
  8 24  1  0  0  0  0
 12 25  1  0  0  0  0
 13 26  1  0  0  0  0
 15 27  1  0  0  0  0
 15 28  1  0  0  0  0
 16 29  1  0  0  0  0
M  END
$$$$
