C81H158O17P2
APtclcactv06221815493D 0   0.00000     0.00000
 
258257  0  0  0  0  0  0  0  0999 V2000
  -29.8040    3.8793    8.5555 C   0  0  0  0  0  0  0  0  0  0  0  0
  -29.1553    2.8148    7.6685 C   0  0  0  0  0  0  0  0  0  0  0  0
  -27.6577    3.1008    7.5407 C   0  0  0  0  0  0  0  0  0  0  0  0
  -27.0090    2.0363    6.6537 C   0  0  0  0  0  0  0  0  0  0  0  0
  -25.5114    2.3223    6.5258 C   0  0  0  0  0  0  0  0  0  0  0  0
  -24.8627    1.2578    5.6388 C   0  0  0  0  0  0  0  0  0  0  0  0
  -23.3652    1.5438    5.5110 C   0  0  0  0  0  0  0  0  0  0  0  0
  -22.7165    0.4793    4.6240 C   0  0  0  0  0  0  0  0  0  0  0  0
  -21.2189    0.7654    4.4962 C   0  0  0  0  0  0  0  0  0  0  0  0
  -20.5702   -0.2992    3.6092 C   0  0  0  0  0  0  0  0  0  0  0  0
  -19.0726   -0.0131    3.4813 C   0  0  0  0  0  0  0  0  0  0  0  0
  -18.4239   -1.0777    2.5943 C   0  0  0  0  0  0  0  0  0  0  0  0
  -16.9264   -0.7916    2.4665 C   0  0  0  0  0  0  0  0  0  0  0  0
  -16.2777   -1.8562    1.5795 C   0  0  0  0  0  0  0  0  0  0  0  0
  -14.7801   -1.5701    1.4517 C   0  0  0  0  0  0  0  0  0  0  0  0
  -14.1314   -2.6347    0.5647 C   0  0  0  0  0  0  0  0  0  0  0  0
  -12.6338   -2.3486    0.4368 C   0  0  0  0  0  0  0  0  0  0  0  0
  -11.9949   -3.3972   -0.4368 C   0  0  0  0  0  0  0  0  0  0  0  0
  -12.6682   -4.2824   -0.9088 O   0  0  0  0  0  0  0  0  0  0  0  0
  -10.6777   -3.3476   -0.6907 O   0  0  0  0  0  0  0  0  0  0  0  0
  -10.1305   -4.3903   -1.5402 C   0  0  0  0  0  0  0  0  0  0  0  0
   -8.6266   -4.1690   -1.7147 C   0  0  0  0  0  0  0  0  0  0  0  0
   -8.0281   -5.3342   -2.5052 C   0  0  0  0  0  0  0  0  0  0  0  0
   -6.6080   -5.1874   -2.5683 O   0  0  0  0  0  0  0  0  0  0  0  0
   -5.6507   -6.2370   -3.3259 P   0  0  0  0  0  0  0  0  0  0  0  0
   -5.8916   -7.5971   -2.7943 O   0  0  0  0  0  0  0  0  0  0  0  0
   -5.9705   -6.2130   -4.9036 O   0  0  0  0  0  0  0  0  0  0  0  0
   -4.1116   -5.8310   -3.0840 O   0  0  0  0  0  0  0  0  0  0  0  0
   -3.0159   -6.6265   -3.5408 C   0  0  0  0  0  0  0  0  0  0  0  0
   -1.6989   -5.9553   -3.1460 C   0  0  0  0  0  0  0  0  0  0  0  0
   -0.5290   -6.8659   -3.5239 C   0  0  0  0  0  0  0  0  0  0  0  0
    0.6922   -6.2935   -3.0514 O   0  0  0  0  0  0  0  0  0  0  0  0
    2.1287   -6.9859   -3.2731 P   0  0  0  0  0  0  0  0  0  0  0  0
    2.0984   -8.3663   -2.7401 O   0  0  0  0  0  0  0  0  0  0  0  0
    2.4683   -7.0255   -4.8463 O   0  0  0  0  0  0  0  0  0  0  0  0
    3.2583   -6.1372   -2.5013 O   0  0  0  0  0  0  0  0  0  0  0  0
    4.6233   -6.5522   -2.4193 C   0  0  0  0  0  0  0  0  0  0  0  0
    5.4225   -5.5216   -1.6193 C   0  0  0  0  0  0  0  0  0  0  0  0
    6.8540   -6.0255   -1.4249 C   0  0  0  0  0  0  0  0  0  0  0  0
    7.5786   -5.1053   -0.5667 O   0  0  0  0  0  0  0  0  0  0  0  0
    8.8586   -5.4048   -0.2953 C   0  0  0  0  0  0  0  0  0  0  0  0
    9.3570   -6.4029   -0.7593 O   0  0  0  0  0  0  0  0  0  0  0  0
    9.6741   -4.4963    0.5883 C   0  0  0  0  0  0  0  0  0  0  0  0
   11.0877   -5.0627    0.7359 C   0  0  0  0  0  0  0  0  0  0  0  0
   11.9156   -4.1402    1.6329 C   0  0  0  0  0  0  0  0  0  0  0  0
   13.3292   -4.7066    1.7805 C   0  0  0  0  0  0  0  0  0  0  0  0
   14.1571   -3.7842    2.6775 C   0  0  0  0  0  0  0  0  0  0  0  0
   15.5707   -4.3505    2.8251 C   0  0  0  0  0  0  0  0  0  0  0  0
   16.3986   -3.4281    3.7221 C   0  0  0  0  0  0  0  0  0  0  0  0
   17.8122   -3.9945    3.8697 C   0  0  0  0  0  0  0  0  0  0  0  0
   18.6401   -3.0721    4.7668 C   0  0  0  0  0  0  0  0  0  0  0  0
   20.0538   -3.6384    4.9143 C   0  0  0  0  0  0  0  0  0  0  0  0
   20.8816   -2.7160    5.8114 C   0  0  0  0  0  0  0  0  0  0  0  0
   22.2953   -3.2824    5.9590 C   0  0  0  0  0  0  0  0  0  0  0  0
   23.1231   -2.3600    6.8560 C   0  0  0  0  0  0  0  0  0  0  0  0
   24.5368   -2.9263    7.0036 C   0  0  0  0  0  0  0  0  0  0  0  0
   25.3647   -2.0039    7.9006 C   0  0  0  0  0  0  0  0  0  0  0  0
   26.7783   -2.5703    8.0482 C   0  0  0  0  0  0  0  0  0  0  0  0
   27.6062   -1.6479    8.9452 C   0  0  0  0  0  0  0  0  0  0  0  0
    5.4467   -4.2617   -2.3407 O   0  0  0  0  0  0  0  0  0  0  0  0
    5.5245   -3.1406   -1.6068 C   0  0  0  0  0  0  0  0  0  0  0  0
    5.5709   -3.2097   -0.4014 O   0  0  0  0  0  0  0  0  0  0  0  0
    5.5540   -1.7958   -2.2861 C   0  0  0  0  0  0  0  0  0  0  0  0
    5.6443   -0.6926   -1.2298 C   0  0  0  0  0  0  0  0  0  0  0  0
    5.6742    0.6728   -1.9196 C   0  0  0  0  0  0  0  0  0  0  0  0
    5.7645    1.7759   -0.8632 C   0  0  0  0  0  0  0  0  0  0  0  0
    5.7945    3.1413   -1.5530 C   0  0  0  0  0  0  0  0  0  0  0  0
    5.8847    4.2444   -0.4967 C   0  0  0  0  0  0  0  0  0  0  0  0
    5.9147    5.6098   -1.1864 C   0  0  0  0  0  0  0  0  0  0  0  0
    6.0050    6.7129   -0.1301 C   0  0  0  0  0  0  0  0  0  0  0  0
    6.0349    8.0783   -0.8198 C   0  0  0  0  0  0  0  0  0  0  0  0
    6.1252    9.1814    0.2365 C   0  0  0  0  0  0  0  0  0  0  0  0
    6.1552   10.5468   -0.4532 C   0  0  0  0  0  0  0  0  0  0  0  0
    6.2454   11.6500    0.6031 C   0  0  0  0  0  0  0  0  0  0  0  0
    6.2754   13.0153   -0.0867 C   0  0  0  0  0  0  0  0  0  0  0  0
    6.3657   14.1185    0.9697 C   0  0  0  0  0  0  0  0  0  0  0  0
    6.3956   15.4838    0.2799 C   0  0  0  0  0  0  0  0  0  0  0  0
    6.4859   16.5870    1.3362 C   0  0  0  0  0  0  0  0  0  0  0  0
    6.5159   17.9524    0.6465 C   0  0  0  0  0  0  0  0  0  0  0  0
   -1.5743   -4.7092   -3.8344 O   0  0  0  0  0  0  0  0  0  0  0  0
   -8.4003   -2.9286   -2.4347 O   0  0  0  0  0  0  0  0  0  0  0  0
   -7.2663   -2.2641   -2.1624 C   0  0  0  0  0  0  0  0  0  0  0  0
   -6.4886   -2.7043   -1.3492 O   0  0  0  0  0  0  0  0  0  0  0  0
   -6.9632   -0.9690   -2.8708 C   0  0  0  0  0  0  0  0  0  0  0  0
   -5.6209   -0.4218   -2.3811 C   0  0  0  0  0  0  0  0  0  0  0  0
   -5.3132    0.8931   -3.1004 C   0  0  0  0  0  0  0  0  0  0  0  0
   -3.9709    1.4402   -2.6106 C   0  0  0  0  0  0  0  0  0  0  0  0
   -3.6632    2.7551   -3.3299 C   0  0  0  0  0  0  0  0  0  0  0  0
   -2.3210    3.3023   -2.8402 C   0  0  0  0  0  0  0  0  0  0  0  0
   -2.0132    4.6172   -3.5594 C   0  0  0  0  0  0  0  0  0  0  0  0
   -0.6710    5.1644   -3.0697 C   0  0  0  0  0  0  0  0  0  0  0  0
   -0.3632    6.4792   -3.7889 C   0  0  0  0  0  0  0  0  0  0  0  0
    0.9790    7.0264   -3.2992 C   0  0  0  0  0  0  0  0  0  0  0  0
    1.2868    8.3413   -4.0185 C   0  0  0  0  0  0  0  0  0  0  0  0
    2.6290    8.8885   -3.5287 C   0  0  0  0  0  0  0  0  0  0  0  0
    2.9367   10.2033   -4.2480 C   0  0  0  0  0  0  0  0  0  0  0  0
    4.2790   10.7505   -3.7583 C   0  0  0  0  0  0  0  0  0  0  0  0
    4.5867   12.0654   -4.4775 C   0  0  0  0  0  0  0  0  0  0  0  0
    5.9290   12.6126   -3.9878 C   0  0  0  0  0  0  0  0  0  0  0  0
    6.2367   13.9274   -4.7071 C   0  0  0  0  0  0  0  0  0  0  0  0
  -29.6588    4.8627    8.1082 H   0  0  0  0  0  0  0  0  0  0  0  0
  -30.8709    3.6755    8.6466 H   0  0  0  0  0  0  0  0  0  0  0  0
  -29.3444    3.8582    9.5437 H   0  0  0  0  0  0  0  0  0  0  0  0
  -29.3005    1.8314    8.1158 H   0  0  0  0  0  0  0  0  0  0  0  0
  -29.6149    2.8359    6.6803 H   0  0  0  0  0  0  0  0  0  0  0  0
  -27.5125    4.0842    7.0934 H   0  0  0  0  0  0  0  0  0  0  0  0
  -27.1981    3.0797    8.5288 H   0  0  0  0  0  0  0  0  0  0  0  0
  -27.1542    1.0529    7.1009 H   0  0  0  0  0  0  0  0  0  0  0  0
  -27.4686    2.0574    5.6655 H   0  0  0  0  0  0  0  0  0  0  0  0
  -25.3663    3.3057    6.0786 H   0  0  0  0  0  0  0  0  0  0  0  0
  -25.0519    2.3012    7.5140 H   0  0  0  0  0  0  0  0  0  0  0  0
  -25.0079    0.2744    6.0861 H   0  0  0  0  0  0  0  0  0  0  0  0
  -25.3223    1.2789    4.6507 H   0  0  0  0  0  0  0  0  0  0  0  0
  -23.2200    2.5272    5.0637 H   0  0  0  0  0  0  0  0  0  0  0  0
  -22.9056    1.5227    6.4992 H   0  0  0  0  0  0  0  0  0  0  0  0
  -22.8617   -0.5041    5.0713 H   0  0  0  0  0  0  0  0  0  0  0  0
  -23.1761    0.5004    3.6358 H   0  0  0  0  0  0  0  0  0  0  0  0
  -21.0737    1.7487    4.0489 H   0  0  0  0  0  0  0  0  0  0  0  0
  -20.7593    0.7442    5.4843 H   0  0  0  0  0  0  0  0  0  0  0  0
  -20.7154   -1.2825    4.0564 H   0  0  0  0  0  0  0  0  0  0  0  0
  -21.0298   -0.2781    2.6210 H   0  0  0  0  0  0  0  0  0  0  0  0
  -18.9275    0.9702    3.0341 H   0  0  0  0  0  0  0  0  0  0  0  0
  -18.6131   -0.0343    4.4695 H   0  0  0  0  0  0  0  0  0  0  0  0
  -18.5691   -2.0610    3.0416 H   0  0  0  0  0  0  0  0  0  0  0  0
  -18.8835   -1.0566    1.6062 H   0  0  0  0  0  0  0  0  0  0  0  0
  -16.7812    0.1917    2.0192 H   0  0  0  0  0  0  0  0  0  0  0  0
  -16.4668   -0.8127    3.4547 H   0  0  0  0  0  0  0  0  0  0  0  0
  -16.4229   -2.8395    2.0268 H   0  0  0  0  0  0  0  0  0  0  0  0
  -16.7372   -1.8351    0.5913 H   0  0  0  0  0  0  0  0  0  0  0  0
  -14.6349   -0.5868    1.0044 H   0  0  0  0  0  0  0  0  0  0  0  0
  -14.3205   -1.5912    2.4398 H   0  0  0  0  0  0  0  0  0  0  0  0
  -14.2766   -3.6180    1.0119 H   0  0  0  0  0  0  0  0  0  0  0  0
  -14.5910   -2.6135   -0.4235 H   0  0  0  0  0  0  0  0  0  0  0  0
  -12.4886   -1.3653   -0.0104 H   0  0  0  0  0  0  0  0  0  0  0  0
  -12.1743   -2.3697    1.4250 H   0  0  0  0  0  0  0  0  0  0  0  0
  -10.3035   -5.3627   -1.0791 H   0  0  0  0  0  0  0  0  0  0  0  0
  -10.6179   -4.3583   -2.5146 H   0  0  0  0  0  0  0  0  0  0  0  0
   -8.1517   -4.1124   -0.7352 H   0  0  0  0  0  0  0  0  0  0  0  0
   -8.2746   -6.2736   -2.0105 H   0  0  0  0  0  0  0  0  0  0  0  0
   -8.4382   -5.3368   -3.5151 H   0  0  0  0  0  0  0  0  0  0  0  0
   -5.8341   -5.3507   -5.3195 H   0  0  0  0  0  0  0  0  0  0  0  0
   -3.0703   -7.6155   -3.0857 H   0  0  0  0  0  0  0  0  0  0  0  0
   -3.0639   -6.7225   -4.6255 H   0  0  0  0  0  0  0  0  0  0  0  0
   -1.6892   -5.7787   -2.0704 H   0  0  0  0  0  0  0  0  0  0  0  0
   -0.6703   -7.8465   -3.0694 H   0  0  0  0  0  0  0  0  0  0  0  0
   -0.4856   -6.9708   -4.6080 H   0  0  0  0  0  0  0  0  0  0  0  0
    2.5045   -6.1535   -5.2629 H   0  0  0  0  0  0  0  0  0  0  0  0
    4.6794   -7.5208   -1.9225 H   0  0  0  0  0  0  0  0  0  0  0  0
    5.0390   -6.6344   -3.4236 H   0  0  0  0  0  0  0  0  0  0  0  0
    4.9539   -5.3742   -0.6463 H   0  0  0  0  0  0  0  0  0  0  0  0
    6.8321   -7.0125   -0.9628 H   0  0  0  0  0  0  0  0  0  0  0  0
    7.3517   -6.0883   -2.3926 H   0  0  0  0  0  0  0  0  0  0  0  0
    9.7252   -3.5039    0.1404 H   0  0  0  0  0  0  0  0  0  0  0  0
    9.2056   -4.4281    1.5701 H   0  0  0  0  0  0  0  0  0  0  0  0
   11.0366   -6.0551    1.1838 H   0  0  0  0  0  0  0  0  0  0  0  0
   11.5561   -5.1309   -0.2460 H   0  0  0  0  0  0  0  0  0  0  0  0
   11.9667   -3.1479    1.1850 H   0  0  0  0  0  0  0  0  0  0  0  0
   11.4472   -4.0720    2.6148 H   0  0  0  0  0  0  0  0  0  0  0  0
   13.2781   -5.6990    2.2284 H   0  0  0  0  0  0  0  0  0  0  0  0
   13.7976   -4.7748    0.7986 H   0  0  0  0  0  0  0  0  0  0  0  0
   14.2082   -2.7918    2.2296 H   0  0  0  0  0  0  0  0  0  0  0  0
   13.6887   -3.7160    3.6594 H   0  0  0  0  0  0  0  0  0  0  0  0
   15.5196   -5.3429    3.2730 H   0  0  0  0  0  0  0  0  0  0  0  0
   16.0391   -4.4188    1.8432 H   0  0  0  0  0  0  0  0  0  0  0  0
   16.4497   -2.4357    3.2742 H   0  0  0  0  0  0  0  0  0  0  0  0
   15.9302   -3.3599    4.7040 H   0  0  0  0  0  0  0  0  0  0  0  0
   17.7611   -4.9869    4.3176 H   0  0  0  0  0  0  0  0  0  0  0  0
   18.2806   -4.0627    2.8879 H   0  0  0  0  0  0  0  0  0  0  0  0
   18.6912   -2.0797    4.3188 H   0  0  0  0  0  0  0  0  0  0  0  0
   18.1717   -3.0039    5.7486 H   0  0  0  0  0  0  0  0  0  0  0  0
   20.0026   -4.6308    5.3623 H   0  0  0  0  0  0  0  0  0  0  0  0
   20.5222   -3.7067    3.9325 H   0  0  0  0  0  0  0  0  0  0  0  0
   20.9327   -1.7236    5.3635 H   0  0  0  0  0  0  0  0  0  0  0  0
   20.4132   -2.6478    6.7932 H   0  0  0  0  0  0  0  0  0  0  0  0
   22.2442   -4.2748    6.4069 H   0  0  0  0  0  0  0  0  0  0  0  0
   22.7637   -3.3506    4.9771 H   0  0  0  0  0  0  0  0  0  0  0  0
   23.1743   -1.3676    6.4081 H   0  0  0  0  0  0  0  0  0  0  0  0
   22.6547   -2.2918    7.8379 H   0  0  0  0  0  0  0  0  0  0  0  0
   24.4857   -3.9187    7.4515 H   0  0  0  0  0  0  0  0  0  0  0  0
   25.0052   -2.9945    6.0217 H   0  0  0  0  0  0  0  0  0  0  0  0
   25.4158   -1.0115    7.4527 H   0  0  0  0  0  0  0  0  0  0  0  0
   24.8962   -1.9357    8.8825 H   0  0  0  0  0  0  0  0  0  0  0  0
   26.7272   -3.5627    8.4961 H   0  0  0  0  0  0  0  0  0  0  0  0
   27.2467   -2.6385    7.0664 H   0  0  0  0  0  0  0  0  0  0  0  0
   27.1378   -1.5797    9.9271 H   0  0  0  0  0  0  0  0  0  0  0  0
   28.6133   -2.0513    9.0504 H   0  0  0  0  0  0  0  0  0  0  0  0
   27.6573   -0.6555    8.4973 H   0  0  0  0  0  0  0  0  0  0  0  0
    6.4209   -1.7402   -2.9445 H   0  0  0  0  0  0  0  0  0  0  0  0
    4.6441   -1.6645   -2.8717 H   0  0  0  0  0  0  0  0  0  0  0  0
    4.7773   -0.7482   -0.5715 H   0  0  0  0  0  0  0  0  0  0  0  0
    6.5542   -0.8239   -0.6442 H   0  0  0  0  0  0  0  0  0  0  0  0
    6.5412    0.7283   -2.5779 H   0  0  0  0  0  0  0  0  0  0  0  0
    4.7643    0.8040   -2.5052 H   0  0  0  0  0  0  0  0  0  0  0  0
    4.8976    1.7204   -0.2049 H   0  0  0  0  0  0  0  0  0  0  0  0
    6.6744    1.6446   -0.2776 H   0  0  0  0  0  0  0  0  0  0  0  0
    6.6614    3.1968   -2.2113 H   0  0  0  0  0  0  0  0  0  0  0  0
    4.8845    3.2726   -2.1386 H   0  0  0  0  0  0  0  0  0  0  0  0
    5.0178    4.1889    0.1617 H   0  0  0  0  0  0  0  0  0  0  0  0
    6.7947    4.1131    0.0889 H   0  0  0  0  0  0  0  0  0  0  0  0
    6.7816    5.6653   -1.8448 H   0  0  0  0  0  0  0  0  0  0  0  0
    5.0048    5.7411   -1.7720 H   0  0  0  0  0  0  0  0  0  0  0  0
    5.1380    6.6574    0.5283 H   0  0  0  0  0  0  0  0  0  0  0  0
    6.9149    6.5816    0.4555 H   0  0  0  0  0  0  0  0  0  0  0  0
    6.9019    8.1338   -1.4782 H   0  0  0  0  0  0  0  0  0  0  0  0
    5.1250    8.2096   -1.4054 H   0  0  0  0  0  0  0  0  0  0  0  0
    5.2583    9.1259    0.8949 H   0  0  0  0  0  0  0  0  0  0  0  0
    7.0351    9.0502    0.8221 H   0  0  0  0  0  0  0  0  0  0  0  0
    7.0221   10.6024   -1.1116 H   0  0  0  0  0  0  0  0  0  0  0  0
    5.2452   10.6781   -1.0388 H   0  0  0  0  0  0  0  0  0  0  0  0
    5.3785   11.5944    1.2614 H   0  0  0  0  0  0  0  0  0  0  0  0
    7.1554   11.5187    1.1887 H   0  0  0  0  0  0  0  0  0  0  0  0
    7.1423   13.0709   -0.7450 H   0  0  0  0  0  0  0  0  0  0  0  0
    5.3655   13.1466   -0.6723 H   0  0  0  0  0  0  0  0  0  0  0  0
    5.4987   14.0629    1.6280 H   0  0  0  0  0  0  0  0  0  0  0  0
    7.2756   13.9872    1.5553 H   0  0  0  0  0  0  0  0  0  0  0  0
    7.2626   15.5394   -0.3784 H   0  0  0  0  0  0  0  0  0  0  0  0
    5.4857   15.6151   -0.3057 H   0  0  0  0  0  0  0  0  0  0  0  0
    5.6190   16.5314    1.9946 H   0  0  0  0  0  0  0  0  0  0  0  0
    7.3958   16.4557    1.9218 H   0  0  0  0  0  0  0  0  0  0  0  0
    6.5802   18.7383    1.3990 H   0  0  0  0  0  0  0  0  0  0  0  0
    7.3828   18.0079   -0.0118 H   0  0  0  0  0  0  0  0  0  0  0  0
    5.6059   18.0836    0.0609 H   0  0  0  0  0  0  0  0  0  0  0  0
   -1.5755   -4.7904   -4.7980 H   0  0  0  0  0  0  0  0  0  0  0  0
   -6.9133   -1.1456   -3.9453 H   0  0  0  0  0  0  0  0  0  0  0  0
   -7.7501   -0.2455   -2.6577 H   0  0  0  0  0  0  0  0  0  0  0  0
   -5.6708   -0.2452   -1.3067 H   0  0  0  0  0  0  0  0  0  0  0  0
   -4.8341   -1.1453   -2.5943 H   0  0  0  0  0  0  0  0  0  0  0  0
   -5.2634    0.7164   -4.1748 H   0  0  0  0  0  0  0  0  0  0  0  0
   -6.1001    1.6166   -2.8872 H   0  0  0  0  0  0  0  0  0  0  0  0
   -4.0208    1.6169   -1.5362 H   0  0  0  0  0  0  0  0  0  0  0  0
   -3.1841    0.7167   -2.8238 H   0  0  0  0  0  0  0  0  0  0  0  0
   -3.6134    2.5785   -4.4043 H   0  0  0  0  0  0  0  0  0  0  0  0
   -4.4501    3.4786   -3.1167 H   0  0  0  0  0  0  0  0  0  0  0  0
   -2.3708    3.4789   -1.7657 H   0  0  0  0  0  0  0  0  0  0  0  0
   -1.5341    2.5788   -3.0533 H   0  0  0  0  0  0  0  0  0  0  0  0
   -1.9634    4.4405   -4.6339 H   0  0  0  0  0  0  0  0  0  0  0  0
   -2.8001    5.3407   -3.3463 H   0  0  0  0  0  0  0  0  0  0  0  0
   -0.7208    5.3410   -1.9953 H   0  0  0  0  0  0  0  0  0  0  0  0
    0.1159    4.4408   -3.2828 H   0  0  0  0  0  0  0  0  0  0  0  0
   -0.3134    6.3026   -4.8634 H   0  0  0  0  0  0  0  0  0  0  0  0
   -1.1501    7.2028   -3.5758 H   0  0  0  0  0  0  0  0  0  0  0  0
    0.9292    7.2030   -2.2248 H   0  0  0  0  0  0  0  0  0  0  0  0
    1.7659    6.3029   -3.5124 H   0  0  0  0  0  0  0  0  0  0  0  0
    1.3366    8.1647   -5.0929 H   0  0  0  0  0  0  0  0  0  0  0  0
    0.4999    9.0648   -3.8053 H   0  0  0  0  0  0  0  0  0  0  0  0
    2.5792    9.0651   -2.4543 H   0  0  0  0  0  0  0  0  0  0  0  0
    3.4159    8.1649   -3.7419 H   0  0  0  0  0  0  0  0  0  0  0  0
    2.9866   10.0267   -5.3224 H   0  0  0  0  0  0  0  0  0  0  0  0
    2.1499   10.9269   -4.0349 H   0  0  0  0  0  0  0  0  0  0  0  0
    4.2291   10.9271   -2.6838 H   0  0  0  0  0  0  0  0  0  0  0  0
    5.0659   10.0270   -3.9714 H   0  0  0  0  0  0  0  0  0  0  0  0
    4.6366   11.8888   -5.5520 H   0  0  0  0  0  0  0  0  0  0  0  0
    3.7999   12.7889   -4.2644 H   0  0  0  0  0  0  0  0  0  0  0  0
    5.8791   12.7892   -2.9134 H   0  0  0  0  0  0  0  0  0  0  0  0
    6.7159   11.8890   -4.2010 H   0  0  0  0  0  0  0  0  0  0  0  0
    6.2866   13.7508   -5.7815 H   0  0  0  0  0  0  0  0  0  0  0  0
    5.4499   14.6510   -4.4939 H   0  0  0  0  0  0  0  0  0  0  0  0
    7.1930   14.3173   -4.3582 H   0  0  0  0  0  0  0  0  0  0  0  0
  1  2  1  0  0  0  0
  2  3  1  0  0  0  0
  3  4  1  0  0  0  0
  4  5  1  0  0  0  0
  5  6  1  0  0  0  0
  6  7  1  0  0  0  0
  7  8  1  0  0  0  0
  8  9  1  0  0  0  0
  9 10  1  0  0  0  0
 10 11  1  0  0  0  0
 11 12  1  0  0  0  0
 12 13  1  0  0  0  0
 13 14  1  0  0  0  0
 14 15  1  0  0  0  0
 15 16  1  0  0  0  0
 16 17  1  0  0  0  0
 17 18  1  0  0  0  0
 18 19  2  0  0  0  0
 18 20  1  0  0  0  0
 20 21  1  0  0  0  0
 21 22  1  0  0  0  0
 22 23  1  0  0  0  0
 23 24  1  0  0  0  0
 24 25  1  0  0  0  0
 25 26  2  0  0  0  0
 25 27  1  0  0  0  0
 25 28  1  0  0  0  0
 28 29  1  0  0  0  0
 29 30  1  0  0  0  0
 30 31  1  0  0  0  0
 31 32  1  0  0  0  0
 32 33  1  0  0  0  0
 33 34  2  0  0  0  0
 33 35  1  0  0  0  0
 33 36  1  0  0  0  0
 36 37  1  0  0  0  0
 37 38  1  0  0  0  0
 38 39  1  0  0  0  0
 39 40  1  0  0  0  0
 40 41  1  0  0  0  0
 41 42  2  0  0  0  0
 41 43  1  0  0  0  0
 43 44  1  0  0  0  0
 44 45  1  0  0  0  0
 45 46  1  0  0  0  0
 46 47  1  0  0  0  0
 47 48  1  0  0  0  0
 48 49  1  0  0  0  0
 49 50  1  0  0  0  0
 50 51  1  0  0  0  0
 51 52  1  0  0  0  0
 52 53  1  0  0  0  0
 53 54  1  0  0  0  0
 54 55  1  0  0  0  0
 55 56  1  0  0  0  0
 56 57  1  0  0  0  0
 57 58  1  0  0  0  0
 58 59  1  0  0  0  0
 38 60  1  0  0  0  0
 60 61  1  0  0  0  0
 61 62  2  0  0  0  0
 61 63  1  0  0  0  0
 63 64  1  0  0  0  0
 64 65  1  0  0  0  0
 65 66  1  0  0  0  0
 66 67  1  0  0  0  0
 67 68  1  0  0  0  0
 68 69  1  0  0  0  0
 69 70  1  0  0  0  0
 70 71  1  0  0  0  0
 71 72  1  0  0  0  0
 72 73  1  0  0  0  0
 73 74  1  0  0  0  0
 74 75  1  0  0  0  0
 75 76  1  0  0  0  0
 76 77  1  0  0  0  0
 77 78  1  0  0  0  0
 78 79  1  0  0  0  0
 30 80  1  0  0  0  0
 22 81  1  0  0  0  0
 81 82  1  0  0  0  0
 82 83  2  0  0  0  0
 82 84  1  0  0  0  0
 84 85  1  0  0  0  0
 85 86  1  0  0  0  0
 86 87  1  0  0  0  0
 87 88  1  0  0  0  0
 88 89  1  0  0  0  0
 89 90  1  0  0  0  0
 90 91  1  0  0  0  0
 91 92  1  0  0  0  0
 92 93  1  0  0  0  0
 93 94  1  0  0  0  0
 94 95  1  0  0  0  0
 95 96  1  0  0  0  0
 96 97  1  0  0  0  0
 97 98  1  0  0  0  0
 98 99  1  0  0  0  0
 99100  1  0  0  0  0
  1101  1  0  0  0  0
  1102  1  0  0  0  0
  1103  1  0  0  0  0
  2104  1  0  0  0  0
  2105  1  0  0  0  0
  3106  1  0  0  0  0
  3107  1  0  0  0  0
  4108  1  0  0  0  0
  4109  1  0  0  0  0
  5110  1  0  0  0  0
  5111  1  0  0  0  0
  6112  1  0  0  0  0
  6113  1  0  0  0  0
  7114  1  0  0  0  0
  7115  1  0  0  0  0
  8116  1  0  0  0  0
  8117  1  0  0  0  0
  9118  1  0  0  0  0
  9119  1  0  0  0  0
 10120  1  0  0  0  0
 10121  1  0  0  0  0
 11122  1  0  0  0  0
 11123  1  0  0  0  0
 12124  1  0  0  0  0
 12125  1  0  0  0  0
 13126  1  0  0  0  0
 13127  1  0  0  0  0
 14128  1  0  0  0  0
 14129  1  0  0  0  0
 15130  1  0  0  0  0
 15131  1  0  0  0  0
 16132  1  0  0  0  0
 16133  1  0  0  0  0
 17134  1  0  0  0  0
 17135  1  0  0  0  0
 21136  1  0  0  0  0
 21137  1  0  0  0  0
 22138  1  0  0  0  0
 23139  1  0  0  0  0
 23140  1  0  0  0  0
 27141  1  0  0  0  0
 29142  1  0  0  0  0
 29143  1  0  0  0  0
 30144  1  0  0  0  0
 31145  1  0  0  0  0
 31146  1  0  0  0  0
 35147  1  0  0  0  0
 37148  1  0  0  0  0
 37149  1  0  0  0  0
 38150  1  0  0  0  0
 39151  1  0  0  0  0
 39152  1  0  0  0  0
 43153  1  0  0  0  0
 43154  1  0  0  0  0
 44155  1  0  0  0  0
 44156  1  0  0  0  0
 45157  1  0  0  0  0
 45158  1  0  0  0  0
 46159  1  0  0  0  0
 46160  1  0  0  0  0
 47161  1  0  0  0  0
 47162  1  0  0  0  0
 48163  1  0  0  0  0
 48164  1  0  0  0  0
 49165  1  0  0  0  0
 49166  1  0  0  0  0
 50167  1  0  0  0  0
 50168  1  0  0  0  0
 51169  1  0  0  0  0
 51170  1  0  0  0  0
 52171  1  0  0  0  0
 52172  1  0  0  0  0
 53173  1  0  0  0  0
 53174  1  0  0  0  0
 54175  1  0  0  0  0
 54176  1  0  0  0  0
 55177  1  0  0  0  0
 55178  1  0  0  0  0
 56179  1  0  0  0  0
 56180  1  0  0  0  0
 57181  1  0  0  0  0
 57182  1  0  0  0  0
 58183  1  0  0  0  0
 58184  1  0  0  0  0
 59185  1  0  0  0  0
 59186  1  0  0  0  0
 59187  1  0  0  0  0
 63188  1  0  0  0  0
 63189  1  0  0  0  0
 64190  1  0  0  0  0
 64191  1  0  0  0  0
 65192  1  0  0  0  0
 65193  1  0  0  0  0
 66194  1  0  0  0  0
 66195  1  0  0  0  0
 67196  1  0  0  0  0
 67197  1  0  0  0  0
 68198  1  0  0  0  0
 68199  1  0  0  0  0
 69200  1  0  0  0  0
 69201  1  0  0  0  0
 70202  1  0  0  0  0
 70203  1  0  0  0  0
 71204  1  0  0  0  0
 71205  1  0  0  0  0
 72206  1  0  0  0  0
 72207  1  0  0  0  0
 73208  1  0  0  0  0
 73209  1  0  0  0  0
 74210  1  0  0  0  0
 74211  1  0  0  0  0
 75212  1  0  0  0  0
 75213  1  0  0  0  0
 76214  1  0  0  0  0
 76215  1  0  0  0  0
 77216  1  0  0  0  0
 77217  1  0  0  0  0
 78218  1  0  0  0  0
 78219  1  0  0  0  0
 79220  1  0  0  0  0
 79221  1  0  0  0  0
 79222  1  0  0  0  0
 80223  1  0  0  0  0
 84224  1  0  0  0  0
 84225  1  0  0  0  0
 85226  1  0  0  0  0
 85227  1  0  0  0  0
 86228  1  0  0  0  0
 86229  1  0  0  0  0
 87230  1  0  0  0  0
 87231  1  0  0  0  0
 88232  1  0  0  0  0
 88233  1  0  0  0  0
 89234  1  0  0  0  0
 89235  1  0  0  0  0
 90236  1  0  0  0  0
 90237  1  0  0  0  0
 91238  1  0  0  0  0
 91239  1  0  0  0  0
 92240  1  0  0  0  0
 92241  1  0  0  0  0
 93242  1  0  0  0  0
 93243  1  0  0  0  0
 94244  1  0  0  0  0
 94245  1  0  0  0  0
 95246  1  0  0  0  0
 95247  1  0  0  0  0
 96248  1  0  0  0  0
 96249  1  0  0  0  0
 97250  1  0  0  0  0
 97251  1  0  0  0  0
 98252  1  0  0  0  0
 98253  1  0  0  0  0
 99254  1  0  0  0  0
 99255  1  0  0  0  0
100256  1  0  0  0  0
100257  1  0  0  0  0
100258  1  0  0  0  0
M  END
$$$$
