C21H18NO4
APtclcactv06211804353D 0   0.00000     0.00000
 
 44 48  0  0  0  0  0  0  0  0999 V2000
   -1.1099    2.7594   -0.8859 C   0  0  0  0  0  0  0  0  0  0  0  0
   -0.1947    1.6779   -0.5232 N   0  3  0  0  0  0  0  0  0  0  0  0
    1.0686    2.0244   -0.4194 C   0  0  0  0  0  0  0  0  0  0  0  0
    2.0832    1.0842   -0.1708 C   0  0  0  0  0  0  0  0  0  0  0  0
    3.4179    1.4611    0.0232 C   0  0  0  0  0  0  0  0  0  0  0  0
    4.3756    0.5018    0.1974 C   0  0  0  0  0  0  0  0  0  0  0  0
    4.0365   -0.8575    0.1937 C   0  0  0  0  0  0  0  0  0  0  0  0
    2.7233   -1.2517    0.0358 C   0  0  0  0  0  0  0  0  0  0  0  0
    1.7322   -0.2900   -0.1391 C   0  0  0  0  0  0  0  0  0  0  0  0
    0.3159   -0.6224   -0.2980 C   0  0  0  0  0  0  0  0  0  0  0  0
   -0.6285    0.4317   -0.3152 C   0  0  0  0  0  0  0  0  0  0  0  0
   -2.0292    0.0677   -0.1075 C   0  0  0  0  0  0  0  0  0  0  0  0
   -3.0089    0.9383    0.3650 C   0  0  0  0  0  0  0  0  0  0  0  0
   -4.3357    0.5660    0.3875 C   0  0  0  0  0  0  0  0  0  0  0  0
   -4.7216   -0.7144   -0.0323 C   0  0  0  0  0  0  0  0  0  0  0  0
   -3.7654   -1.6261   -0.4142 C   0  0  0  0  0  0  0  0  0  0  0  0
   -2.4078   -1.2760   -0.3741 C   0  0  0  0  0  0  0  0  0  0  0  0
   -1.4165   -2.2659   -0.5449 C   0  0  0  0  0  0  0  0  0  0  0  0
   -0.1036   -1.9500   -0.4799 C   0  0  0  0  0  0  0  0  0  0  0  0
   -6.0788   -0.7839    0.0316 O   0  0  0  0  0  0  0  0  0  0  0  0
   -6.5090    0.2759    0.8980 C   0  0  0  0  0  0  0  0  0  0  0  0
   -5.4613    1.2413    0.7540 O   0  0  0  0  0  0  0  0  0  0  0  0
    5.0094   -1.7943    0.3430 O   0  0  0  0  0  0  0  0  0  0  0  0
    4.5994   -3.1631    0.3307 C   0  0  0  0  0  0  0  0  0  0  0  0
    5.6715    0.8697    0.3738 O   0  0  0  0  0  0  0  0  0  0  0  0
    5.9552    2.2703    0.3655 C   0  0  0  0  0  0  0  0  0  0  0  0
   -1.1134    2.8846   -1.9686 H   0  0  0  0  0  0  0  0  0  0  0  0
   -2.1158    2.5137   -0.5453 H   0  0  0  0  0  0  0  0  0  0  0  0
   -0.7827    3.6858   -0.4140 H   0  0  0  0  0  0  0  0  0  0  0  0
    1.3280    3.0673   -0.5295 H   0  0  0  0  0  0  0  0  0  0  0  0
    3.6921    2.5053    0.0310 H   0  0  0  0  0  0  0  0  0  0  0  0
    2.4728   -2.3017    0.0466 H   0  0  0  0  0  0  0  0  0  0  0  0
   -2.7500    1.9038    0.7797 H   0  0  0  0  0  0  0  0  0  0  0  0
   -4.0617   -2.6132   -0.7381 H   0  0  0  0  0  0  0  0  0  0  0  0
   -1.7117   -3.2866   -0.7321 H   0  0  0  0  0  0  0  0  0  0  0  0
    0.6339   -2.7323   -0.5748 H   0  0  0  0  0  0  0  0  0  0  0  0
   -7.4661    0.6878    0.5639 H   0  0  0  0  0  0  0  0  0  0  0  0
   -6.5848   -0.0689    1.9268 H   0  0  0  0  0  0  0  0  0  0  0  0
    5.4711   -3.8047    0.4589 H   0  0  0  0  0  0  0  0  0  0  0  0
    3.8960   -3.3390    1.1446 H   0  0  0  0  0  0  0  0  0  0  0  0
    4.1182   -3.3897   -0.6207 H   0  0  0  0  0  0  0  0  0  0  0  0
    5.6579    2.6955   -0.5932 H   0  0  0  0  0  0  0  0  0  0  0  0
    5.4005    2.7581    1.1670 H   0  0  0  0  0  0  0  0  0  0  0  0
    7.0235    2.4255    0.5162 H   0  0  0  0  0  0  0  0  0  0  0  0
  1  2  1  0  0  0  0
  2  3  2  0  0  0  0
  3  4  1  0  0  0  0
  4  5  2  0  0  0  0
  5  6  1  0  0  0  0
  6  7  2  0  0  0  0
  7  8  1  0  0  0  0
  8  9  2  0  0  0  0
  4  9  1  0  0  0  0
  9 10  1  0  0  0  0
 10 11  2  0  0  0  0
  2 11  1  0  0  0  0
 11 12  1  0  0  0  0
 12 13  2  0  0  0  0
 13 14  1  0  0  0  0
 14 15  2  0  0  0  0
 15 16  1  0  0  0  0
 16 17  2  0  0  0  0
 12 17  1  0  0  0  0
 17 18  1  0  0  0  0
 18 19  2  0  0  0  0
 10 19  1  0  0  0  0
 15 20  1  0  0  0  0
 20 21  1  0  0  0  0
 21 22  1  0  0  0  0
 14 22  1  0  0  0  0
  7 23  1  0  0  0  0
 23 24  1  0  0  0  0
  6 25  1  0  0  0  0
 25 26  1  0  0  0  0
  1 27  1  0  0  0  0
  1 28  1  0  0  0  0
  1 29  1  0  0  0  0
  3 30  1  0  0  0  0
  5 31  1  0  0  0  0
  8 32  1  0  0  0  0
 13 33  1  0  0  0  0
 16 34  1  0  0  0  0
 18 35  1  0  0  0  0
 19 36  1  0  0  0  0
 21 37  1  0  0  0  0
 21 38  1  0  0  0  0
 24 39  1  0  0  0  0
 24 40  1  0  0  0  0
 24 41  1  0  0  0  0
 26 42  1  0  0  0  0
 26 43  1  0  0  0  0
 26 44  1  0  0  0  0
M  CHG  1   2   1
M  END
$$$$
