C8H23O7P
APtclcactv06291802523D 0   0.00000     0.00000
 
 39 36  0  0  0  0  0  0  0  0999 V2000
  -20.4944   -1.5072    0.0814 C   0  0  0  0  0  0  0  0  0  0  0  0
  -20.9306   -0.1489   -0.4716 C   0  0  0  0  0  0  0  0  0  0  0  0
  -22.2753    0.2441    0.1434 C   0  0  0  0  0  0  0  0  0  0  0  0
   -7.0585   -0.9185    0.2174 C   0  0  0  0  0  0  0  0  0  0  0  0
   -7.5589    0.4348   -0.2917 C   0  0  0  0  0  0  0  0  0  0  0  0
   -8.8138    0.7395    0.3202 O   0  0  0  0  0  0  0  0  0  0  0  0
    9.5834   -2.3651    0.6093 C   0  0  0  0  0  0  0  0  0  0  0  0
    8.8846   -1.3851   -0.3352 C   0  0  0  0  0  0  0  0  0  0  0  0
    7.9290   -0.4984    0.4658 C   0  0  0  0  0  0  0  0  0  0  0  0
    7.1913    0.3368   -0.4289 O   0  0  0  0  0  0  0  0  0  0  0  0
    6.0907    1.4002    0.0706 P   0  0  0  0  0  0  0  0  0  0  0  0
    5.0799    0.7101    0.9027 O   0  0  0  0  0  0  0  0  0  0  0  0
    6.8097    2.5478    0.9414 O   0  0  0  0  0  0  0  0  0  0  0  0
    5.3706    2.0670   -1.2057 O   0  0  0  0  0  0  0  0  0  0  0  0
    9.8622   -0.5685   -0.9828 O   0  0  0  0  0  0  0  0  0  0  0  0
   10.3870   -3.2691   -0.1516 O   0  0  0  0  0  0  0  0  0  0  0  0
  -20.3936   -1.4430    1.1648 H   0  0  0  0  0  0  0  0  0  0  0  0
  -21.2425   -2.2590   -0.1700 H   0  0  0  0  0  0  0  0  0  0  0  0
  -19.5364   -1.7871   -0.3567 H   0  0  0  0  0  0  0  0  0  0  0  0
  -20.1825    0.6030   -0.2202 H   0  0  0  0  0  0  0  0  0  0  0  0
  -21.0315   -0.2131   -1.5550 H   0  0  0  0  0  0  0  0  0  0  0  0
  -22.1745    0.3083    1.2268 H   0  0  0  0  0  0  0  0  0  0  0  0
  -22.5861    1.2118   -0.2505 H   0  0  0  0  0  0  0  0  0  0  0  0
  -23.0234   -0.5078   -0.1080 H   0  0  0  0  0  0  0  0  0  0  0  0
   -6.9344   -0.8763    1.2995 H   0  0  0  0  0  0  0  0  0  0  0  0
   -7.7833   -1.6923   -0.0353 H   0  0  0  0  0  0  0  0  0  0  0  0
   -6.1013   -1.1508   -0.2494 H   0  0  0  0  0  0  0  0  0  0  0  0
   -6.8341    1.2087   -0.0390 H   0  0  0  0  0  0  0  0  0  0  0  0
   -7.6830    0.3927   -1.3738 H   0  0  0  0  0  0  0  0  0  0  0  0
   -9.1914    1.5855    0.0432 H   0  0  0  0  0  0  0  0  0  0  0  0
   10.2164   -1.8122    1.3033 H   0  0  0  0  0  0  0  0  0  0  0  0
    8.8352   -2.9267    1.1687 H   0  0  0  0  0  0  0  0  0  0  0  0
    8.3217   -1.9415   -1.0847 H   0  0  0  0  0  0  0  0  0  0  0  0
    7.2386   -1.1252    1.0302 H   0  0  0  0  0  0  0  0  0  0  0  0
    8.5013    0.1232    1.1544 H   0  0  0  0  0  0  0  0  0  0  0  0
    7.4858    3.0425    0.4584 H   0  0  0  0  0  0  0  0  0  0  0  0
    4.6938    2.7195   -0.9791 H   0  0  0  0  0  0  0  0  0  0  0  0
   10.4014   -0.0439   -0.3752 H   0  0  0  0  0  0  0  0  0  0  0  0
   10.8604   -3.9206    0.3837 H   0  0  0  0  0  0  0  0  0  0  0  0
  1  2  1  0  0  0  0
  2  3  1  0  0  0  0
  4  5  1  0  0  0  0
  5  6  1  0  0  0  0
  7  8  1  0  0  0  0
  8  9  1  0  0  0  0
  9 10  1  0  0  0  0
 10 11  1  0  0  0  0
 11 12  2  0  0  0  0
 11 13  1  0  0  0  0
 11 14  1  0  0  0  0
  8 15  1  0  0  0  0
  7 16  1  0  0  0  0
  1 17  1  0  0  0  0
  1 18  1  0  0  0  0
  1 19  1  0  0  0  0
  2 20  1  0  0  0  0
  2 21  1  0  0  0  0
  3 22  1  0  0  0  0
  3 23  1  0  0  0  0
  3 24  1  0  0  0  0
  4 25  1  0  0  0  0
  4 26  1  0  0  0  0
  4 27  1  0  0  0  0
  5 28  1  0  0  0  0
  5 29  1  0  0  0  0
  6 30  1  0  0  0  0
  7 31  1  0  0  0  0
  7 32  1  0  0  0  0
  8 33  1  0  0  0  0
  9 34  1  0  0  0  0
  9 35  1  0  0  0  0
 13 36  1  0  0  0  0
 14 37  1  0  0  0  0
 15 38  1  0  0  0  0
 16 39  1  0  0  0  0
M  END
$$$$
