C11H20N2O5
APtclcactv06281816403D 0   0.00000     0.00000
 
 38 37  0  0  0  0  0  0  0  0999 V2000
    4.6339    2.5451    0.9944 C   0  0  0  0  0  0  0  0  0  0  0  0
    3.4936    1.8321    0.2648 C   0  0  0  0  0  0  0  0  0  0  0  0
    3.5244    2.2063   -1.2184 C   0  0  0  0  0  0  0  0  0  0  0  0
    3.6612    0.3185    0.4125 C   0  0  0  0  0  0  0  0  0  0  0  0
    2.4566   -0.3910   -0.2090 C   0  0  0  0  0  0  0  0  0  0  0  0
    2.6782   -1.8812   -0.1738 C   0  0  0  0  0  0  0  0  0  0  0  0
    1.9064   -2.5928    0.4245 O   0  0  0  0  0  0  0  0  0  0  0  0
    3.7330   -2.4180   -0.8071 O   0  0  0  0  0  0  0  0  0  0  0  0
    1.2488   -0.0589    0.5507 N   0  0  0  0  0  0  0  0  0  0  0  0
    0.0405   -0.1224   -0.0430 C   0  0  0  0  0  0  0  0  0  0  0  0
   -0.0469   -0.4546   -1.2062 O   0  0  0  0  0  0  0  0  0  0  0  0
   -1.2019    0.2193    0.7384 C   0  0  0  0  0  0  0  0  0  0  0  0
   -2.4290    0.0676   -0.1627 C   0  0  0  0  0  0  0  0  0  0  0  0
   -3.6904    0.4145    0.6307 C   0  0  0  0  0  0  0  0  0  0  0  0
   -4.8853    0.3844   -0.2872 C   0  0  0  0  0  0  0  0  0  0  0  0
   -5.6119   -0.5808   -0.3016 O   0  0  0  0  0  0  0  0  0  0  0  0
   -5.1424    1.4300   -1.0887 O   0  0  0  0  0  0  0  0  0  0  0  0
   -3.8762   -0.5662    1.7085 N   0  0  0  0  0  0  0  0  0  0  0  0
    4.5145    3.6234    0.8891 H   0  0  0  0  0  0  0  0  0  0  0  0
    4.6120    2.2786    2.0511 H   0  0  0  0  0  0  0  0  0  0  0  0
    5.5876    2.2413    0.5627 H   0  0  0  0  0  0  0  0  0  0  0  0
    2.5400    2.1359    0.6965 H   0  0  0  0  0  0  0  0  0  0  0  0
    2.7120    1.6984   -1.7382 H   0  0  0  0  0  0  0  0  0  0  0  0
    3.4050    3.2846   -1.3237 H   0  0  0  0  0  0  0  0  0  0  0  0
    4.4780    1.9025   -1.6501 H   0  0  0  0  0  0  0  0  0  0  0  0
    4.5716    0.0024   -0.0967 H   0  0  0  0  0  0  0  0  0  0  0  0
    3.7284    0.0619    1.4697 H   0  0  0  0  0  0  0  0  0  0  0  0
    2.3367   -0.0658   -1.2424 H   0  0  0  0  0  0  0  0  0  0  0  0
    3.8333   -3.3785   -0.7562 H   0  0  0  0  0  0  0  0  0  0  0  0
    1.3187    0.2068    1.4810 H   0  0  0  0  0  0  0  0  0  0  0  0
   -1.2917   -0.4541    1.5909 H   0  0  0  0  0  0  0  0  0  0  0  0
   -1.1366    1.2479    1.0932 H   0  0  0  0  0  0  0  0  0  0  0  0
   -2.3393    0.7409   -1.0151 H   0  0  0  0  0  0  0  0  0  0  0  0
   -2.4944   -0.9610   -0.5175 H   0  0  0  0  0  0  0  0  0  0  0  0
   -3.5870    1.4110    1.0600 H   0  0  0  0  0  0  0  0  0  0  0  0
   -5.9200    1.3647   -1.6597 H   0  0  0  0  0  0  0  0  0  0  0  0
   -3.9745   -1.4987    1.3359 H   0  0  0  0  0  0  0  0  0  0  0  0
   -3.1186   -0.5206    2.3734 H   0  0  0  0  0  0  0  0  0  0  0  0
  1  2  1  0  0  0  0
  2  3  1  0  0  0  0
  2  4  1  0  0  0  0
  4  5  1  0  0  0  0
  5  6  1  0  0  0  0
  6  7  2  0  0  0  0
  6  8  1  0  0  0  0
  5  9  1  0  0  0  0
  9 10  1  0  0  0  0
 10 11  2  0  0  0  0
 10 12  1  0  0  0  0
 12 13  1  0  0  0  0
 13 14  1  0  0  0  0
 14 15  1  0  0  0  0
 15 16  2  0  0  0  0
 15 17  1  0  0  0  0
 14 18  1  0  0  0  0
  1 19  1  0  0  0  0
  1 20  1  0  0  0  0
  1 21  1  0  0  0  0
  2 22  1  0  0  0  0
  3 23  1  0  0  0  0
  3 24  1  0  0  0  0
  3 25  1  0  0  0  0
  4 26  1  0  0  0  0
  4 27  1  0  0  0  0
  5 28  1  0  0  0  0
  8 29  1  0  0  0  0
  9 30  1  0  0  0  0
 12 31  1  0  0  0  0
 12 32  1  0  0  0  0
 13 33  1  0  0  0  0
 13 34  1  0  0  0  0
 14 35  1  0  0  0  0
 17 36  1  0  0  0  0
 18 37  1  0  0  0  0
 18 38  1  0  0  0  0
M  END
$$$$
