C57H104O6
APtclcactv06281817153D 0   0.00000     0.00000
 
167166  0  0  0  0  0  0  0  0999 V2000
   23.5791   -4.9549   -2.2958 C   0  0  0  0  0  0  0  0  0  0  0  0
   23.1269   -3.9901   -1.1977 C   0  0  0  0  0  0  0  0  0  0  0  0
   21.7685   -3.3931   -1.5711 C   0  0  0  0  0  0  0  0  0  0  0  0
   21.3163   -2.4283   -0.4731 C   0  0  0  0  0  0  0  0  0  0  0  0
   19.9580   -1.8313   -0.8464 C   0  0  0  0  0  0  0  0  0  0  0  0
   19.5058   -0.8665    0.2516 C   0  0  0  0  0  0  0  0  0  0  0  0
   18.1475   -0.2695   -0.1217 C   0  0  0  0  0  0  0  0  0  0  0  0
   17.6953    0.6953    0.9763 C   0  0  0  0  0  0  0  0  0  0  0  0
   16.3574    1.2833    0.6086 C   0  0  0  0  0  0  0  0  0  0  0  0
   15.3484    1.1853    1.4384 C   0  0  0  0  0  0  0  0  0  0  0  0
   14.0105    1.7733    1.0707 C   0  0  0  0  0  0  0  0  0  0  0  0
   12.9337    0.6907    1.1672 C   0  0  0  0  0  0  0  0  0  0  0  0
   11.5754    1.2877    0.7938 C   0  0  0  0  0  0  0  0  0  0  0  0
   10.4985    0.2051    0.8903 C   0  0  0  0  0  0  0  0  0  0  0  0
    9.1402    0.8022    0.5170 C   0  0  0  0  0  0  0  0  0  0  0  0
    8.0634   -0.2805    0.6135 C   0  0  0  0  0  0  0  0  0  0  0  0
    6.7050    0.3166    0.2402 C   0  0  0  0  0  0  0  0  0  0  0  0
    5.6444   -0.7498    0.3352 C   0  0  0  0  0  0  0  0  0  0  0  0
    5.9442   -1.8721    0.6675 O   0  0  0  0  0  0  0  0  0  0  0  0
    4.3667   -0.4527    0.0508 O   0  0  0  0  0  0  0  0  0  0  0  0
    3.3988   -1.5292    0.1636 C   0  0  0  0  0  0  0  0  0  0  0  0
    2.0077   -1.0041   -0.1970 C   0  0  0  0  0  0  0  0  0  0  0  0
    1.0097   -2.1638   -0.1994 C   0  0  0  0  0  0  0  0  0  0  0  0
   -0.2840   -1.6881   -0.6558 O   0  0  0  0  0  0  0  0  0  0  0  0
   -1.2777   -2.5884   -0.7165 C   0  0  0  0  0  0  0  0  0  0  0  0
   -1.0732   -3.7361   -0.3987 O   0  0  0  0  0  0  0  0  0  0  0  0
   -2.6483   -2.1679   -1.1809 C   0  0  0  0  0  0  0  0  0  0  0  0
   -3.5877   -3.3753   -1.1567 C   0  0  0  0  0  0  0  0  0  0  0  0
   -4.9792   -2.9483   -1.6282 C   0  0  0  0  0  0  0  0  0  0  0  0
   -5.9186   -4.1557   -1.6039 C   0  0  0  0  0  0  0  0  0  0  0  0
   -7.3101   -3.7287   -2.0754 C   0  0  0  0  0  0  0  0  0  0  0  0
   -8.2496   -4.9361   -2.0512 C   0  0  0  0  0  0  0  0  0  0  0  0
   -9.6411   -4.5092   -2.5227 C   0  0  0  0  0  0  0  0  0  0  0  0
  -10.5664   -5.6984   -2.4989 C   0  0  0  0  0  0  0  0  0  0  0  0
  -11.6904   -5.6404   -1.8285 C   0  0  0  0  0  0  0  0  0  0  0  0
  -12.6157   -6.8296   -1.8046 C   0  0  0  0  0  0  0  0  0  0  0  0
  -12.9033   -7.2230   -0.3543 C   0  0  0  0  0  0  0  0  0  0  0  0
  -13.8428   -8.4304   -0.3301 C   0  0  0  0  0  0  0  0  0  0  0  0
  -14.1304   -8.8238    1.1202 C   0  0  0  0  0  0  0  0  0  0  0  0
  -15.0698  -10.0312    1.1444 C   0  0  0  0  0  0  0  0  0  0  0  0
  -15.3574  -10.4246    2.5948 C   0  0  0  0  0  0  0  0  0  0  0  0
  -16.2969  -11.6319    2.6190 C   0  0  0  0  0  0  0  0  0  0  0  0
  -16.5845  -12.0253    4.0693 C   0  0  0  0  0  0  0  0  0  0  0  0
    1.5959   -0.0132    0.7812 O   0  0  0  0  0  0  0  0  0  0  0  0
    0.7767    0.9607    0.3543 C   0  0  0  0  0  0  0  0  0  0  0  0
    0.4157    0.9844   -0.7985 O   0  0  0  0  0  0  0  0  0  0  0  0
    0.3072    2.0245    1.3129 C   0  0  0  0  0  0  0  0  0  0  0  0
   -0.6088    3.0051    0.5778 C   0  0  0  0  0  0  0  0  0  0  0  0
   -1.0854    4.0852    1.5511 C   0  0  0  0  0  0  0  0  0  0  0  0
   -2.0014    5.0658    0.8160 C   0  0  0  0  0  0  0  0  0  0  0  0
   -2.4780    6.1458    1.7892 C   0  0  0  0  0  0  0  0  0  0  0  0
   -3.3940    7.1264    1.0541 C   0  0  0  0  0  0  0  0  0  0  0  0
   -3.8706    8.2065    2.0274 C   0  0  0  0  0  0  0  0  0  0  0  0
   -4.7728    9.1724    1.3034 C   0  0  0  0  0  0  0  0  0  0  0  0
   -5.9784    9.4090    1.7580 C   0  0  0  0  0  0  0  0  0  0  0  0
   -6.8806   10.3749    1.0340 C   0  0  0  0  0  0  0  0  0  0  0  0
   -8.2011    9.6815    0.6929 C   0  0  0  0  0  0  0  0  0  0  0  0
   -9.1170   10.6620   -0.0422 C   0  0  0  0  0  0  0  0  0  0  0  0
  -10.4375    9.9686   -0.3833 C   0  0  0  0  0  0  0  0  0  0  0  0
  -11.3535   10.9492   -1.1184 C   0  0  0  0  0  0  0  0  0  0  0  0
  -12.6740   10.2558   -1.4595 C   0  0  0  0  0  0  0  0  0  0  0  0
  -13.5900   11.2363   -2.1946 C   0  0  0  0  0  0  0  0  0  0  0  0
  -14.9104   10.5429   -2.5357 C   0  0  0  0  0  0  0  0  0  0  0  0
   24.5468   -5.3802   -2.0298 H   0  0  0  0  0  0  0  0  0  0  0  0
   22.8467   -5.7554   -2.4003 H   0  0  0  0  0  0  0  0  0  0  0  0
   23.6659   -4.4163   -3.2395 H   0  0  0  0  0  0  0  0  0  0  0  0
   23.0401   -4.5286   -0.2541 H   0  0  0  0  0  0  0  0  0  0  0  0
   23.8592   -3.1896   -1.0932 H   0  0  0  0  0  0  0  0  0  0  0  0
   21.8554   -2.8545   -2.5148 H   0  0  0  0  0  0  0  0  0  0  0  0
   21.0362   -4.1936   -1.6756 H   0  0  0  0  0  0  0  0  0  0  0  0
   21.2295   -2.9668    0.4706 H   0  0  0  0  0  0  0  0  0  0  0  0
   22.0487   -1.6278   -0.3685 H   0  0  0  0  0  0  0  0  0  0  0  0
   20.0448   -1.2927   -1.7901 H   0  0  0  0  0  0  0  0  0  0  0  0
   19.2256   -2.6318   -0.9509 H   0  0  0  0  0  0  0  0  0  0  0  0
   19.4190   -1.4050    1.1953 H   0  0  0  0  0  0  0  0  0  0  0  0
   20.2382   -0.0660    0.3562 H   0  0  0  0  0  0  0  0  0  0  0  0
   18.2343    0.2690   -1.0654 H   0  0  0  0  0  0  0  0  0  0  0  0
   17.4151   -1.0700   -0.2262 H   0  0  0  0  0  0  0  0  0  0  0  0
   17.6085    0.1567    1.9200 H   0  0  0  0  0  0  0  0  0  0  0  0
   18.4277    1.4958    1.0809 H   0  0  0  0  0  0  0  0  0  0  0  0
   16.2303    1.7856   -0.3390 H   0  0  0  0  0  0  0  0  0  0  0  0
   15.4754    0.6829    2.3860 H   0  0  0  0  0  0  0  0  0  0  0  0
   13.7705    2.5866    1.7556 H   0  0  0  0  0  0  0  0  0  0  0  0
   14.0500    2.1567    0.0511 H   0  0  0  0  0  0  0  0  0  0  0  0
   13.1737   -0.1226    0.4823 H   0  0  0  0  0  0  0  0  0  0  0  0
   12.8942    0.3074    2.1868 H   0  0  0  0  0  0  0  0  0  0  0  0
   11.3353    2.1010    1.4787 H   0  0  0  0  0  0  0  0  0  0  0  0
   11.6148    1.6711   -0.2258 H   0  0  0  0  0  0  0  0  0  0  0  0
   10.7386   -0.6081    0.2054 H   0  0  0  0  0  0  0  0  0  0  0  0
   10.4591   -0.1782    1.9099 H   0  0  0  0  0  0  0  0  0  0  0  0
    8.9002    1.6154    1.2019 H   0  0  0  0  0  0  0  0  0  0  0  0
    9.1797    1.1855   -0.5026 H   0  0  0  0  0  0  0  0  0  0  0  0
    8.3034   -1.0937   -0.0714 H   0  0  0  0  0  0  0  0  0  0  0  0
    8.0239   -0.6638    1.6331 H   0  0  0  0  0  0  0  0  0  0  0  0
    6.4650    1.1299    0.9251 H   0  0  0  0  0  0  0  0  0  0  0  0
    6.7445    0.6999   -0.7794 H   0  0  0  0  0  0  0  0  0  0  0  0
    3.6708   -2.3352   -0.5179 H   0  0  0  0  0  0  0  0  0  0  0  0
    3.3913   -1.9053    1.1866 H   0  0  0  0  0  0  0  0  0  0  0  0
    2.0368   -0.5477   -1.1864 H   0  0  0  0  0  0  0  0  0  0  0  0
    1.3652   -2.9477   -0.8682 H   0  0  0  0  0  0  0  0  0  0  0  0
    0.9144   -2.5632    0.8103 H   0  0  0  0  0  0  0  0  0  0  0  0
   -3.0347   -1.3935   -0.5182 H   0  0  0  0  0  0  0  0  0  0  0  0
   -2.5839   -1.7779   -2.1967 H   0  0  0  0  0  0  0  0  0  0  0  0
   -3.2013   -4.1497   -1.8193 H   0  0  0  0  0  0  0  0  0  0  0  0
   -3.6521   -3.7652   -0.1408 H   0  0  0  0  0  0  0  0  0  0  0  0
   -5.3656   -2.1739   -0.9655 H   0  0  0  0  0  0  0  0  0  0  0  0
   -4.9148   -2.5584   -2.6440 H   0  0  0  0  0  0  0  0  0  0  0  0
   -5.5322   -4.9301   -2.2666 H   0  0  0  0  0  0  0  0  0  0  0  0
   -5.9830   -4.5457   -0.5881 H   0  0  0  0  0  0  0  0  0  0  0  0
   -7.6966   -2.9544   -1.4128 H   0  0  0  0  0  0  0  0  0  0  0  0
   -7.2458   -3.3388   -3.0913 H   0  0  0  0  0  0  0  0  0  0  0  0
   -7.8632   -5.7105   -2.7139 H   0  0  0  0  0  0  0  0  0  0  0  0
   -8.3139   -5.3261   -1.0354 H   0  0  0  0  0  0  0  0  0  0  0  0
  -10.0275   -3.7348   -1.8601 H   0  0  0  0  0  0  0  0  0  0  0  0
   -9.5767   -4.1192   -3.5386 H   0  0  0  0  0  0  0  0  0  0  0  0
  -10.3029   -6.5985   -3.0344 H   0  0  0  0  0  0  0  0  0  0  0  0
  -11.9539   -4.7403   -1.2929 H   0  0  0  0  0  0  0  0  0  0  0  0
  -13.5502   -6.5730   -2.3036 H   0  0  0  0  0  0  0  0  0  0  0  0
  -12.1456   -7.6662   -2.3216 H   0  0  0  0  0  0  0  0  0  0  0  0
  -11.9689   -7.4797    0.1447 H   0  0  0  0  0  0  0  0  0  0  0  0
  -13.3734   -6.3865    0.1627 H   0  0  0  0  0  0  0  0  0  0  0  0
  -14.7772   -8.1737   -0.8291 H   0  0  0  0  0  0  0  0  0  0  0  0
  -13.3727   -9.2670   -0.8471 H   0  0  0  0  0  0  0  0  0  0  0  0
  -13.1959   -9.0804    1.6192 H   0  0  0  0  0  0  0  0  0  0  0  0
  -14.6005   -7.9872    1.6372 H   0  0  0  0  0  0  0  0  0  0  0  0
  -16.0043   -9.7745    0.6454 H   0  0  0  0  0  0  0  0  0  0  0  0
  -14.5997  -10.8677    0.6275 H   0  0  0  0  0  0  0  0  0  0  0  0
  -14.4230  -10.6812    3.0938 H   0  0  0  0  0  0  0  0  0  0  0  0
  -15.8275   -9.5880    3.1117 H   0  0  0  0  0  0  0  0  0  0  0  0
  -17.2313  -11.3753    2.1200 H   0  0  0  0  0  0  0  0  0  0  0  0
  -15.8268  -12.4685    2.1020 H   0  0  0  0  0  0  0  0  0  0  0  0
  -15.6500  -12.2820    4.5683 H   0  0  0  0  0  0  0  0  0  0  0  0
  -17.0546  -11.1888    4.5863 H   0  0  0  0  0  0  0  0  0  0  0  0
  -17.2538  -12.8855    4.0866 H   0  0  0  0  0  0  0  0  0  0  0  0
   -0.2413    1.5592    2.1319 H   0  0  0  0  0  0  0  0  0  0  0  0
    1.1687    2.5607    1.7109 H   0  0  0  0  0  0  0  0  0  0  0  0
   -0.0603    3.4704   -0.2411 H   0  0  0  0  0  0  0  0  0  0  0  0
   -1.4703    2.4689    0.1798 H   0  0  0  0  0  0  0  0  0  0  0  0
   -1.6339    3.6199    2.3700 H   0  0  0  0  0  0  0  0  0  0  0  0
   -0.2239    4.6214    1.9491 H   0  0  0  0  0  0  0  0  0  0  0  0
   -1.4529    5.5311   -0.0030 H   0  0  0  0  0  0  0  0  0  0  0  0
   -2.8629    4.5296    0.4180 H   0  0  0  0  0  0  0  0  0  0  0  0
   -3.0265    5.6805    2.6082 H   0  0  0  0  0  0  0  0  0  0  0  0
   -1.6165    6.6820    2.1873 H   0  0  0  0  0  0  0  0  0  0  0  0
   -2.8455    7.5918    0.2352 H   0  0  0  0  0  0  0  0  0  0  0  0
   -4.2555    6.5902    0.6561 H   0  0  0  0  0  0  0  0  0  0  0  0
   -4.4191    7.7412    2.8464 H   0  0  0  0  0  0  0  0  0  0  0  0
   -3.0091    8.7427    2.4254 H   0  0  0  0  0  0  0  0  0  0  0  0
   -4.4255    9.6694    0.4097 H   0  0  0  0  0  0  0  0  0  0  0  0
   -6.3257    8.9120    2.6517 H   0  0  0  0  0  0  0  0  0  0  0  0
   -7.0769   11.2366    1.6719 H   0  0  0  0  0  0  0  0  0  0  0  0
   -6.3960   10.7058    0.1154 H   0  0  0  0  0  0  0  0  0  0  0  0
   -8.0047    8.8197    0.0549 H   0  0  0  0  0  0  0  0  0  0  0  0
   -8.6856    9.3506    1.6115 H   0  0  0  0  0  0  0  0  0  0  0  0
   -9.3134   11.5238    0.5957 H   0  0  0  0  0  0  0  0  0  0  0  0
   -8.6325   10.9929   -0.9608 H   0  0  0  0  0  0  0  0  0  0  0  0
  -10.2412    9.1069   -1.0213 H   0  0  0  0  0  0  0  0  0  0  0  0
  -10.9220    9.6377    0.5353 H   0  0  0  0  0  0  0  0  0  0  0  0
  -11.5498   11.8109   -0.4804 H   0  0  0  0  0  0  0  0  0  0  0  0
  -10.8690   11.2801   -2.0370 H   0  0  0  0  0  0  0  0  0  0  0  0
  -12.4776    9.3940   -2.0975 H   0  0  0  0  0  0  0  0  0  0  0  0
  -13.1585    9.9249   -0.5409 H   0  0  0  0  0  0  0  0  0  0  0  0
  -13.7863   12.0981   -1.5566 H   0  0  0  0  0  0  0  0  0  0  0  0
  -13.1054   11.5672   -3.1132 H   0  0  0  0  0  0  0  0  0  0  0  0
  -15.5630   11.2415   -3.0594 H   0  0  0  0  0  0  0  0  0  0  0  0
  -14.7141    9.6812   -3.1737 H   0  0  0  0  0  0  0  0  0  0  0  0
  -15.3950   10.2120   -1.6171 H   0  0  0  0  0  0  0  0  0  0  0  0
  1  2  1  0  0  0  0
  2  3  1  0  0  0  0
  3  4  1  0  0  0  0
  4  5  1  0  0  0  0
  5  6  1  0  0  0  0
  6  7  1  0  0  0  0
  7  8  1  0  0  0  0
  8  9  1  0  0  0  0
  9 10  2  0  0  0  0
 10 11  1  0  0  0  0
 11 12  1  0  0  0  0
 12 13  1  0  0  0  0
 13 14  1  0  0  0  0
 14 15  1  0  0  0  0
 15 16  1  0  0  0  0
 16 17  1  0  0  0  0
 17 18  1  0  0  0  0
 18 19  2  0  0  0  0
 18 20  1  0  0  0  0
 20 21  1  0  0  0  0
 21 22  1  0  0  0  0
 22 23  1  0  0  0  0
 23 24  1  0  0  0  0
 24 25  1  0  0  0  0
 25 26  2  0  0  0  0
 25 27  1  0  0  0  0
 27 28  1  0  0  0  0
 28 29  1  0  0  0  0
 29 30  1  0  0  0  0
 30 31  1  0  0  0  0
 31 32  1  0  0  0  0
 32 33  1  0  0  0  0
 33 34  1  0  0  0  0
 34 35  2  0  0  0  0
 35 36  1  0  0  0  0
 36 37  1  0  0  0  0
 37 38  1  0  0  0  0
 38 39  1  0  0  0  0
 39 40  1  0  0  0  0
 40 41  1  0  0  0  0
 41 42  1  0  0  0  0
 42 43  1  0  0  0  0
 22 44  1  0  0  0  0
 44 45  1  0  0  0  0
 45 46  2  0  0  0  0
 45 47  1  0  0  0  0
 47 48  1  0  0  0  0
 48 49  1  0  0  0  0
 49 50  1  0  0  0  0
 50 51  1  0  0  0  0
 51 52  1  0  0  0  0
 52 53  1  0  0  0  0
 53 54  1  0  0  0  0
 54 55  2  0  0  0  0
 55 56  1  0  0  0  0
 56 57  1  0  0  0  0
 57 58  1  0  0  0  0
 58 59  1  0  0  0  0
 59 60  1  0  0  0  0
 60 61  1  0  0  0  0
 61 62  1  0  0  0  0
 62 63  1  0  0  0  0
  1 64  1  0  0  0  0
  1 65  1  0  0  0  0
  1 66  1  0  0  0  0
  2 67  1  0  0  0  0
  2 68  1  0  0  0  0
  3 69  1  0  0  0  0
  3 70  1  0  0  0  0
  4 71  1  0  0  0  0
  4 72  1  0  0  0  0
  5 73  1  0  0  0  0
  5 74  1  0  0  0  0
  6 75  1  0  0  0  0
  6 76  1  0  0  0  0
  7 77  1  0  0  0  0
  7 78  1  0  0  0  0
  8 79  1  0  0  0  0
  8 80  1  0  0  0  0
  9 81  1  0  0  0  0
 10 82  1  0  0  0  0
 11 83  1  0  0  0  0
 11 84  1  0  0  0  0
 12 85  1  0  0  0  0
 12 86  1  0  0  0  0
 13 87  1  0  0  0  0
 13 88  1  0  0  0  0
 14 89  1  0  0  0  0
 14 90  1  0  0  0  0
 15 91  1  0  0  0  0
 15 92  1  0  0  0  0
 16 93  1  0  0  0  0
 16 94  1  0  0  0  0
 17 95  1  0  0  0  0
 17 96  1  0  0  0  0
 21 97  1  0  0  0  0
 21 98  1  0  0  0  0
 22 99  1  0  0  0  0
 23100  1  0  0  0  0
 23101  1  0  0  0  0
 27102  1  0  0  0  0
 27103  1  0  0  0  0
 28104  1  0  0  0  0
 28105  1  0  0  0  0
 29106  1  0  0  0  0
 29107  1  0  0  0  0
 30108  1  0  0  0  0
 30109  1  0  0  0  0
 31110  1  0  0  0  0
 31111  1  0  0  0  0
 32112  1  0  0  0  0
 32113  1  0  0  0  0
 33114  1  0  0  0  0
 33115  1  0  0  0  0
 34116  1  0  0  0  0
 35117  1  0  0  0  0
 36118  1  0  0  0  0
 36119  1  0  0  0  0
 37120  1  0  0  0  0
 37121  1  0  0  0  0
 38122  1  0  0  0  0
 38123  1  0  0  0  0
 39124  1  0  0  0  0
 39125  1  0  0  0  0
 40126  1  0  0  0  0
 40127  1  0  0  0  0
 41128  1  0  0  0  0
 41129  1  0  0  0  0
 42130  1  0  0  0  0
 42131  1  0  0  0  0
 43132  1  0  0  0  0
 43133  1  0  0  0  0
 43134  1  0  0  0  0
 47135  1  0  0  0  0
 47136  1  0  0  0  0
 48137  1  0  0  0  0
 48138  1  0  0  0  0
 49139  1  0  0  0  0
 49140  1  0  0  0  0
 50141  1  0  0  0  0
 50142  1  0  0  0  0
 51143  1  0  0  0  0
 51144  1  0  0  0  0
 52145  1  0  0  0  0
 52146  1  0  0  0  0
 53147  1  0  0  0  0
 53148  1  0  0  0  0
 54149  1  0  0  0  0
 55150  1  0  0  0  0
 56151  1  0  0  0  0
 56152  1  0  0  0  0
 57153  1  0  0  0  0
 57154  1  0  0  0  0
 58155  1  0  0  0  0
 58156  1  0  0  0  0
 59157  1  0  0  0  0
 59158  1  0  0  0  0
 60159  1  0  0  0  0
 60160  1  0  0  0  0
 61161  1  0  0  0  0
 61162  1  0  0  0  0
 62163  1  0  0  0  0
 62164  1  0  0  0  0
 63165  1  0  0  0  0
 63166  1  0  0  0  0
 63167  1  0  0  0  0
M  END
$$$$
