C18H22O4
APtclcactv06211804353D 0   0.00000     0.00000
 
 44 45  0  0  0  0  0  0  0  0999 V2000
    1.3793    2.1270    0.4933 C   0  0  0  0  0  0  0  0  0  0  0  0
    0.7538    0.8777   -0.1304 C   0  0  0  0  0  0  0  0  0  0  0  0
    1.3793   -0.3715    0.4933 C   0  0  0  0  0  0  0  0  0  0  0  0
    2.8411   -0.4350    0.1325 C   0  0  0  0  0  0  0  0  0  0  0  0
    3.7803    0.1629    0.9520 C   0  0  0  0  0  0  0  0  0  0  0  0
    5.1248    0.1054    0.6216 C   0  0  0  0  0  0  0  0  0  0  0  0
    5.5262   -0.5549   -0.5357 C   0  0  0  0  0  0  0  0  0  0  0  0
    4.5796   -1.1520   -1.3526 C   0  0  0  0  0  0  0  0  0  0  0  0
    3.2404   -1.0959   -1.0143 C   0  0  0  0  0  0  0  0  0  0  0  0
    6.8445   -0.6136   -0.8644 O   0  0  0  0  0  0  0  0  0  0  0  0
    6.0500    0.6934    1.4264 O   0  0  0  0  0  0  0  0  0  0  0  0
   -0.7538    0.8777    0.1304 C   0  0  0  0  0  0  0  0  0  0  0  0
   -1.3793    2.1270   -0.4933 C   0  0  0  0  0  0  0  0  0  0  0  0
   -1.3793   -0.3715   -0.4933 C   0  0  0  0  0  0  0  0  0  0  0  0
   -2.8411   -0.4350   -0.1325 C   0  0  0  0  0  0  0  0  0  0  0  0
   -3.7803    0.1629   -0.9520 C   0  0  0  0  0  0  0  0  0  0  0  0
   -5.1248    0.1054   -0.6216 C   0  0  0  0  0  0  0  0  0  0  0  0
   -5.5262   -0.5549    0.5357 C   0  0  0  0  0  0  0  0  0  0  0  0
   -4.5796   -1.1520    1.3526 C   0  0  0  0  0  0  0  0  0  0  0  0
   -3.2404   -1.0959    1.0143 C   0  0  0  0  0  0  0  0  0  0  0  0
   -6.8445   -0.6136    0.8644 O   0  0  0  0  0  0  0  0  0  0  0  0
   -6.0500    0.6934   -1.4264 O   0  0  0  0  0  0  0  0  0  0  0  0
    0.9337    3.0169    0.0490 H   0  0  0  0  0  0  0  0  0  0  0  0
    1.1965    2.1270    1.5679 H   0  0  0  0  0  0  0  0  0  0  0  0
    2.4533    2.1270    0.3075 H   0  0  0  0  0  0  0  0  0  0  0  0
    0.9366    0.8777   -1.2050 H   0  0  0  0  0  0  0  0  0  0  0  0
    1.2742   -0.3279    1.5774 H   0  0  0  0  0  0  0  0  0  0  0  0
    0.8727   -1.2592    0.1146 H   0  0  0  0  0  0  0  0  0  0  0  0
    3.4662    0.6750    1.8494 H   0  0  0  0  0  0  0  0  0  0  0  0
    4.8885   -1.6651   -2.2514 H   0  0  0  0  0  0  0  0  0  0  0  0
    2.5036   -1.5617   -1.6519 H   0  0  0  0  0  0  0  0  0  0  0  0
    7.3062   -1.3824   -0.5026 H   0  0  0  0  0  0  0  0  0  0  0  0
    6.3977    0.1118    2.1162 H   0  0  0  0  0  0  0  0  0  0  0  0
   -0.9366    0.8777    1.2050 H   0  0  0  0  0  0  0  0  0  0  0  0
   -1.1965    2.1270   -1.5679 H   0  0  0  0  0  0  0  0  0  0  0  0
   -2.4533    2.1270   -0.3075 H   0  0  0  0  0  0  0  0  0  0  0  0
   -0.9337    3.0169   -0.0490 H   0  0  0  0  0  0  0  0  0  0  0  0
   -1.2742   -0.3279   -1.5774 H   0  0  0  0  0  0  0  0  0  0  0  0
   -0.8727   -1.2592   -0.1146 H   0  0  0  0  0  0  0  0  0  0  0  0
   -3.4662    0.6750   -1.8494 H   0  0  0  0  0  0  0  0  0  0  0  0
   -4.8885   -1.6651    2.2514 H   0  0  0  0  0  0  0  0  0  0  0  0
   -2.5036   -1.5617    1.6519 H   0  0  0  0  0  0  0  0  0  0  0  0
   -7.3062   -1.3824    0.5026 H   0  0  0  0  0  0  0  0  0  0  0  0
   -6.3977    0.1118   -2.1162 H   0  0  0  0  0  0  0  0  0  0  0  0
  1  2  1  0  0  0  0
  2  3  1  0  0  0  0
  3  4  1  0  0  0  0
  4  5  2  0  0  0  0
  5  6  1  0  0  0  0
  6  7  2  0  0  0  0
  7  8  1  0  0  0  0
  8  9  2  0  0  0  0
  4  9  1  0  0  0  0
  7 10  1  0  0  0  0
  6 11  1  0  0  0  0
  2 12  1  0  0  0  0
 12 13  1  0  0  0  0
 12 14  1  0  0  0  0
 14 15  1  0  0  0  0
 15 16  2  0  0  0  0
 16 17  1  0  0  0  0
 17 18  2  0  0  0  0
 18 19  1  0  0  0  0
 19 20  2  0  0  0  0
 15 20  1  0  0  0  0
 18 21  1  0  0  0  0
 17 22  1  0  0  0  0
  1 23  1  0  0  0  0
  1 24  1  0  0  0  0
  1 25  1  0  0  0  0
  2 26  1  0  0  0  0
  3 27  1  0  0  0  0
  3 28  1  0  0  0  0
  5 29  1  0  0  0  0
  8 30  1  0  0  0  0
  9 31  1  0  0  0  0
 10 32  1  0  0  0  0
 11 33  1  0  0  0  0
 12 34  1  0  0  0  0
 13 35  1  0  0  0  0
 13 36  1  0  0  0  0
 13 37  1  0  0  0  0
 14 38  1  0  0  0  0
 14 39  1  0  0  0  0
 16 40  1  0  0  0  0
 19 41  1  0  0  0  0
 20 42  1  0  0  0  0
 21 43  1  0  0  0  0
 22 44  1  0  0  0  0
M  END
$$$$
