C13H12O7
APtclcactv06291802523D 0   0.00000     0.00000
 
 32 32  0  0  0  0  0  0  0  0999 V2000
   -3.2878   -0.4053   -0.8247 C   0  0  0  0  0  0  0  0  0  0  0  0
   -4.5858   -0.6669   -1.2011 C   0  0  0  0  0  0  0  0  0  0  0  0
   -5.6404   -0.2913   -0.3767 C   0  0  0  0  0  0  0  0  0  0  0  0
   -5.3905    0.3499    0.8314 C   0  0  0  0  0  0  0  0  0  0  0  0
   -4.0962    0.6162    1.2172 C   0  0  0  0  0  0  0  0  0  0  0  0
   -3.0306    0.2397    0.3909 C   0  0  0  0  0  0  0  0  0  0  0  0
   -1.6469    0.5210    0.7980 C   0  0  0  0  0  0  0  0  0  0  0  0
   -0.6204    0.1567   -0.0011 C   0  0  0  0  0  0  0  0  0  0  0  0
    0.7146    0.4282    0.3917 C   0  0  0  0  0  0  0  0  0  0  0  0
    0.9357    0.9891    1.4482 O   0  0  0  0  0  0  0  0  0  0  0  0
    1.7399    0.0643   -0.4065 O   0  0  0  0  0  0  0  0  0  0  0  0
    3.0586    0.3691    0.0519 C   0  0  0  0  0  0  0  0  0  0  0  0
    4.0394   -0.6752   -0.4854 C   0  0  0  0  0  0  0  0  0  0  0  0
    3.7130   -2.0222    0.1063 C   0  0  0  0  0  0  0  0  0  0  0  0
    2.7906   -2.1353    0.8785 O   0  0  0  0  0  0  0  0  0  0  0  0
    4.4469   -3.0962   -0.2245 O   0  0  0  0  0  0  0  0  0  0  0  0
    3.4590    1.7353   -0.4422 C   0  0  0  0  0  0  0  0  0  0  0  0
    2.6935    2.3817   -1.1176 O   0  0  0  0  0  0  0  0  0  0  0  0
    4.6659    2.2341   -0.1321 O   0  0  0  0  0  0  0  0  0  0  0  0
   -6.9184   -0.5512   -0.7526 O   0  0  0  0  0  0  0  0  0  0  0  0
   -2.4691   -0.7011   -1.4639 H   0  0  0  0  0  0  0  0  0  0  0  0
   -4.7853   -1.1644   -2.1387 H   0  0  0  0  0  0  0  0  0  0  0  0
   -6.2132    0.6399    1.4680 H   0  0  0  0  0  0  0  0  0  0  0  0
   -3.9032    1.1146    2.1556 H   0  0  0  0  0  0  0  0  0  0  0  0
   -1.4506    1.0190    1.7360 H   0  0  0  0  0  0  0  0  0  0  0  0
   -0.8167   -0.3413   -0.9391 H   0  0  0  0  0  0  0  0  0  0  0  0
    3.0763    0.3573    1.1417 H   0  0  0  0  0  0  0  0  0  0  0  0
    3.9575   -0.7258   -1.5711 H   0  0  0  0  0  0  0  0  0  0  0  0
    5.0560   -0.3942   -0.2104 H   0  0  0  0  0  0  0  0  0  0  0  0
    4.1995   -3.9387    0.1805 H   0  0  0  0  0  0  0  0  0  0  0  0
    4.8777    3.1144   -0.4718 H   0  0  0  0  0  0  0  0  0  0  0  0
   -7.2493   -1.4095   -0.4545 H   0  0  0  0  0  0  0  0  0  0  0  0
  1  2  2  0  0  0  0
  2  3  1  0  0  0  0
  3  4  2  0  0  0  0
  4  5  1  0  0  0  0
  5  6  2  0  0  0  0
  1  6  1  0  0  0  0
  6  7  1  0  0  0  0
  7  8  2  0  0  0  0
  8  9  1  0  0  0  0
  9 10  2  0  0  0  0
  9 11  1  0  0  0  0
 11 12  1  0  0  0  0
 12 13  1  0  0  0  0
 13 14  1  0  0  0  0
 14 15  2  0  0  0  0
 14 16  1  0  0  0  0
 12 17  1  0  0  0  0
 17 18  2  0  0  0  0
 17 19  1  0  0  0  0
  3 20  1  0  0  0  0
  1 21  1  0  0  0  0
  2 22  1  0  0  0  0
  4 23  1  0  0  0  0
  5 24  1  0  0  0  0
  7 25  1  0  0  0  0
  8 26  1  0  0  0  0
 12 27  1  0  0  0  0
 13 28  1  0  0  0  0
 13 29  1  0  0  0  0
 16 30  1  0  0  0  0
 19 31  1  0  0  0  0
 20 32  1  0  0  0  0
M  END
$$$$
