C6H14NO2S
APtclcactv06211804303D 0   0.00000     0.00000
 
 24 23  0  0  0  0  0  0  0  0999 V2000
    3.8072   -0.0432   -0.8992 C   0  0  0  0  0  0  0  0  0  0  0  0
    2.4389   -0.5505    0.1784 S   0  3  0  0  0  0  0  0  0  0  0  0
    2.5824    0.5880    1.5833 C   0  0  0  0  0  0  0  0  0  0  0  0
    0.9771    0.0675   -0.7001 C   0  0  0  0  0  0  0  0  0  0  0  0
   -0.2822   -0.2861    0.0937 C   0  0  0  0  0  0  0  0  0  0  0  0
   -1.5152    0.2351   -0.6472 C   0  0  0  0  0  0  0  0  0  0  0  0
   -2.7609   -0.2185    0.0694 C   0  0  0  0  0  0  0  0  0  0  0  0
   -3.3448    0.5410    0.8057 O   0  0  0  0  0  0  0  0  0  0  0  0
   -3.2218   -1.4663   -0.1103 O   0  0  0  0  0  0  0  0  0  0  0  0
   -1.4794    1.7032   -0.6853 N   0  0  0  0  0  0  0  0  0  0  0  0
    4.7523   -0.3673   -0.4634 H   0  0  0  0  0  0  0  0  0  0  0  0
    3.6846   -0.4997   -1.8814 H   0  0  0  0  0  0  0  0  0  0  0  0
    3.8069    1.0421   -1.0004 H   0  0  0  0  0  0  0  0  0  0  0  0
    2.4799    1.6145    1.2311 H   0  0  0  0  0  0  0  0  0  0  0  0
    1.7968    0.3723    2.3075 H   0  0  0  0  0  0  0  0  0  0  0  0
    3.5566    0.4615    2.0555 H   0  0  0  0  0  0  0  0  0  0  0  0
    1.0476    1.1500   -0.8062 H   0  0  0  0  0  0  0  0  0  0  0  0
    0.9253   -0.3917   -1.6872 H   0  0  0  0  0  0  0  0  0  0  0  0
   -0.3528   -1.3687    0.1998 H   0  0  0  0  0  0  0  0  0  0  0  0
   -0.2304    0.1731    1.0809 H   0  0  0  0  0  0  0  0  0  0  0  0
   -1.5193   -0.1548   -1.6651 H   0  0  0  0  0  0  0  0  0  0  0  0
   -4.0242   -1.7115    0.3706 H   0  0  0  0  0  0  0  0  0  0  0  0
   -1.4750    2.0891    0.2470 H   0  0  0  0  0  0  0  0  0  0  0  0
   -0.6869    2.0318   -1.2164 H   0  0  0  0  0  0  0  0  0  0  0  0
  1  2  1  0  0  0  0
  2  3  1  0  0  0  0
  2  4  1  0  0  0  0
  4  5  1  0  0  0  0
  5  6  1  0  0  0  0
  6  7  1  0  0  0  0
  7  8  2  0  0  0  0
  7  9  1  0  0  0  0
  6 10  1  0  0  0  0
  1 11  1  0  0  0  0
  1 12  1  0  0  0  0
  1 13  1  0  0  0  0
  3 14  1  0  0  0  0
  3 15  1  0  0  0  0
  3 16  1  0  0  0  0
  4 17  1  0  0  0  0
  4 18  1  0  0  0  0
  5 19  1  0  0  0  0
  5 20  1  0  0  0  0
  6 21  1  0  0  0  0
  9 22  1  0  0  0  0
 10 23  1  0  0  0  0
 10 24  1  0  0  0  0
M  CHG  1   2   1
M  END
$$$$
