C30H52O26
APtclcactv06281816403D 0   0.00000     0.00000
 
108112  0  0  0  0  0  0  0  0999 V2000
    9.3967    1.1605   -0.3576 C   0  0  0  0  0  0  0  0  0  0  0  0
    8.1902    0.4252    0.2295 C   0  0  0  0  0  0  0  0  0  0  0  0
    8.5150   -1.0651    0.3608 C   0  0  0  0  0  0  0  0  0  0  0  0
    7.3255   -1.7841    1.0045 C   0  0  0  0  0  0  0  0  0  0  0  0
    7.0215   -1.1340    2.3578 C   0  0  0  0  0  0  0  0  0  0  0  0
    6.7545    0.3590    2.1493 C   0  0  0  0  0  0  0  0  0  0  0  0
    7.8871    0.9607    1.5192 O   0  0  0  0  0  0  0  0  0  0  0  0
    5.6030    0.5258    1.3197 O   0  0  0  0  0  0  0  0  0  0  0  0
    5.1983    1.8863    1.1539 C   0  0  0  0  0  0  0  0  0  0  0  0
    3.9634    1.9447    0.2524 C   0  0  0  0  0  0  0  0  0  0  0  0
    3.4555    3.3869    0.1753 C   0  0  0  0  0  0  0  0  0  0  0  0
    2.2564    3.4474   -0.7759 C   0  0  0  0  0  0  0  0  0  0  0  0
    2.6771    2.9052   -2.1454 C   0  0  0  0  0  0  0  0  0  0  0  0
    3.2151    1.4817   -1.9786 C   0  0  0  0  0  0  0  0  0  0  0  0
    4.3083    1.4918   -1.0583 O   0  0  0  0  0  0  0  0  0  0  0  0
    2.1780    0.6360   -1.4773 O   0  0  0  0  0  0  0  0  0  0  0  0
    2.5433   -0.7429   -1.3910 C   0  0  0  0  0  0  0  0  0  0  0  0
    1.3635   -1.5497   -0.8451 C   0  0  0  0  0  0  0  0  0  0  0  0
    1.7099   -3.0408   -0.8696 C   0  0  0  0  0  0  0  0  0  0  0  0
    0.5485   -3.8367   -0.2662 C   0  0  0  0  0  0  0  0  0  0  0  0
    0.2766   -3.3262    1.1522 C   0  0  0  0  0  0  0  0  0  0  0  0
   -0.0144   -1.8242    1.0985 C   0  0  0  0  0  0  0  0  0  0  0  0
    1.0920   -1.1471    0.4988 O   0  0  0  0  0  0  0  0  0  0  0  0
   -1.1916   -1.5943    0.3218 O   0  0  0  0  0  0  0  0  0  0  0  0
   -1.7003   -0.2624    0.4176 C   0  0  0  0  0  0  0  0  0  0  0  0
   -3.0239   -0.1659   -0.3438 C   0  0  0  0  0  0  0  0  0  0  0  0
   -2.8208   -0.6450   -1.7835 C   0  0  0  0  0  0  0  0  0  0  0  0
   -4.1623   -0.6024   -2.5216 C   0  0  0  0  0  0  0  0  0  0  0  0
   -5.1783   -1.4603   -1.7614 C   0  0  0  0  0  0  0  0  0  0  0  0
   -5.2904   -0.9497   -0.3225 C   0  0  0  0  0  0  0  0  0  0  0  0
   -4.0029   -0.9868    0.2964 O   0  0  0  0  0  0  0  0  0  0  0  0
   -5.7769    0.3939   -0.3301 O   0  0  0  0  0  0  0  0  0  0  0  0
   -6.3635    0.8067    0.9058 C   0  0  0  0  0  0  0  0  0  0  0  0
   -6.9251    2.2405    0.7821 C   0  0  0  0  0  0  0  0  0  0  0  0
   -8.4156    2.0311    0.4331 C   0  0  0  0  0  0  0  0  0  0  0  0
   -8.5782    0.4956    0.3873 C   0  0  0  0  0  0  0  0  0  0  0  0
   -7.5109   -0.0135    1.2165 O   0  0  0  0  0  0  0  0  0  0  0  0
   -9.9375    0.0866    0.9582 C   0  0  0  0  0  0  0  0  0  0  0  0
  -10.1161   -1.3224    0.8003 O   0  0  0  0  0  0  0  0  0  0  0  0
   -9.2510    2.5930    1.4472 O   0  0  0  0  0  0  0  0  0  0  0  0
   -6.7945    2.9382    2.0224 O   0  0  0  0  0  0  0  0  0  0  0  0
   -5.3326    0.7340    2.0340 C   0  0  0  0  0  0  0  0  0  0  0  0
   -4.9835   -0.6310    2.2729 O   0  0  0  0  0  0  0  0  0  0  0  0
   -6.4531   -1.3699   -2.4008 O   0  0  0  0  0  0  0  0  0  0  0  0
   -4.6294    0.7465   -2.5869 O   0  0  0  0  0  0  0  0  0  0  0  0
   -1.8851    0.2098   -2.4438 O   0  0  0  0  0  0  0  0  0  0  0  0
   -0.8518   -4.0121    1.6984 O   0  0  0  0  0  0  0  0  0  0  0  0
   -0.6200   -3.6609   -1.0697 O   0  0  0  0  0  0  0  0  0  0  0  0
    1.9253   -3.4590   -2.2189 O   0  0  0  0  0  0  0  0  0  0  0  0
    1.5474    2.8893   -3.0203 O   0  0  0  0  0  0  0  0  0  0  0  0
    1.1910    2.6513   -0.2533 O   0  0  0  0  0  0  0  0  0  0  0  0
    3.0555    3.8226    1.4762 O   0  0  0  0  0  0  0  0  0  0  0  0
    5.8682   -1.7494    2.9349 O   0  0  0  0  0  0  0  0  0  0  0  0
    6.1827   -1.6738    0.1537 O   0  0  0  0  0  0  0  0  0  0  0  0
    8.7619   -1.6160   -0.9345 O   0  0  0  0  0  0  0  0  0  0  0  0
    9.0545    2.5286   -0.5886 O   0  0  0  0  0  0  0  0  0  0  0  0
   10.2304    1.1077    0.3425 H   0  0  0  0  0  0  0  0  0  0  0  0
    9.6835    0.6936   -1.2999 H   0  0  0  0  0  0  0  0  0  0  0  0
    7.3309    0.5534   -0.4287 H   0  0  0  0  0  0  0  0  0  0  0  0
    9.3989   -1.1916    0.9859 H   0  0  0  0  0  0  0  0  0  0  0  0
    7.5715   -2.8357    1.1522 H   0  0  0  0  0  0  0  0  0  0  0  0
    7.8752   -1.2619    3.0233 H   0  0  0  0  0  0  0  0  0  0  0  0
    6.5796    0.8351    3.1141 H   0  0  0  0  0  0  0  0  0  0  0  0
    4.9585    2.3152    2.1268 H   0  0  0  0  0  0  0  0  0  0  0  0
    6.0091    2.4534    0.6966 H   0  0  0  0  0  0  0  0  0  0  0  0
    3.1822    1.3058    0.6642 H   0  0  0  0  0  0  0  0  0  0  0  0
    4.2497    4.0333   -0.1982 H   0  0  0  0  0  0  0  0  0  0  0  0
    1.9246    4.4806   -0.8791 H   0  0  0  0  0  0  0  0  0  0  0  0
    3.4556    3.5419   -2.5657 H   0  0  0  0  0  0  0  0  0  0  0  0
    3.5558    1.1065   -2.9436 H   0  0  0  0  0  0  0  0  0  0  0  0
    2.8079   -1.1113   -2.3822 H   0  0  0  0  0  0  0  0  0  0  0  0
    3.3977   -0.8513   -0.7230 H   0  0  0  0  0  0  0  0  0  0  0  0
    0.4837   -1.3708   -1.4632 H   0  0  0  0  0  0  0  0  0  0  0  0
    2.6132   -3.2145   -0.2848 H   0  0  0  0  0  0  0  0  0  0  0  0
    0.8114   -4.8939   -0.2291 H   0  0  0  0  0  0  0  0  0  0  0  0
    1.1510   -3.5057    1.7778 H   0  0  0  0  0  0  0  0  0  0  0  0
   -0.1666   -1.4470    2.1098 H   0  0  0  0  0  0  0  0  0  0  0  0
   -1.8647   -0.0107    1.4653 H   0  0  0  0  0  0  0  0  0  0  0  0
   -0.9810    0.4332   -0.0146 H   0  0  0  0  0  0  0  0  0  0  0  0
   -3.3651    0.8693   -0.3499 H   0  0  0  0  0  0  0  0  0  0  0  0
   -2.4408   -1.6666   -1.7773 H   0  0  0  0  0  0  0  0  0  0  0  0
   -4.0360   -0.9951   -3.5306 H   0  0  0  0  0  0  0  0  0  0  0  0
   -4.8460   -2.4984   -1.7546 H   0  0  0  0  0  0  0  0  0  0  0  0
   -5.9802   -1.5831    0.2353 H   0  0  0  0  0  0  0  0  0  0  0  0
   -6.4182    2.7817   -0.0168 H   0  0  0  0  0  0  0  0  0  0  0  0
   -8.6456    2.4687   -0.5383 H   0  0  0  0  0  0  0  0  0  0  0  0
   -8.4704    0.1329   -0.6350 H   0  0  0  0  0  0  0  0  0  0  0  0
   -9.9785    0.3417    2.0171 H   0  0  0  0  0  0  0  0  0  0  0  0
  -10.7288    0.6150    0.4264 H   0  0  0  0  0  0  0  0  0  0  0  0
  -10.9587   -1.6527    1.1410 H   0  0  0  0  0  0  0  0  0  0  0  0
  -10.1977    2.4898    1.2788 H   0  0  0  0  0  0  0  0  0  0  0  0
   -7.1316    3.8442    2.0014 H   0  0  0  0  0  0  0  0  0  0  0  0
   -4.4412    1.2924    1.7483 H   0  0  0  0  0  0  0  0  0  0  0  0
   -5.7560    1.1649    2.9413 H   0  0  0  0  0  0  0  0  0  0  0  0
   -4.3922   -0.7595    3.0272 H   0  0  0  0  0  0  0  0  0  0  0  0
   -7.1462   -1.8898   -1.9714 H   0  0  0  0  0  0  0  0  0  0  0  0
   -5.4764    0.8478   -3.0422 H   0  0  0  0  0  0  0  0  0  0  0  0
   -1.7083   -0.0357   -3.3622 H   0  0  0  0  0  0  0  0  0  0  0  0
   -1.0814   -3.7381    2.5969 H   0  0  0  0  0  0  0  0  0  0  0  0
   -1.3722   -4.2022   -0.7937 H   0  0  0  0  0  0  0  0  0  0  0  0
    2.1494   -4.3952   -2.3095 H   0  0  0  0  0  0  0  0  0  0  0  0
    1.7415    2.5567   -3.9073 H   0  0  0  0  0  0  0  0  0  0  0  0
    0.3977    2.6439   -0.8063 H   0  0  0  0  0  0  0  0  0  0  0  0
    2.7222    4.7299    1.5019 H   0  0  0  0  0  0  0  0  0  0  0  0
    5.6175   -1.3861    3.7953 H   0  0  0  0  0  0  0  0  0  0  0  0
    5.3910   -2.1076    0.5002 H   0  0  0  0  0  0  0  0  0  0  0  0
    8.9746   -2.5592   -0.9267 H   0  0  0  0  0  0  0  0  0  0  0  0
    9.7740    3.0564   -0.9613 H   0  0  0  0  0  0  0  0  0  0  0  0
  1  2  1  0  0  0  0
  2  3  1  0  0  0  0
  3  4  1  0  0  0  0
  4  5  1  0  0  0  0
  5  6  1  0  0  0  0
  6  7  1  0  0  0  0
  2  7  1  0  0  0  0
  6  8  1  0  0  0  0
  8  9  1  0  0  0  0
  9 10  1  0  0  0  0
 10 11  1  0  0  0  0
 11 12  1  0  0  0  0
 12 13  1  0  0  0  0
 13 14  1  0  0  0  0
 14 15  1  0  0  0  0
 10 15  1  0  0  0  0
 14 16  1  0  0  0  0
 16 17  1  0  0  0  0
 17 18  1  0  0  0  0
 18 19  1  0  0  0  0
 19 20  1  0  0  0  0
 20 21  1  0  0  0  0
 21 22  1  0  0  0  0
 22 23  1  0  0  0  0
 18 23  1  0  0  0  0
 22 24  1  0  0  0  0
 24 25  1  0  0  0  0
 25 26  1  0  0  0  0
 26 27  1  0  0  0  0
 27 28  1  0  0  0  0
 28 29  1  0  0  0  0
 29 30  1  0  0  0  0
 30 31  1  0  0  0  0
 26 31  1  0  0  0  0
 30 32  1  0  0  0  0
 32 33  1  0  0  0  0
 33 34  1  0  0  0  0
 34 35  1  0  0  0  0
 35 36  1  0  0  0  0
 36 37  1  0  0  0  0
 33 37  1  0  0  0  0
 36 38  1  0  0  0  0
 38 39  1  0  0  0  0
 35 40  1  0  0  0  0
 34 41  1  0  0  0  0
 33 42  1  0  0  0  0
 42 43  1  0  0  0  0
 29 44  1  0  0  0  0
 28 45  1  0  0  0  0
 27 46  1  0  0  0  0
 21 47  1  0  0  0  0
 20 48  1  0  0  0  0
 19 49  1  0  0  0  0
 13 50  1  0  0  0  0
 12 51  1  0  0  0  0
 11 52  1  0  0  0  0
  5 53  1  0  0  0  0
  4 54  1  0  0  0  0
  3 55  1  0  0  0  0
  1 56  1  0  0  0  0
  1 57  1  0  0  0  0
  1 58  1  0  0  0  0
  2 59  1  0  0  0  0
  3 60  1  0  0  0  0
  4 61  1  0  0  0  0
  5 62  1  0  0  0  0
  6 63  1  0  0  0  0
  9 64  1  0  0  0  0
  9 65  1  0  0  0  0
 10 66  1  0  0  0  0
 11 67  1  0  0  0  0
 12 68  1  0  0  0  0
 13 69  1  0  0  0  0
 14 70  1  0  0  0  0
 17 71  1  0  0  0  0
 17 72  1  0  0  0  0
 18 73  1  0  0  0  0
 19 74  1  0  0  0  0
 20 75  1  0  0  0  0
 21 76  1  0  0  0  0
 22 77  1  0  0  0  0
 25 78  1  0  0  0  0
 25 79  1  0  0  0  0
 26 80  1  0  0  0  0
 27 81  1  0  0  0  0
 28 82  1  0  0  0  0
 29 83  1  0  0  0  0
 30 84  1  0  0  0  0
 34 85  1  0  0  0  0
 35 86  1  0  0  0  0
 36 87  1  0  0  0  0
 38 88  1  0  0  0  0
 38 89  1  0  0  0  0
 39 90  1  0  0  0  0
 40 91  1  0  0  0  0
 41 92  1  0  0  0  0
 42 93  1  0  0  0  0
 42 94  1  0  0  0  0
 43 95  1  0  0  0  0
 44 96  1  0  0  0  0
 45 97  1  0  0  0  0
 46 98  1  0  0  0  0
 47 99  1  0  0  0  0
 48100  1  0  0  0  0
 49101  1  0  0  0  0
 50102  1  0  0  0  0
 51103  1  0  0  0  0
 52104  1  0  0  0  0
 53105  1  0  0  0  0
 54106  1  0  0  0  0
 55107  1  0  0  0  0
 56108  1  0  0  0  0
M  END
$$$$
