C22H18O12
APtclcactv06281817123D 0   0.00000     0.00000
 
 52 53  0  0  0  0  0  0  0  0999 V2000
    5.3388   -1.9102   -0.3494 C   0  0  0  0  0  0  0  0  0  0  0  0
    6.1880   -2.9670   -0.5926 C   0  0  0  0  0  0  0  0  0  0  0  0
    7.5507   -2.8354   -0.3596 C   0  0  0  0  0  0  0  0  0  0  0  0
    8.0670   -1.6328    0.1219 C   0  0  0  0  0  0  0  0  0  0  0  0
    7.2230   -0.5681    0.3685 C   0  0  0  0  0  0  0  0  0  0  0  0
    5.8493   -0.6996    0.1335 C   0  0  0  0  0  0  0  0  0  0  0  0
    4.9458    0.4298    0.3934 C   0  0  0  0  0  0  0  0  0  0  0  0
    3.6203    0.3008    0.1659 C   0  0  0  0  0  0  0  0  0  0  0  0
    2.7486    1.3904    0.4167 C   0  0  0  0  0  0  0  0  0  0  0  0
    3.1941    2.4416    0.8367 O   0  0  0  0  0  0  0  0  0  0  0  0
    1.4248    1.2615    0.1895 O   0  0  0  0  0  0  0  0  0  0  0  0
    0.6056    2.3997    0.4641 C   0  0  0  0  0  0  0  0  0  0  0  0
   -0.6037    2.3957   -0.4732 C   0  0  0  0  0  0  0  0  0  0  0  0
   -0.1312    2.3263   -1.9026 C   0  0  0  0  0  0  0  0  0  0  0  0
   -0.3874    1.3572   -2.5771 O   0  0  0  0  0  0  0  0  0  0  0  0
    0.5744    3.3410   -2.4262 O   0  0  0  0  0  0  0  0  0  0  0  0
   -1.4243    1.2614   -0.1872 O   0  0  0  0  0  0  0  0  0  0  0  0
   -2.7480    1.3897   -0.4157 C   0  0  0  0  0  0  0  0  0  0  0  0
   -3.1922    2.4371   -0.8463 O   0  0  0  0  0  0  0  0  0  0  0  0
   -3.6211    0.3037   -0.1540 C   0  0  0  0  0  0  0  0  0  0  0  0
   -4.9463    0.4322   -0.3828 C   0  0  0  0  0  0  0  0  0  0  0  0
   -5.8513   -0.6934   -0.1115 C   0  0  0  0  0  0  0  0  0  0  0  0
   -7.2248   -0.5626   -0.3478 C   0  0  0  0  0  0  0  0  0  0  0  0
   -8.0700   -1.6240   -0.0914 C   0  0  0  0  0  0  0  0  0  0  0  0
   -7.5552   -2.8224    0.4017 C   0  0  0  0  0  0  0  0  0  0  0  0
   -6.1927   -2.9533    0.6365 C   0  0  0  0  0  0  0  0  0  0  0  0
   -5.3416   -1.9015    0.3785 C   0  0  0  0  0  0  0  0  0  0  0  0
   -8.3888   -3.8647    0.6535 O   0  0  0  0  0  0  0  0  0  0  0  0
   -9.4050   -1.5003   -0.3194 O   0  0  0  0  0  0  0  0  0  0  0  0
    0.1330    2.3452    1.8940 C   0  0  0  0  0  0  0  0  0  0  0  0
    0.4638    1.4260    2.6050 O   0  0  0  0  0  0  0  0  0  0  0  0
   -0.6554    3.3179    2.3778 O   0  0  0  0  0  0  0  0  0  0  0  0
    9.4021   -1.5087    0.3490 O   0  0  0  0  0  0  0  0  0  0  0  0
    8.3829   -3.8812   -0.6009 O   0  0  0  0  0  0  0  0  0  0  0  0
    4.2800   -2.0141   -0.5355 H   0  0  0  0  0  0  0  0  0  0  0  0
    5.7930   -3.9006   -0.9652 H   0  0  0  0  0  0  0  0  0  0  0  0
    7.6216    0.3635    0.7421 H   0  0  0  0  0  0  0  0  0  0  0  0
    5.3413    1.3630    0.7663 H   0  0  0  0  0  0  0  0  0  0  0  0
    3.2248   -0.6324   -0.2070 H   0  0  0  0  0  0  0  0  0  0  0  0
    1.1840    3.3101    0.3070 H   0  0  0  0  0  0  0  0  0  0  0  0
   -1.1810    3.3084   -0.3254 H   0  0  0  0  0  0  0  0  0  0  0  0
    0.8556    3.2510   -3.3470 H   0  0  0  0  0  0  0  0  0  0  0  0
   -3.2267   -0.6262    0.2283 H   0  0  0  0  0  0  0  0  0  0  0  0
   -5.3407    1.3621   -0.7651 H   0  0  0  0  0  0  0  0  0  0  0  0
   -7.6225    0.3662   -0.7294 H   0  0  0  0  0  0  0  0  0  0  0  0
   -5.7990   -3.8834    1.0188 H   0  0  0  0  0  0  0  0  0  0  0  0
   -4.2825   -2.0061    0.5621 H   0  0  0  0  0  0  0  0  0  0  0  0
   -8.5160   -4.4575   -0.0998 H   0  0  0  0  0  0  0  0  0  0  0  0
   -9.6769   -1.7551   -1.2117 H   0  0  0  0  0  0  0  0  0  0  0  0
   -0.9331    3.2396    3.3008 H   0  0  0  0  0  0  0  0  0  0  0  0
    9.9030   -1.1902   -0.4143 H   0  0  0  0  0  0  0  0  0  0  0  0
    8.7385   -3.9016   -1.4999 H   0  0  0  0  0  0  0  0  0  0  0  0
  1  2  2  0  0  0  0
  2  3  1  0  0  0  0
  3  4  2  0  0  0  0
  4  5  1  0  0  0  0
  5  6  2  0  0  0  0
  1  6  1  0  0  0  0
  6  7  1  0  0  0  0
  7  8  2  0  0  0  0
  8  9  1  0  0  0  0
  9 10  2  0  0  0  0
  9 11  1  0  0  0  0
 11 12  1  0  0  0  0
 12 13  1  0  0  0  0
 13 14  1  0  0  0  0
 14 15  2  0  0  0  0
 14 16  1  0  0  0  0
 13 17  1  0  0  0  0
 17 18  1  0  0  0  0
 18 19  2  0  0  0  0
 18 20  1  0  0  0  0
 20 21  2  0  0  0  0
 21 22  1  0  0  0  0
 22 23  2  0  0  0  0
 23 24  1  0  0  0  0
 24 25  2  0  0  0  0
 25 26  1  0  0  0  0
 26 27  2  0  0  0  0
 22 27  1  0  0  0  0
 25 28  1  0  0  0  0
 24 29  1  0  0  0  0
 12 30  1  0  0  0  0
 30 31  2  0  0  0  0
 30 32  1  0  0  0  0
  4 33  1  0  0  0  0
  3 34  1  0  0  0  0
  1 35  1  0  0  0  0
  2 36  1  0  0  0  0
  5 37  1  0  0  0  0
  7 38  1  0  0  0  0
  8 39  1  0  0  0  0
 12 40  1  0  0  0  0
 13 41  1  0  0  0  0
 16 42  1  0  0  0  0
 20 43  1  0  0  0  0
 21 44  1  0  0  0  0
 23 45  1  0  0  0  0
 26 46  1  0  0  0  0
 27 47  1  0  0  0  0
 28 48  1  0  0  0  0
 29 49  1  0  0  0  0
 32 50  1  0  0  0  0
 33 51  1  0  0  0  0
 34 52  1  0  0  0  0
M  END
$$$$
