C18H18O5
APtclcactv06291802523D 0   0.00000     0.00000
 
 41 43  0  0  0  0  0  0  0  0999 V2000
    1.6192   -2.2955   -1.7753 C   0  0  0  0  0  0  0  0  0  0  0  0
    1.7681   -2.2050   -0.2553 C   0  0  0  0  0  0  0  0  0  0  0  0
    2.4930   -0.9324    0.0980 C   0  0  0  0  0  0  0  0  0  0  0  0
    1.7987    0.1920    0.3178 C   0  0  0  0  0  0  0  0  0  0  0  0
    0.3286    0.1317    0.2382 C   0  0  0  0  0  0  0  0  0  0  0  0
   -0.2899   -1.1104    0.2384 C   0  0  0  0  0  0  0  0  0  0  0  0
    0.4743   -2.2293    0.3465 O   0  0  0  0  0  0  0  0  0  0  0  0
   -1.6900   -1.1971    0.1336 C   0  0  0  0  0  0  0  0  0  0  0  0
   -2.3282   -2.4498    0.1139 C   0  0  0  0  0  0  0  0  0  0  0  0
   -3.6843   -2.5177    0.0153 C   0  0  0  0  0  0  0  0  0  0  0  0
   -4.4544   -1.3600   -0.0668 C   0  0  0  0  0  0  0  0  0  0  0  0
   -3.8716   -0.1296   -0.0512 C   0  0  0  0  0  0  0  0  0  0  0  0
   -2.4739   -0.0184    0.0491 C   0  0  0  0  0  0  0  0  0  0  0  0
   -1.8603    1.2506    0.0663 C   0  0  0  0  0  0  0  0  0  0  0  0
   -0.4737    1.3500    0.1588 C   0  0  0  0  0  0  0  0  0  0  0  0
    0.1754    2.6672    0.1768 C   0  0  0  0  0  0  0  0  0  0  0  0
    0.3725    3.2334    1.2345 O   0  0  0  0  0  0  0  0  0  0  0  0
    0.5527    3.2487   -0.9796 O   0  0  0  0  0  0  0  0  0  0  0  0
    1.1884    4.5508   -0.8861 C   0  0  0  0  0  0  0  0  0  0  0  0
   -2.6179    2.3721   -0.0075 O   0  0  0  0  0  0  0  0  0  0  0  0
    3.8446   -0.9253    0.1937 O   0  0  0  0  0  0  0  0  0  0  0  0
    4.4644    0.3170    0.5325 C   0  0  0  0  0  0  0  0  0  0  0  0
    2.5786   -3.4027    0.2443 C   0  0  0  0  0  0  0  0  0  0  0  0
    2.6063   -2.2970   -2.2376 H   0  0  0  0  0  0  0  0  0  0  0  0
    1.0950   -3.2152   -2.0350 H   0  0  0  0  0  0  0  0  0  0  0  0
    1.0502   -1.4387   -2.1363 H   0  0  0  0  0  0  0  0  0  0  0  0
    2.3035    1.1187    0.5477 H   0  0  0  0  0  0  0  0  0  0  0  0
   -1.7440   -3.3560    0.1764 H   0  0  0  0  0  0  0  0  0  0  0  0
   -4.1696   -3.4824    0.0002 H   0  0  0  0  0  0  0  0  0  0  0  0
   -5.5287   -1.4394   -0.1444 H   0  0  0  0  0  0  0  0  0  0  0  0
   -4.4820    0.7590   -0.1154 H   0  0  0  0  0  0  0  0  0  0  0  0
    1.4410    4.9045   -1.8856 H   0  0  0  0  0  0  0  0  0  0  0  0
    0.5046    5.2558   -0.4132 H   0  0  0  0  0  0  0  0  0  0  0  0
    2.0967    4.4696   -0.2891 H   0  0  0  0  0  0  0  0  0  0  0  0
   -2.8980    2.7147    0.8523 H   0  0  0  0  0  0  0  0  0  0  0  0
    5.5454    0.1837    0.5759 H   0  0  0  0  0  0  0  0  0  0  0  0
    4.2204    1.0629   -0.2239 H   0  0  0  0  0  0  0  0  0  0  0  0
    4.1002    0.6518    1.5037 H   0  0  0  0  0  0  0  0  0  0  0  0
    3.5645   -3.3935   -0.2205 H   0  0  0  0  0  0  0  0  0  0  0  0
    2.6869   -3.3418    1.3272 H   0  0  0  0  0  0  0  0  0  0  0  0
    2.0619   -4.3259   -0.0178 H   0  0  0  0  0  0  0  0  0  0  0  0
  1  2  1  0  0  0  0
  2  3  1  0  0  0  0
  3  4  2  0  0  0  0
  4  5  1  0  0  0  0
  5  6  2  0  0  0  0
  6  7  1  0  0  0  0
  2  7  1  0  0  0  0
  6  8  1  0  0  0  0
  8  9  2  0  0  0  0
  9 10  1  0  0  0  0
 10 11  2  0  0  0  0
 11 12  1  0  0  0  0
 12 13  2  0  0  0  0
  8 13  1  0  0  0  0
 13 14  1  0  0  0  0
 14 15  2  0  0  0  0
  5 15  1  0  0  0  0
 15 16  1  0  0  0  0
 16 17  2  0  0  0  0
 16 18  1  0  0  0  0
 18 19  1  0  0  0  0
 14 20  1  0  0  0  0
  3 21  1  0  0  0  0
 21 22  1  0  0  0  0
  2 23  1  0  0  0  0
  1 24  1  0  0  0  0
  1 25  1  0  0  0  0
  1 26  1  0  0  0  0
  4 27  1  0  0  0  0
  9 28  1  0  0  0  0
 10 29  1  0  0  0  0
 11 30  1  0  0  0  0
 12 31  1  0  0  0  0
 19 32  1  0  0  0  0
 19 33  1  0  0  0  0
 19 34  1  0  0  0  0
 20 35  1  0  0  0  0
 22 36  1  0  0  0  0
 22 37  1  0  0  0  0
 22 38  1  0  0  0  0
 23 39  1  0  0  0  0
 23 40  1  0  0  0  0
 23 41  1  0  0  0  0
M  END
$$$$
