C17H14O4
APtclcactv06221815493D 0   0.00000     0.00000
 
 35 37  0  0  0  0  0  0  0  0999 V2000
    6.8163   -0.2064   -0.6184 C   0  0  0  0  0  0  0  0  0  0  0  0
    5.9162   -1.0425    0.1115 O   0  0  0  0  0  0  0  0  0  0  0  0
    4.6054   -0.6891    0.1066 C   0  0  0  0  0  0  0  0  0  0  0  0
    3.6774   -1.4597    0.7969 C   0  0  0  0  0  0  0  0  0  0  0  0
    2.3467   -1.1048    0.7946 C   0  0  0  0  0  0  0  0  0  0  0  0
    1.9300    0.0323    0.0965 C   0  0  0  0  0  0  0  0  0  0  0  0
    2.8667    0.8044   -0.5964 C   0  0  0  0  0  0  0  0  0  0  0  0
    4.1963    0.4454   -0.5841 C   0  0  0  0  0  0  0  0  0  0  0  0
    0.5059    0.4159    0.0908 C   0  0  0  0  0  0  0  0  0  0  0  0
    0.1830    1.7347    0.1848 C   0  0  0  0  0  0  0  0  0  0  0  0
   -1.1769    2.1217    0.1809 C   0  0  0  0  0  0  0  0  0  0  0  0
   -1.5026    3.2948    0.2631 O   0  0  0  0  0  0  0  0  0  0  0  0
   -2.1866    1.0517    0.0731 C   0  0  0  0  0  0  0  0  0  0  0  0
   -1.7443   -0.2788   -0.0189 C   0  0  0  0  0  0  0  0  0  0  0  0
   -0.4220   -0.5485   -0.0124 O   0  0  0  0  0  0  0  0  0  0  0  0
   -2.6784   -1.2996   -0.1210 C   0  0  0  0  0  0  0  0  0  0  0  0
   -4.0297   -0.9961   -0.1311 C   0  0  0  0  0  0  0  0  0  0  0  0
   -4.4591    0.3259   -0.0395 C   0  0  0  0  0  0  0  0  0  0  0  0
   -3.5511    1.3415    0.0621 C   0  0  0  0  0  0  0  0  0  0  0  0
   -4.9432   -1.9952   -0.2315 O   0  0  0  0  0  0  0  0  0  0  0  0
   -6.3211   -1.6164   -0.2363 C   0  0  0  0  0  0  0  0  0  0  0  0
    7.8289   -0.6004   -0.5323 H   0  0  0  0  0  0  0  0  0  0  0  0
    6.5226   -0.1853   -1.6678 H   0  0  0  0  0  0  0  0  0  0  0  0
    6.7839    0.8044   -0.2117 H   0  0  0  0  0  0  0  0  0  0  0  0
    4.0003   -2.3383    1.3356 H   0  0  0  0  0  0  0  0  0  0  0  0
    1.6262   -1.7044    1.3310 H   0  0  0  0  0  0  0  0  0  0  0  0
    2.5490    1.6838   -1.1370 H   0  0  0  0  0  0  0  0  0  0  0  0
    4.9207    1.0414   -1.1192 H   0  0  0  0  0  0  0  0  0  0  0  0
    0.9603    2.4805    0.2622 H   0  0  0  0  0  0  0  0  0  0  0  0
   -2.3530   -2.3269   -0.1928 H   0  0  0  0  0  0  0  0  0  0  0  0
   -5.5157    0.5492   -0.0488 H   0  0  0  0  0  0  0  0  0  0  0  0
   -3.8883    2.3650    0.1328 H   0  0  0  0  0  0  0  0  0  0  0  0
   -6.9427   -2.5077   -0.3211 H   0  0  0  0  0  0  0  0  0  0  0  0
   -6.5578   -1.0951    0.6912 H   0  0  0  0  0  0  0  0  0  0  0  0
   -6.5137   -0.9573   -1.0828 H   0  0  0  0  0  0  0  0  0  0  0  0
  1  2  1  0  0  0  0
  2  3  1  0  0  0  0
  3  4  2  0  0  0  0
  4  5  1  0  0  0  0
  5  6  2  0  0  0  0
  6  7  1  0  0  0  0
  7  8  2  0  0  0  0
  3  8  1  0  0  0  0
  6  9  1  0  0  0  0
  9 10  2  0  0  0  0
 10 11  1  0  0  0  0
 11 12  2  0  0  0  0
 11 13  1  0  0  0  0
 13 14  2  0  0  0  0
 14 15  1  0  0  0  0
  9 15  1  0  0  0  0
 14 16  1  0  0  0  0
 16 17  2  0  0  0  0
 17 18  1  0  0  0  0
 18 19  2  0  0  0  0
 13 19  1  0  0  0  0
 17 20  1  0  0  0  0
 20 21  1  0  0  0  0
  1 22  1  0  0  0  0
  1 23  1  0  0  0  0
  1 24  1  0  0  0  0
  4 25  1  0  0  0  0
  5 26  1  0  0  0  0
  7 27  1  0  0  0  0
  8 28  1  0  0  0  0
 10 29  1  0  0  0  0
 16 30  1  0  0  0  0
 18 31  1  0  0  0  0
 19 32  1  0  0  0  0
 21 33  1  0  0  0  0
 21 34  1  0  0  0  0
 21 35  1  0  0  0  0
M  END
$$$$
