C14H20O6
APtclcactv06221815493D 0   0.00000     0.00000
 
 40 41  0  0  0  0  0  0  0  0999 V2000
   -5.9978   -0.3723   -0.2861 C   0  0  0  0  0  0  0  0  0  0  0  0
   -5.1454   -1.2021    0.4179 C   0  0  0  0  0  0  0  0  0  0  0  0
   -3.8908   -0.7529    0.7856 C   0  0  0  0  0  0  0  0  0  0  0  0
   -3.4885    0.5260    0.4489 C   0  0  0  0  0  0  0  0  0  0  0  0
   -4.3405    1.3556   -0.2559 C   0  0  0  0  0  0  0  0  0  0  0  0
   -5.5956    0.9068   -0.6224 C   0  0  0  0  0  0  0  0  0  0  0  0
   -2.1212    1.0161    0.8506 C   0  0  0  0  0  0  0  0  0  0  0  0
   -1.1157    0.6846   -0.2539 C   0  0  0  0  0  0  0  0  0  0  0  0
    0.1808    1.1493    0.1270 O   0  0  0  0  0  0  0  0  0  0  0  0
    1.1993    0.8882   -0.8407 C   0  0  0  0  0  0  0  0  0  0  0  0
    2.5113    1.5345   -0.3882 C   0  0  0  0  0  0  0  0  0  0  0  0
    2.9536    0.9013    0.9346 C   0  0  0  0  0  0  0  0  0  0  0  0
    3.0868   -0.6127    0.7439 C   0  0  0  0  0  0  0  0  0  0  0  0
    1.7526   -1.1761    0.2476 C   0  0  0  0  0  0  0  0  0  0  0  0
    1.3844   -0.5230   -0.9690 O   0  0  0  0  0  0  0  0  0  0  0  0
    1.8947   -2.6787   -0.0028 C   0  0  0  0  0  0  0  0  0  0  0  0
    0.6220   -3.2256   -0.3537 O   0  0  0  0  0  0  0  0  0  0  0  0
    4.1076   -0.8848   -0.2184 O   0  0  0  0  0  0  0  0  0  0  0  0
    4.2148    1.4464    1.3274 O   0  0  0  0  0  0  0  0  0  0  0  0
    3.5168    1.3192   -1.3804 O   0  0  0  0  0  0  0  0  0  0  0  0
   -6.9762   -0.7248   -0.5773 H   0  0  0  0  0  0  0  0  0  0  0  0
   -5.4597   -2.2013    0.6810 H   0  0  0  0  0  0  0  0  0  0  0  0
   -3.2252   -1.4010    1.3363 H   0  0  0  0  0  0  0  0  0  0  0  0
   -4.0265    2.3550   -0.5184 H   0  0  0  0  0  0  0  0  0  0  0  0
   -6.2614    1.5551   -1.1728 H   0  0  0  0  0  0  0  0  0  0  0  0
   -2.1520    2.0951    1.0021 H   0  0  0  0  0  0  0  0  0  0  0  0
   -1.8178    0.5277    1.7767 H   0  0  0  0  0  0  0  0  0  0  0  0
   -1.0850   -0.3944   -0.4054 H   0  0  0  0  0  0  0  0  0  0  0  0
   -1.4192    1.1729   -1.1800 H   0  0  0  0  0  0  0  0  0  0  0  0
    0.9018    1.3049   -1.8030 H   0  0  0  0  0  0  0  0  0  0  0  0
    2.3605    2.6047   -0.2472 H   0  0  0  0  0  0  0  0  0  0  0  0
    2.2100    1.1078    1.7044 H   0  0  0  0  0  0  0  0  0  0  0  0
    3.3477   -1.0781    1.6944 H   0  0  0  0  0  0  0  0  0  0  0  0
    0.9830   -1.0039    1.0000 H   0  0  0  0  0  0  0  0  0  0  0  0
    2.5993   -2.8463   -0.8174 H   0  0  0  0  0  0  0  0  0  0  0  0
    2.2622   -3.1645    0.9012 H   0  0  0  0  0  0  0  0  0  0  0  0
    0.6369   -4.1769   -0.5269 H   0  0  0  0  0  0  0  0  0  0  0  0
    4.9807   -0.5510    0.0293 H   0  0  0  0  0  0  0  0  0  0  0  0
    4.2053    2.4043    1.4595 H   0  0  0  0  0  0  0  0  0  0  0  0
    3.3004    1.6905   -2.2467 H   0  0  0  0  0  0  0  0  0  0  0  0
  1  2  2  0  0  0  0
  2  3  1  0  0  0  0
  3  4  2  0  0  0  0
  4  5  1  0  0  0  0
  5  6  2  0  0  0  0
  1  6  1  0  0  0  0
  4  7  1  0  0  0  0
  7  8  1  0  0  0  0
  8  9  1  0  0  0  0
  9 10  1  0  0  0  0
 10 11  1  0  0  0  0
 11 12  1  0  0  0  0
 12 13  1  0  0  0  0
 13 14  1  0  0  0  0
 14 15  1  0  0  0  0
 10 15  1  0  0  0  0
 14 16  1  0  0  0  0
 16 17  1  0  0  0  0
 13 18  1  0  0  0  0
 12 19  1  0  0  0  0
 11 20  1  0  0  0  0
  1 21  1  0  0  0  0
  2 22  1  0  0  0  0
  3 23  1  0  0  0  0
  5 24  1  0  0  0  0
  6 25  1  0  0  0  0
  7 26  1  0  0  0  0
  7 27  1  0  0  0  0
  8 28  1  0  0  0  0
  8 29  1  0  0  0  0
 10 30  1  0  0  0  0
 11 31  1  0  0  0  0
 12 32  1  0  0  0  0
 13 33  1  0  0  0  0
 14 34  1  0  0  0  0
 16 35  1  0  0  0  0
 16 36  1  0  0  0  0
 17 37  1  0  0  0  0
 18 38  1  0  0  0  0
 19 39  1  0  0  0  0
 20 40  1  0  0  0  0
M  END
$$$$
