C14H23NO
APtclcactv06281817213D 0   0.00000     0.00000
 
 39 39  0  0  0  0  0  0  0  0999 V2000
    8.0632   -0.8023   -0.5982 C   0  0  0  0  0  0  0  0  0  0  0  0
    6.7538   -0.0638   -0.8829 C   0  0  0  0  0  0  0  0  0  0  0  0
    5.7228   -0.4218    0.1893 C   0  0  0  0  0  0  0  0  0  0  0  0
    4.4134    0.3167   -0.0953 C   0  0  0  0  0  0  0  0  0  0  0  0
    3.3824   -0.0413    0.9769 C   0  0  0  0  0  0  0  0  0  0  0  0
    2.0927    0.6861    0.6965 C   0  0  0  0  0  0  0  0  0  0  0  0
    0.9529    0.0026    0.5810 C   0  0  0  0  0  0  0  0  0  0  0  0
   -0.2995    0.7090    0.3087 C   0  0  0  0  0  0  0  0  0  0  0  0
   -1.4545    0.0165    0.1916 C   0  0  0  0  0  0  0  0  0  0  0  0
   -2.7062    0.7225   -0.0805 C   0  0  0  0  0  0  0  0  0  0  0  0
   -2.7078    1.9336   -0.2016 O   0  0  0  0  0  0  0  0  0  0  0  0
   -3.8577    0.0320   -0.1972 N   0  0  0  0  0  0  0  0  0  0  0  0
   -5.1811    0.6123   -0.4683 C   0  0  0  0  0  0  0  0  0  0  0  0
   -6.1957   -0.5504   -0.4891 C   0  0  0  0  0  0  0  0  0  0  0  0
   -5.4768   -1.6536    0.3316 C   0  0  0  0  0  0  0  0  0  0  0  0
   -3.9979   -1.4309   -0.0804 C   0  0  0  0  0  0  0  0  0  0  0  0
    8.4405   -0.5084    0.3813 H   0  0  0  0  0  0  0  0  0  0  0  0
    7.8841   -1.8774   -0.6110 H   0  0  0  0  0  0  0  0  0  0  0  0
    8.7977   -0.5472   -1.3621 H   0  0  0  0  0  0  0  0  0  0  0  0
    6.9329    1.0113   -0.8701 H   0  0  0  0  0  0  0  0  0  0  0  0
    6.3765   -0.3577   -1.8623 H   0  0  0  0  0  0  0  0  0  0  0  0
    5.5437   -1.4969    0.1766 H   0  0  0  0  0  0  0  0  0  0  0  0
    6.1002   -0.1279    1.1688 H   0  0  0  0  0  0  0  0  0  0  0  0
    4.5925    1.3918   -0.0826 H   0  0  0  0  0  0  0  0  0  0  0  0
    4.0361    0.0228   -1.0748 H   0  0  0  0  0  0  0  0  0  0  0  0
    3.2033   -1.1164    0.9641 H   0  0  0  0  0  0  0  0  0  0  0  0
    3.7598    0.2525    1.9563 H   0  0  0  0  0  0  0  0  0  0  0  0
    2.0912    1.7607    0.5890 H   0  0  0  0  0  0  0  0  0  0  0  0
    0.9544   -1.0720    0.6884 H   0  0  0  0  0  0  0  0  0  0  0  0
   -0.3010    1.7836    0.2012 H   0  0  0  0  0  0  0  0  0  0  0  0
   -1.4530   -1.0582    0.2991 H   0  0  0  0  0  0  0  0  0  0  0  0
   -5.4439    1.3196    0.3182 H   0  0  0  0  0  0  0  0  0  0  0  0
   -5.1741    1.1155   -1.4352 H   0  0  0  0  0  0  0  0  0  0  0  0
   -7.1282   -0.2570   -0.0071 H   0  0  0  0  0  0  0  0  0  0  0  0
   -6.3770   -0.8858   -1.5102 H   0  0  0  0  0  0  0  0  0  0  0  0
   -5.6156   -1.4976    1.4015 H   0  0  0  0  0  0  0  0  0  0  0  0
   -5.8180   -2.6456    0.0356 H   0  0  0  0  0  0  0  0  0  0  0  0
   -3.7934   -1.9144   -1.0357 H   0  0  0  0  0  0  0  0  0  0  0  0
   -3.3279   -1.8125    0.6900 H   0  0  0  0  0  0  0  0  0  0  0  0
  1  2  1  0  0  0  0
  2  3  1  0  0  0  0
  3  4  1  0  0  0  0
  4  5  1  0  0  0  0
  5  6  1  0  0  0  0
  6  7  2  0  0  0  0
  7  8  1  0  0  0  0
  8  9  2  0  0  0  0
  9 10  1  0  0  0  0
 10 11  2  0  0  0  0
 10 12  1  0  0  0  0
 12 13  1  0  0  0  0
 13 14  1  0  0  0  0
 14 15  1  0  0  0  0
 15 16  1  0  0  0  0
 12 16  1  0  0  0  0
  1 17  1  0  0  0  0
  1 18  1  0  0  0  0
  1 19  1  0  0  0  0
  2 20  1  0  0  0  0
  2 21  1  0  0  0  0
  3 22  1  0  0  0  0
  3 23  1  0  0  0  0
  4 24  1  0  0  0  0
  4 25  1  0  0  0  0
  5 26  1  0  0  0  0
  5 27  1  0  0  0  0
  6 28  1  0  0  0  0
  7 29  1  0  0  0  0
  8 30  1  0  0  0  0
  9 31  1  0  0  0  0
 13 32  1  0  0  0  0
 13 33  1  0  0  0  0
 14 34  1  0  0  0  0
 14 35  1  0  0  0  0
 15 36  1  0  0  0  0
 15 37  1  0  0  0  0
 16 38  1  0  0  0  0
 16 39  1  0  0  0  0
M  END
$$$$
