C30H46O3
APtclcactv06221815493D 0   0.00000     0.00000
 
 79 83  0  0  0  0  0  0  0  0999 V2000
    5.7327   -2.6006   -0.4785 C   0  0  0  0  0  0  0  0  0  0  0  0
    4.8664   -1.6923    0.4121 C   0  0  0  0  0  0  0  0  0  0  0  0
    5.6050   -0.3759    0.6215 C   0  0  0  0  0  0  0  0  0  0  0  0
    4.7321    0.6869    1.2711 C   0  0  0  0  0  0  0  0  0  0  0  0
    3.4457    0.8989    0.4536 C   0  0  0  0  0  0  0  0  0  0  0  0
    2.6340    2.0102    1.0918 C   0  0  0  0  0  0  0  0  0  0  0  0
    1.1396    1.7620    1.1630 C   0  0  0  0  0  0  0  0  0  0  0  0
    0.5974    1.0218   -0.0454 C   0  0  0  0  0  0  0  0  0  0  0  0
    1.3312   -0.2710   -0.2251 C   0  0  0  0  0  0  0  0  0  0  0  0
    0.8105   -1.3203   -0.8194 C   0  0  0  0  0  0  0  0  0  0  0  0
   -0.6544   -1.2570   -1.2376 C   0  0  0  0  0  0  0  0  0  0  0  0
   -1.3240   -0.5777   -0.0412 C   0  0  0  0  0  0  0  0  0  0  0  0
   -0.9236    0.8764    0.0076 C   0  0  0  0  0  0  0  0  0  0  0  0
   -1.5392    1.5902    1.1915 C   0  0  0  0  0  0  0  0  0  0  0  0
   -3.0360    1.3183    1.3482 C   0  0  0  0  0  0  0  0  0  0  0  0
   -3.6053    0.4223    0.2638 C   0  0  0  0  0  0  0  0  0  0  0  0
   -2.8072   -0.8606    0.1105 C   0  0  0  0  0  0  0  0  0  0  0  0
   -3.3290   -1.6555   -1.0904 C   0  0  0  0  0  0  0  0  0  0  0  0
   -4.7902   -2.0476   -0.8608 C   0  0  0  0  0  0  0  0  0  0  0  0
   -5.6044   -0.8140   -0.5681 C   0  0  0  0  0  0  0  0  0  0  0  0
   -6.6709   -0.6478   -1.1278 O   0  0  0  0  0  0  0  0  0  0  0  0
   -5.1099    0.2230    0.4136 C   0  0  0  0  0  0  0  0  0  0  0  0
   -5.5451   -0.1314    1.8306 C   0  0  0  0  0  0  0  0  0  0  0  0
   -5.8019    1.5560    0.0358 C   0  0  0  0  0  0  0  0  0  0  0  0
   -2.9439   -1.7478    1.3644 C   0  0  0  0  0  0  0  0  0  0  0  0
   -1.3578    1.5994   -1.2714 C   0  0  0  0  0  0  0  0  0  0  0  0
    2.6916   -0.4214    0.4218 C   0  0  0  0  0  0  0  0  0  0  0  0
    3.5165   -1.4958   -0.2727 C   0  0  0  0  0  0  0  0  0  0  0  0
    0.8300    1.8930   -1.2885 C   0  0  0  0  0  0  0  0  0  0  0  0
    3.8663    1.3163   -0.9323 C   0  0  0  0  0  0  0  0  0  0  0  0
    3.6922    2.4541   -1.2995 O   0  0  0  0  0  0  0  0  0  0  0  0
    4.4342    0.4238   -1.7586 O   0  0  0  0  0  0  0  0  0  0  0  0
    4.6674   -2.3956    1.7585 C   0  0  0  0  0  0  0  0  0  0  0  0
    6.6892   -2.7840    0.0110 H   0  0  0  0  0  0  0  0  0  0  0  0
    5.2192   -3.5485   -0.6393 H   0  0  0  0  0  0  0  0  0  0  0  0
    5.9034   -2.1126   -1.4381 H   0  0  0  0  0  0  0  0  0  0  0  0
    6.4690   -0.5645    1.2806 H   0  0  0  0  0  0  0  0  0  0  0  0
    6.0099   -0.0197   -0.3275 H   0  0  0  0  0  0  0  0  0  0  0  0
    4.4647    0.3909    2.2847 H   0  0  0  0  0  0  0  0  0  0  0  0
    5.2772    1.6337    1.3121 H   0  0  0  0  0  0  0  0  0  0  0  0
    3.0052    2.1641    2.1113 H   0  0  0  0  0  0  0  0  0  0  0  0
    2.8129    2.9366    0.5391 H   0  0  0  0  0  0  0  0  0  0  0  0
    0.9233    1.1860    2.0695 H   0  0  0  0  0  0  0  0  0  0  0  0
    0.6323    2.7286    1.2530 H   0  0  0  0  0  0  0  0  0  0  0  0
    1.3891   -2.2044   -1.0152 H   0  0  0  0  0  0  0  0  0  0  0  0
   -0.7682   -0.7107   -2.1570 H   0  0  0  0  0  0  0  0  0  0  0  0
   -1.0240   -2.2793   -1.3515 H   0  0  0  0  0  0  0  0  0  0  0  0
   -0.8467   -1.0492    0.8594 H   0  0  0  0  0  0  0  0  0  0  0  0
   -1.0305    1.2851    2.1145 H   0  0  0  0  0  0  0  0  0  0  0  0
   -1.3934    2.6734    1.0783 H   0  0  0  0  0  0  0  0  0  0  0  0
   -3.1970    0.8785    2.3380 H   0  0  0  0  0  0  0  0  0  0  0  0
   -3.5565    2.2866    1.3375 H   0  0  0  0  0  0  0  0  0  0  0  0
   -3.5412    0.9735   -0.7036 H   0  0  0  0  0  0  0  0  0  0  0  0
   -3.2515   -1.0462   -1.9906 H   0  0  0  0  0  0  0  0  0  0  0  0
   -2.7377   -2.5642   -1.2117 H   0  0  0  0  0  0  0  0  0  0  0  0
   -5.1746   -2.5160   -1.7787 H   0  0  0  0  0  0  0  0  0  0  0  0
   -4.8817   -2.7697   -0.0544 H   0  0  0  0  0  0  0  0  0  0  0  0
   -5.0721   -1.0656    2.1331 H   0  0  0  0  0  0  0  0  0  0  0  0
   -5.2460    0.6647    2.5124 H   0  0  0  0  0  0  0  0  0  0  0  0
   -6.6286   -0.2467    1.8598 H   0  0  0  0  0  0  0  0  0  0  0  0
   -6.8830    1.4373    0.1079 H   0  0  0  0  0  0  0  0  0  0  0  0
   -5.4762    2.3407    0.7187 H   0  0  0  0  0  0  0  0  0  0  0  0
   -5.5335    1.8282   -0.9849 H   0  0  0  0  0  0  0  0  0  0  0  0
   -3.9933   -1.9983    1.5196 H   0  0  0  0  0  0  0  0  0  0  0  0
   -2.3685   -2.6632    1.2263 H   0  0  0  0  0  0  0  0  0  0  0  0
   -2.5666   -1.2091    2.2336 H   0  0  0  0  0  0  0  0  0  0  0  0
   -2.4456    1.6620   -1.3020 H   0  0  0  0  0  0  0  0  0  0  0  0
   -0.9356    2.6042   -1.2820 H   0  0  0  0  0  0  0  0  0  0  0  0
   -1.0012    1.0463   -2.1403 H   0  0  0  0  0  0  0  0  0  0  0  0
    2.5200   -0.7379    1.4705 H   0  0  0  0  0  0  0  0  0  0  0  0
    3.6628   -1.2631   -1.3246 H   0  0  0  0  0  0  0  0  0  0  0  0
    2.9728   -2.4518   -0.2168 H   0  0  0  0  0  0  0  0  0  0  0  0
    1.9005    1.9890   -1.4698 H   0  0  0  0  0  0  0  0  0  0  0  0
    0.3554    1.4276   -2.1523 H   0  0  0  0  0  0  0  0  0  0  0  0
    0.3991    2.8809   -1.1256 H   0  0  0  0  0  0  0  0  0  0  0  0
    4.6871    0.7381   -2.6374 H   0  0  0  0  0  0  0  0  0  0  0  0
    5.6371   -2.5657    2.2263 H   0  0  0  0  0  0  0  0  0  0  0  0
    4.0553   -1.7701    2.4082 H   0  0  0  0  0  0  0  0  0  0  0  0
    4.1684   -3.3514    1.5989 H   0  0  0  0  0  0  0  0  0  0  0  0
  1  2  1  0  0  0  0
  2  3  1  0  0  0  0
  3  4  1  0  0  0  0
  4  5  1  0  0  0  0
  5  6  1  0  0  0  0
  6  7  1  0  0  0  0
  7  8  1  0  0  0  0
  8  9  1  0  0  0  0
  9 10  2  0  0  0  0
 10 11  1  0  0  0  0
 11 12  1  0  0  0  0
 12 13  1  0  0  0  0
  8 13  1  0  0  0  0
 13 14  1  0  0  0  0
 14 15  1  0  0  0  0
 15 16  1  0  0  0  0
 16 17  1  0  0  0  0
 12 17  1  0  0  0  0
 17 18  1  0  0  0  0
 18 19  1  0  0  0  0
 19 20  1  0  0  0  0
 20 21  2  0  0  0  0
 20 22  1  0  0  0  0
 16 22  1  0  0  0  0
 22 23  1  0  0  0  0
 22 24  1  0  0  0  0
 17 25  1  0  0  0  0
 13 26  1  0  0  0  0
  9 27  1  0  0  0  0
  5 27  1  0  0  0  0
 27 28  1  0  0  0  0
  2 28  1  0  0  0  0
  8 29  1  0  0  0  0
  5 30  1  0  0  0  0
 30 31  2  0  0  0  0
 30 32  1  0  0  0  0
  2 33  1  0  0  0  0
  1 34  1  0  0  0  0
  1 35  1  0  0  0  0
  1 36  1  0  0  0  0
  3 37  1  0  0  0  0
  3 38  1  0  0  0  0
  4 39  1  0  0  0  0
  4 40  1  0  0  0  0
  6 41  1  0  0  0  0
  6 42  1  0  0  0  0
  7 43  1  0  0  0  0
  7 44  1  0  0  0  0
 10 45  1  0  0  0  0
 11 46  1  0  0  0  0
 11 47  1  0  0  0  0
 12 48  1  0  0  0  0
 14 49  1  0  0  0  0
 14 50  1  0  0  0  0
 15 51  1  0  0  0  0
 15 52  1  0  0  0  0
 16 53  1  0  0  0  0
 18 54  1  0  0  0  0
 18 55  1  0  0  0  0
 19 56  1  0  0  0  0
 19 57  1  0  0  0  0
 23 58  1  0  0  0  0
 23 59  1  0  0  0  0
 23 60  1  0  0  0  0
 24 61  1  0  0  0  0
 24 62  1  0  0  0  0
 24 63  1  0  0  0  0
 25 64  1  0  0  0  0
 25 65  1  0  0  0  0
 25 66  1  0  0  0  0
 26 67  1  0  0  0  0
 26 68  1  0  0  0  0
 26 69  1  0  0  0  0
 27 70  1  0  0  0  0
 28 71  1  0  0  0  0
 28 72  1  0  0  0  0
 29 73  1  0  0  0  0
 29 74  1  0  0  0  0
 29 75  1  0  0  0  0
 32 76  1  0  0  0  0
 33 77  1  0  0  0  0
 33 78  1  0  0  0  0
 33 79  1  0  0  0  0
M  END
$$$$
