C9H10N2O2
APtclcactv06211804353D 0   0.00000     0.00000
 
 23 23  0  0  0  0  0  0  0  0999 V2000
   -3.9478   -0.6494   -0.0016 C   0  0  0  0  0  0  0  0  0  0  0  0
   -3.3361   -0.3308    1.1964 C   0  0  0  0  0  0  0  0  0  0  0  0
   -2.1135    0.3143    1.1980 C   0  0  0  0  0  0  0  0  0  0  0  0
   -1.5025    0.6404    0.0017 C   0  0  0  0  0  0  0  0  0  0  0  0
   -2.1138    0.3209   -1.1963 C   0  0  0  0  0  0  0  0  0  0  0  0
   -3.3370   -0.3229   -1.1979 C   0  0  0  0  0  0  0  0  0  0  0  0
   -0.1701    1.3446    0.0035 C   0  0  0  0  0  0  0  0  0  0  0  0
    0.9379    0.3232    0.0008 C   0  0  0  0  0  0  0  0  0  0  0  0
    0.6720   -0.8596   -0.0022 O   0  0  0  0  0  0  0  0  0  0  0  0
    2.2245    0.7246    0.0018 N   0  0  0  0  0  0  0  0  0  0  0  0
    3.2155   -0.1889   -0.0005 C   0  0  0  0  0  0  0  0  0  0  0  0
    2.9489   -1.3747   -0.0036 O   0  0  0  0  0  0  0  0  0  0  0  0
    4.5021    0.2125    0.0005 N   0  0  0  0  0  0  0  0  0  0  0  0
   -4.9009   -1.1575   -0.0029 H   0  0  0  0  0  0  0  0  0  0  0  0
   -3.8135   -0.5855    2.1310 H   0  0  0  0  0  0  0  0  0  0  0  0
   -1.6359    0.5639    2.1340 H   0  0  0  0  0  0  0  0  0  0  0  0
   -1.6367    0.5763   -2.1309 H   0  0  0  0  0  0  0  0  0  0  0  0
   -3.8148   -0.5722   -2.1339 H   0  0  0  0  0  0  0  0  0  0  0  0
   -0.0890    1.9710   -0.8849 H   0  0  0  0  0  0  0  0  0  0  0  0
   -0.0890    1.9663    0.8951 H   0  0  0  0  0  0  0  0  0  0  0  0
    2.4373    1.6710    0.0043 H   0  0  0  0  0  0  0  0  0  0  0  0
    4.7148    1.1589    0.0029 H   0  0  0  0  0  0  0  0  0  0  0  0
    5.2153   -0.4449   -0.0012 H   0  0  0  0  0  0  0  0  0  0  0  0
  1  2  2  0  0  0  0
  2  3  1  0  0  0  0
  3  4  2  0  0  0  0
  4  5  1  0  0  0  0
  5  6  2  0  0  0  0
  1  6  1  0  0  0  0
  4  7  1  0  0  0  0
  7  8  1  0  0  0  0
  8  9  2  0  0  0  0
  8 10  1  0  0  0  0
 10 11  1  0  0  0  0
 11 12  2  0  0  0  0
 11 13  1  0  0  0  0
  1 14  1  0  0  0  0
  2 15  1  0  0  0  0
  3 16  1  0  0  0  0
  5 17  1  0  0  0  0
  6 18  1  0  0  0  0
  7 19  1  0  0  0  0
  7 20  1  0  0  0  0
 10 21  1  0  0  0  0
 13 22  1  0  0  0  0
 13 23  1  0  0  0  0
M  END
$$$$
