C10H10F3N3
APtclcactv06211806223D 0   0.00000     0.00000
 
 26 27  0  0  0  0  0  0  0  0999 V2000
    4.2582   -0.4184   -0.0008 C   0  0  0  0  0  0  0  0  0  0  0  0
    3.0481   -1.3737   -0.0002 C   0  0  0  0  0  0  0  0  0  0  0  0
    1.8920   -0.4630    0.0003 N   0  0  0  0  0  0  0  0  0  0  0  0
    2.3550    0.8513   -0.0000 N   0  0  0  0  0  0  0  0  0  0  0  0
    3.6340    0.9588   -0.0006 C   0  0  0  0  0  0  0  0  0  0  0  0
    4.3357    2.1546   -0.0006 N   0  0  0  0  0  0  0  0  0  0  0  0
    0.5530   -0.8515    0.0002 C   0  0  0  0  0  0  0  0  0  0  0  0
    0.2190   -2.2008   -0.0003 C   0  0  0  0  0  0  0  0  0  0  0  0
   -1.1083   -2.5817   -0.0004 C   0  0  0  0  0  0  0  0  0  0  0  0
   -2.1047   -1.6228   -0.0005 C   0  0  0  0  0  0  0  0  0  0  0  0
   -1.7763   -0.2790    0.0001 C   0  0  0  0  0  0  0  0  0  0  0  0
   -0.4517    0.1097    0.0064 C   0  0  0  0  0  0  0  0  0  0  0  0
   -2.8660    0.7620   -0.0005 C   0  0  0  0  0  0  0  0  0  0  0  0
   -4.1143    0.1303   -0.0015 F   0  0  0  0  0  0  0  0  0  0  0  0
   -2.7485    1.5607    1.1420 F   0  0  0  0  0  0  0  0  0  0  0  0
   -2.7469    1.5612   -1.1425 F   0  0  0  0  0  0  0  0  0  0  0  0
    4.8616   -0.5649    0.8951 H   0  0  0  0  0  0  0  0  0  0  0  0
    4.8608   -0.5650   -0.8971 H   0  0  0  0  0  0  0  0  0  0  0  0
    3.0481   -1.9936   -0.8967 H   0  0  0  0  0  0  0  0  0  0  0  0
    3.0489   -1.9935    0.8964 H   0  0  0  0  0  0  0  0  0  0  0  0
    3.8566    2.9980   -0.0005 H   0  0  0  0  0  0  0  0  0  0  0  0
    5.3057    2.1477   -0.0007 H   0  0  0  0  0  0  0  0  0  0  0  0
    0.9966   -2.9503   -0.0010 H   0  0  0  0  0  0  0  0  0  0  0  0
   -1.3686   -3.6299   -0.0009 H   0  0  0  0  0  0  0  0  0  0  0  0
   -3.1419   -1.9238   -0.0013 H   0  0  0  0  0  0  0  0  0  0  0  0
   -0.1961    1.1590    0.0072 H   0  0  0  0  0  0  0  0  0  0  0  0
  1  2  1  0  0  0  0
  2  3  1  0  0  0  0
  3  4  1  0  0  0  0
  4  5  2  0  0  0  0
  1  5  1  0  0  0  0
  5  6  1  0  0  0  0
  3  7  1  0  0  0  0
  7  8  2  0  0  0  0
  8  9  1  0  0  0  0
  9 10  2  0  0  0  0
 10 11  1  0  0  0  0
 11 12  2  0  0  0  0
  7 12  1  0  0  0  0
 11 13  1  0  0  0  0
 13 14  1  0  0  0  0
 13 15  1  0  0  0  0
 13 16  1  0  0  0  0
  1 17  1  0  0  0  0
  1 18  1  0  0  0  0
  2 19  1  0  0  0  0
  2 20  1  0  0  0  0
  6 21  1  0  0  0  0
  6 22  1  0  0  0  0
  8 23  1  0  0  0  0
  9 24  1  0  0  0  0
 10 25  1  0  0  0  0
 12 26  1  0  0  0  0
M  END
$$$$
