C7H7FO2S
APtclcactv06211804363D 0   0.00000     0.00000
 
 18 18  0  0  0  0  0  0  0  0999 V2000
   -3.4852    0.0123   -0.4289 C   0  0  0  0  0  0  0  0  0  0  0  0
   -2.8518   -1.1900   -0.1755 C   0  0  0  0  0  0  0  0  0  0  0  0
   -1.5706   -1.2003    0.3433 C   0  0  0  0  0  0  0  0  0  0  0  0
   -0.9225   -0.0084    0.6082 C   0  0  0  0  0  0  0  0  0  0  0  0
   -1.5555    1.1939    0.3540 C   0  0  0  0  0  0  0  0  0  0  0  0
   -2.8373    1.2042   -0.1635 C   0  0  0  0  0  0  0  0  0  0  0  0
    0.4739   -0.0197    1.1747 C   0  0  0  0  0  0  0  0  0  0  0  0
    1.6772   -0.0215   -0.1828 S   0  0  0  0  0  0  0  0  0  0  0  0
    1.7715   -1.3149   -0.7638 O   0  0  0  0  0  0  0  0  0  0  0  0
    1.5173    1.1354   -0.9923 O   0  0  0  0  0  0  0  0  0  0  0  0
    3.0993    0.1935    0.5406 F   0  0  0  0  0  0  0  0  0  0  0  0
   -4.4845    0.0204   -0.8384 H   0  0  0  0  0  0  0  0  0  0  0  0
   -3.3581   -2.1212   -0.3825 H   0  0  0  0  0  0  0  0  0  0  0  0
   -1.0760   -2.1397    0.5419 H   0  0  0  0  0  0  0  0  0  0  0  0
   -1.0495    2.1251    0.5617 H   0  0  0  0  0  0  0  0  0  0  0  0
   -3.3321    2.1436   -0.3618 H   0  0  0  0  0  0  0  0  0  0  0  0
    0.6231    0.8667    1.7913 H   0  0  0  0  0  0  0  0  0  0  0  0
    0.6118   -0.9132    1.7836 H   0  0  0  0  0  0  0  0  0  0  0  0
  1  2  2  0  0  0  0
  2  3  1  0  0  0  0
  3  4  2  0  0  0  0
  4  5  1  0  0  0  0
  5  6  2  0  0  0  0
  1  6  1  0  0  0  0
  4  7  1  0  0  0  0
  7  8  1  0  0  0  0
  8  9  2  0  0  0  0
  8 10  2  0  0  0  0
  8 11  1  0  0  0  0
  1 12  1  0  0  0  0
  2 13  1  0  0  0  0
  3 14  1  0  0  0  0
  5 15  1  0  0  0  0
  6 16  1  0  0  0  0
  7 17  1  0  0  0  0
  7 18  1  0  0  0  0
M  END
$$$$
