C15H24O4
APtclcactv06211806223D 0   0.00000     0.00000
 
 43 43  0  0  0  0  0  0  0  0999 V2000
    6.7348   -0.4736    0.3875 C   0  0  0  0  0  0  0  0  0  0  0  0
    5.4617    0.3747    0.3620 C   0  0  0  0  0  0  0  0  0  0  0  0
    5.4923    1.3040   -0.8531 C   0  0  0  0  0  0  0  0  0  0  0  0
    4.2399   -0.5417    0.2725 C   0  0  0  0  0  0  0  0  0  0  0  0
    2.9668    0.3066    0.2471 C   0  0  0  0  0  0  0  0  0  0  0  0
    1.7450   -0.6099    0.1576 C   0  0  0  0  0  0  0  0  0  0  0  0
    0.4809    0.2388    0.0066 C   0  0  0  0  0  0  0  0  0  0  0  0
    0.5248    0.9862   -1.3277 C   0  0  0  0  0  0  0  0  0  0  0  0
   -0.7502   -0.6691    0.0423 C   0  0  0  0  0  0  0  0  0  0  0  0
   -2.0171    0.1883    0.0168 C   0  0  0  0  0  0  0  0  0  0  0  0
   -3.2296   -0.7058    0.0520 C   0  0  0  0  0  0  0  0  0  0  0  0
   -3.0938   -1.9108    0.0934 O   0  0  0  0  0  0  0  0  0  0  0  0
   -4.5732   -0.1198    0.0362 C   0  0  0  0  0  0  0  0  0  0  0  0
   -4.8965    1.2091   -0.0093 C   0  0  0  0  0  0  0  0  0  0  0  0
   -6.2276    1.3177   -0.0089 O   0  0  0  0  0  0  0  0  0  0  0  0
   -6.8085    0.1083    0.0354 C   0  0  0  0  0  0  0  0  0  0  0  0
   -5.8583   -0.8373    0.0596 C   0  0  0  0  0  0  0  0  0  0  0  0
    2.8905    1.0870    1.4417 O   0  0  0  0  0  0  0  0  0  0  0  0
    4.3162   -1.3221   -0.9221 O   0  0  0  0  0  0  0  0  0  0  0  0
    7.6052    0.1793    0.4512 H   0  0  0  0  0  0  0  0  0  0  0  0
    6.7130   -1.1356    1.2531 H   0  0  0  0  0  0  0  0  0  0  0  0
    6.7930   -1.0689   -0.5238 H   0  0  0  0  0  0  0  0  0  0  0  0
    5.4035    0.9700    1.2733 H   0  0  0  0  0  0  0  0  0  0  0  0
    5.5506    0.7087   -1.7643 H   0  0  0  0  0  0  0  0  0  0  0  0
    4.5854    1.9083   -0.8712 H   0  0  0  0  0  0  0  0  0  0  0  0
    6.3628    1.9569   -0.7893 H   0  0  0  0  0  0  0  0  0  0  0  0
    4.2181   -1.2038    1.1382 H   0  0  0  0  0  0  0  0  0  0  0  0
    2.9886    0.9686   -0.6186 H   0  0  0  0  0  0  0  0  0  0  0  0
    1.8464   -1.2674   -0.7058 H   0  0  0  0  0  0  0  0  0  0  0  0
    1.6736   -1.2099    1.0648 H   0  0  0  0  0  0  0  0  0  0  0  0
    0.4261    0.9576    0.8241 H   0  0  0  0  0  0  0  0  0  0  0  0
   -0.3758    1.5908   -1.4352 H   0  0  0  0  0  0  0  0  0  0  0  0
    1.4018    1.6330   -1.3531 H   0  0  0  0  0  0  0  0  0  0  0  0
    0.5796    0.2674   -2.1452 H   0  0  0  0  0  0  0  0  0  0  0  0
   -0.7404   -1.3288   -0.8253 H   0  0  0  0  0  0  0  0  0  0  0  0
   -0.7344   -1.2670    0.9536 H   0  0  0  0  0  0  0  0  0  0  0  0
   -2.0268    0.8481    0.8845 H   0  0  0  0  0  0  0  0  0  0  0  0
   -2.0329    0.7862   -0.8944 H   0  0  0  0  0  0  0  0  0  0  0  0
   -4.1951    2.0298   -0.0398 H   0  0  0  0  0  0  0  0  0  0  0  0
   -7.8729   -0.0742    0.0455 H   0  0  0  0  0  0  0  0  0  0  0  0
   -6.0056   -1.9066    0.0960 H   0  0  0  0  0  0  0  0  0  0  0  0
    2.8674    0.5621    2.2536 H   0  0  0  0  0  0  0  0  0  0  0  0
    4.3393   -0.7973   -1.7340 H   0  0  0  0  0  0  0  0  0  0  0  0
  1  2  1  0  0  0  0
  2  3  1  0  0  0  0
  2  4  1  0  0  0  0
  4  5  1  0  0  0  0
  5  6  1  0  0  0  0
  6  7  1  0  0  0  0
  7  8  1  0  0  0  0
  7  9  1  0  0  0  0
  9 10  1  0  0  0  0
 10 11  1  0  0  0  0
 11 12  2  0  0  0  0
 11 13  1  0  0  0  0
 13 14  2  0  0  0  0
 14 15  1  0  0  0  0
 15 16  1  0  0  0  0
 16 17  2  0  0  0  0
 13 17  1  0  0  0  0
  5 18  1  0  0  0  0
  4 19  1  0  0  0  0
  1 20  1  0  0  0  0
  1 21  1  0  0  0  0
  1 22  1  0  0  0  0
  2 23  1  0  0  0  0
  3 24  1  0  0  0  0
  3 25  1  0  0  0  0
  3 26  1  0  0  0  0
  4 27  1  0  0  0  0
  5 28  1  0  0  0  0
  6 29  1  0  0  0  0
  6 30  1  0  0  0  0
  7 31  1  0  0  0  0
  8 32  1  0  0  0  0
  8 33  1  0  0  0  0
  8 34  1  0  0  0  0
  9 35  1  0  0  0  0
  9 36  1  0  0  0  0
 10 37  1  0  0  0  0
 10 38  1  0  0  0  0
 14 39  1  0  0  0  0
 16 40  1  0  0  0  0
 17 41  1  0  0  0  0
 18 42  1  0  0  0  0
 19 43  1  0  0  0  0
M  END
$$$$
