C25H26O5
APtclcactv06221815493D 0   0.00000     0.00000
 
 56 58  0  0  0  0  0  0  0  0999 V2000
   -6.1363   -2.0979    0.0309 C   0  0  0  0  0  0  0  0  0  0  0  0
   -5.0371   -2.9069    0.6698 C   0  0  0  0  0  0  0  0  0  0  0  0
   -3.8145   -2.8327    0.2053 C   0  0  0  0  0  0  0  0  0  0  0  0
   -3.5072   -1.9384   -0.9680 C   0  0  0  0  0  0  0  0  0  0  0  0
   -2.3989   -0.9868   -0.5976 C   0  0  0  0  0  0  0  0  0  0  0  0
   -1.0810   -1.3416   -0.8188 C   0  0  0  0  0  0  0  0  0  0  0  0
   -0.0600   -0.4502   -0.4674 C   0  0  0  0  0  0  0  0  0  0  0  0
   -0.3669    0.8024    0.0938 C   0  0  0  0  0  0  0  0  0  0  0  0
   -1.6969    1.1371    0.3094 C   0  0  0  0  0  0  0  0  0  0  0  0
   -2.7027    0.2503   -0.0387 C   0  0  0  0  0  0  0  0  0  0  0  0
   -3.9994    0.5881    0.1780 O   0  0  0  0  0  0  0  0  0  0  0  0
   -2.0476    2.4703    0.9182 C   0  0  0  0  0  0  0  0  0  0  0  0
   -2.2300    3.4900   -0.1763 C   0  0  0  0  0  0  0  0  0  0  0  0
   -1.5575    4.6137   -0.1434 C   0  0  0  0  0  0  0  0  0  0  0  0
   -0.7087    4.9490    1.0558 C   0  0  0  0  0  0  0  0  0  0  0  0
   -1.6328    5.5712   -1.3047 C   0  0  0  0  0  0  0  0  0  0  0  0
    0.6144    1.6685    0.4108 O   0  0  0  0  0  0  0  0  0  0  0  0
    1.8838    1.2719    0.5077 C   0  0  0  0  0  0  0  0  0  0  0  0
    2.3326    0.0935    0.0042 C   0  0  0  0  0  0  0  0  0  0  0  0
    1.3590   -0.7922   -0.6646 C   0  0  0  0  0  0  0  0  0  0  0  0
    1.7077   -1.7475   -1.3371 O   0  0  0  0  0  0  0  0  0  0  0  0
    3.7599   -0.2925    0.1220 C   0  0  0  0  0  0  0  0  0  0  0  0
    4.3189   -0.5262    1.3773 C   0  0  0  0  0  0  0  0  0  0  0  0
    5.6465   -0.8849    1.4835 C   0  0  0  0  0  0  0  0  0  0  0  0
    6.4258   -1.0128    0.3420 C   0  0  0  0  0  0  0  0  0  0  0  0
    5.8721   -0.7808   -0.9095 C   0  0  0  0  0  0  0  0  0  0  0  0
    4.5435   -0.4278   -1.0227 C   0  0  0  0  0  0  0  0  0  0  0  0
    7.7339   -1.3656    0.4500 O   0  0  0  0  0  0  0  0  0  0  0  0
   -0.7796   -2.5438   -1.3713 O   0  0  0  0  0  0  0  0  0  0  0  0
   -5.3443   -3.8013    1.8432 C   0  0  0  0  0  0  0  0  0  0  0  0
   -6.2349   -2.3824   -1.0166 H   0  0  0  0  0  0  0  0  0  0  0  0
   -7.0760   -2.2885    0.5492 H   0  0  0  0  0  0  0  0  0  0  0  0
   -5.8930   -1.0375    0.0981 H   0  0  0  0  0  0  0  0  0  0  0  0
   -3.0267   -3.4126    0.6632 H   0  0  0  0  0  0  0  0  0  0  0  0
   -3.1951   -2.5469   -1.8168 H   0  0  0  0  0  0  0  0  0  0  0  0
   -4.3987   -1.3712   -1.2358 H   0  0  0  0  0  0  0  0  0  0  0  0
   -4.4155    1.0476   -0.5642 H   0  0  0  0  0  0  0  0  0  0  0  0
   -2.9730    2.3780    1.4867 H   0  0  0  0  0  0  0  0  0  0  0  0
   -1.2438    2.7894    1.5817 H   0  0  0  0  0  0  0  0  0  0  0  0
   -2.9152    3.2943   -0.9879 H   0  0  0  0  0  0  0  0  0  0  0  0
    0.2724    4.4866    0.9472 H   0  0  0  0  0  0  0  0  0  0  0  0
   -0.5945    6.0305    1.1292 H   0  0  0  0  0  0  0  0  0  0  0  0
   -1.1899    4.5723    1.9584 H   0  0  0  0  0  0  0  0  0  0  0  0
   -2.4543    6.2700   -1.1468 H   0  0  0  0  0  0  0  0  0  0  0  0
   -0.6961    6.1232   -1.3818 H   0  0  0  0  0  0  0  0  0  0  0  0
   -1.8025    5.0130   -2.2254 H   0  0  0  0  0  0  0  0  0  0  0  0
    2.5879    1.9182    1.0105 H   0  0  0  0  0  0  0  0  0  0  0  0
    3.7132   -0.4262    2.2659 H   0  0  0  0  0  0  0  0  0  0  0  0
    6.0802   -1.0661    2.4559 H   0  0  0  0  0  0  0  0  0  0  0  0
    6.4811   -0.8811   -1.7958 H   0  0  0  0  0  0  0  0  0  0  0  0
    4.1132   -0.2478   -1.9968 H   0  0  0  0  0  0  0  0  0  0  0  0
    7.8875   -2.3199    0.4231 H   0  0  0  0  0  0  0  0  0  0  0  0
   -0.7303   -2.5316   -2.3369 H   0  0  0  0  0  0  0  0  0  0  0  0
   -5.6158   -4.7934    1.4825 H   0  0  0  0  0  0  0  0  0  0  0  0
   -4.4653   -3.8755    2.4835 H   0  0  0  0  0  0  0  0  0  0  0  0
   -6.1740   -3.3820    2.4122 H   0  0  0  0  0  0  0  0  0  0  0  0
  1  2  1  0  0  0  0
  2  3  2  0  0  0  0
  3  4  1  0  0  0  0
  4  5  1  0  0  0  0
  5  6  2  0  0  0  0
  6  7  1  0  0  0  0
  7  8  2  0  0  0  0
  8  9  1  0  0  0  0
  9 10  2  0  0  0  0
  5 10  1  0  0  0  0
 10 11  1  0  0  0  0
  9 12  1  0  0  0  0
 12 13  1  0  0  0  0
 13 14  2  0  0  0  0
 14 15  1  0  0  0  0
 14 16  1  0  0  0  0
  8 17  1  0  0  0  0
 17 18  1  0  0  0  0
 18 19  2  0  0  0  0
 19 20  1  0  0  0  0
  7 20  1  0  0  0  0
 20 21  2  0  0  0  0
 19 22  1  0  0  0  0
 22 23  2  0  0  0  0
 23 24  1  0  0  0  0
 24 25  2  0  0  0  0
 25 26  1  0  0  0  0
 26 27  2  0  0  0  0
 22 27  1  0  0  0  0
 25 28  1  0  0  0  0
  6 29  1  0  0  0  0
  2 30  1  0  0  0  0
  1 31  1  0  0  0  0
  1 32  1  0  0  0  0
  1 33  1  0  0  0  0
  3 34  1  0  0  0  0
  4 35  1  0  0  0  0
  4 36  1  0  0  0  0
 11 37  1  0  0  0  0
 12 38  1  0  0  0  0
 12 39  1  0  0  0  0
 13 40  1  0  0  0  0
 15 41  1  0  0  0  0
 15 42  1  0  0  0  0
 15 43  1  0  0  0  0
 16 44  1  0  0  0  0
 16 45  1  0  0  0  0
 16 46  1  0  0  0  0
 18 47  1  0  0  0  0
 23 48  1  0  0  0  0
 24 49  1  0  0  0  0
 26 50  1  0  0  0  0
 27 51  1  0  0  0  0
 28 52  1  0  0  0  0
 29 53  1  0  0  0  0
 30 54  1  0  0  0  0
 30 55  1  0  0  0  0
 30 56  1  0  0  0  0
M  END
$$$$
