C25H26O5
APtclcactv06221815493D 0   0.00000     0.00000
 
 56 58  0  0  0  0  0  0  0  0999 V2000
    7.7205    1.9170   -0.5162 C   0  0  0  0  0  0  0  0  0  0  0  0
    6.7133    2.2666    0.5488 C   0  0  0  0  0  0  0  0  0  0  0  0
    5.4413    2.0222    0.3529 C   0  0  0  0  0  0  0  0  0  0  0  0
    4.9987    1.2734   -0.8777 C   0  0  0  0  0  0  0  0  0  0  0  0
    4.2713    0.0188   -0.4679 C   0  0  0  0  0  0  0  0  0  0  0  0
    4.9908   -1.1062   -0.0839 C   0  0  0  0  0  0  0  0  0  0  0  0
    4.3250   -2.2662    0.2946 C   0  0  0  0  0  0  0  0  0  0  0  0
    2.9485   -2.3048    0.2905 C   0  0  0  0  0  0  0  0  0  0  0  0
    2.2207   -1.1751   -0.0947 C   0  0  0  0  0  0  0  0  0  0  0  0
    2.8941   -0.0092   -0.4691 C   0  0  0  0  0  0  0  0  0  0  0  0
    0.7461   -1.2119   -0.1006 C   0  0  0  0  0  0  0  0  0  0  0  0
    0.1189   -2.3594    0.2737 C   0  0  0  0  0  0  0  0  0  0  0  0
   -1.2951   -2.4134    0.2742 C   0  0  0  0  0  0  0  0  0  0  0  0
   -1.8908   -3.4261    0.6044 O   0  0  0  0  0  0  0  0  0  0  0  0
   -2.0199   -1.1996   -0.1388 C   0  0  0  0  0  0  0  0  0  0  0  0
   -3.4193   -1.1628   -0.1677 C   0  0  0  0  0  0  0  0  0  0  0  0
   -4.0621   -0.0033   -0.5612 C   0  0  0  0  0  0  0  0  0  0  0  0
   -3.3223    1.1164   -0.9250 C   0  0  0  0  0  0  0  0  0  0  0  0
   -1.9363    1.0868   -0.8986 C   0  0  0  0  0  0  0  0  0  0  0  0
   -1.2744   -0.0661   -0.5070 C   0  0  0  0  0  0  0  0  0  0  0  0
    0.0743   -0.1098   -0.4701 O   0  0  0  0  0  0  0  0  0  0  0  0
   -3.9633    2.2494   -1.3101 O   0  0  0  0  0  0  0  0  0  0  0  0
   -5.5678    0.0467   -0.5964 C   0  0  0  0  0  0  0  0  0  0  0  0
   -6.0863    0.5117    0.7401 C   0  0  0  0  0  0  0  0  0  0  0  0
   -6.8246    1.5911    0.8167 C   0  0  0  0  0  0  0  0  0  0  0  0
   -7.1285    2.3859   -0.4271 C   0  0  0  0  0  0  0  0  0  0  0  0
   -7.3698    2.0381    2.1486 C   0  0  0  0  0  0  0  0  0  0  0  0
   -4.1395   -2.2569    0.1872 O   0  0  0  0  0  0  0  0  0  0  0  0
    6.3479   -1.0726   -0.0789 O   0  0  0  0  0  0  0  0  0  0  0  0
    7.1694    2.8975    1.8392 C   0  0  0  0  0  0  0  0  0  0  0  0
    7.4348    2.3899   -1.4558 H   0  0  0  0  0  0  0  0  0  0  0  0
    8.7059    2.2728   -0.2153 H   0  0  0  0  0  0  0  0  0  0  0  0
    7.7494    0.8354   -0.6479 H   0  0  0  0  0  0  0  0  0  0  0  0
    4.7098    2.3572    1.0734 H   0  0  0  0  0  0  0  0  0  0  0  0
    4.3324    1.9038   -1.4666 H   0  0  0  0  0  0  0  0  0  0  0  0
    5.8710    1.0088   -1.4754 H   0  0  0  0  0  0  0  0  0  0  0  0
    4.8880   -3.1385    0.5920 H   0  0  0  0  0  0  0  0  0  0  0  0
    2.4319   -3.2067    0.5840 H   0  0  0  0  0  0  0  0  0  0  0  0
    2.3357    0.8658   -0.7673 H   0  0  0  0  0  0  0  0  0  0  0  0
    0.6961   -3.2234    0.5681 H   0  0  0  0  0  0  0  0  0  0  0  0
   -1.3723    1.9625   -1.1836 H   0  0  0  0  0  0  0  0  0  0  0  0
   -4.1592    2.8567   -0.5836 H   0  0  0  0  0  0  0  0  0  0  0  0
   -5.8903    0.7406   -1.3726 H   0  0  0  0  0  0  0  0  0  0  0  0
   -5.9594   -0.9474   -0.8121 H   0  0  0  0  0  0  0  0  0  0  0  0
   -5.8492   -0.0450    1.6347 H   0  0  0  0  0  0  0  0  0  0  0  0
   -7.9860    1.9477   -0.9378 H   0  0  0  0  0  0  0  0  0  0  0  0
   -7.3562    3.4161   -0.1533 H   0  0  0  0  0  0  0  0  0  0  0  0
   -6.2633    2.3688   -1.0897 H   0  0  0  0  0  0  0  0  0  0  0  0
   -7.0473    1.3440    2.9247 H   0  0  0  0  0  0  0  0  0  0  0  0
   -6.9977    3.0368    2.3769 H   0  0  0  0  0  0  0  0  0  0  0  0
   -8.4589    2.0567    2.1076 H   0  0  0  0  0  0  0  0  0  0  0  0
   -4.3582   -2.2954    1.1284 H   0  0  0  0  0  0  0  0  0  0  0  0
    6.7311   -0.7833    0.7605 H   0  0  0  0  0  0  0  0  0  0  0  0
    7.1640    3.9825    1.7350 H   0  0  0  0  0  0  0  0  0  0  0  0
    6.4947    2.6065    2.6443 H   0  0  0  0  0  0  0  0  0  0  0  0
    8.1794    2.5598    2.0716 H   0  0  0  0  0  0  0  0  0  0  0  0
  1  2  1  0  0  0  0
  2  3  2  0  0  0  0
  3  4  1  0  0  0  0
  4  5  1  0  0  0  0
  5  6  2  0  0  0  0
  6  7  1  0  0  0  0
  7  8  2  0  0  0  0
  8  9  1  0  0  0  0
  9 10  2  0  0  0  0
  5 10  1  0  0  0  0
  9 11  1  0  0  0  0
 11 12  2  0  0  0  0
 12 13  1  0  0  0  0
 13 14  2  0  0  0  0
 13 15  1  0  0  0  0
 15 16  2  0  0  0  0
 16 17  1  0  0  0  0
 17 18  2  0  0  0  0
 18 19  1  0  0  0  0
 19 20  2  0  0  0  0
 15 20  1  0  0  0  0
 20 21  1  0  0  0  0
 11 21  1  0  0  0  0
 18 22  1  0  0  0  0
 17 23  1  0  0  0  0
 23 24  1  0  0  0  0
 24 25  2  0  0  0  0
 25 26  1  0  0  0  0
 25 27  1  0  0  0  0
 16 28  1  0  0  0  0
  6 29  1  0  0  0  0
  2 30  1  0  0  0  0
  1 31  1  0  0  0  0
  1 32  1  0  0  0  0
  1 33  1  0  0  0  0
  3 34  1  0  0  0  0
  4 35  1  0  0  0  0
  4 36  1  0  0  0  0
  7 37  1  0  0  0  0
  8 38  1  0  0  0  0
 10 39  1  0  0  0  0
 12 40  1  0  0  0  0
 19 41  1  0  0  0  0
 22 42  1  0  0  0  0
 23 43  1  0  0  0  0
 23 44  1  0  0  0  0
 24 45  1  0  0  0  0
 26 46  1  0  0  0  0
 26 47  1  0  0  0  0
 26 48  1  0  0  0  0
 27 49  1  0  0  0  0
 27 50  1  0  0  0  0
 27 51  1  0  0  0  0
 28 52  1  0  0  0  0
 29 53  1  0  0  0  0
 30 54  1  0  0  0  0
 30 55  1  0  0  0  0
 30 56  1  0  0  0  0
M  END
$$$$
