C19H20O4
APtclcactv06221815503D 0   0.00000     0.00000
 
 43 45  0  0  0  0  0  0  0  0999 V2000
    5.8140   -0.4244   -0.4393 C   0  0  0  0  0  0  0  0  0  0  0  0
    4.8767   -1.1549    0.4875 C   0  0  0  0  0  0  0  0  0  0  0  0
    3.6033   -1.2453    0.1934 C   0  0  0  0  0  0  0  0  0  0  0  0
    3.0517   -0.5098   -1.0007 C   0  0  0  0  0  0  0  0  0  0  0  0
    1.9000    0.3599   -0.5669 C   0  0  0  0  0  0  0  0  0  0  0  0
    2.1264    1.6835   -0.2132 C   0  0  0  0  0  0  0  0  0  0  0  0
    1.0718    2.4909    0.1879 C   0  0  0  0  0  0  0  0  0  0  0  0
   -0.2115    1.9734    0.2460 C   0  0  0  0  0  0  0  0  0  0  0  0
   -0.4369    0.6404   -0.1005 C   0  0  0  0  0  0  0  0  0  0  0  0
    0.6225   -0.1592   -0.5276 C   0  0  0  0  0  0  0  0  0  0  0  0
    0.3660   -1.5782   -0.9595 C   0  0  0  0  0  0  0  0  0  0  0  0
   -0.7235   -2.2133   -0.1010 C   0  0  0  0  0  0  0  0  0  0  0  0
   -1.9416   -1.3304   -0.0475 C   0  0  0  0  0  0  0  0  0  0  0  0
   -3.2028   -1.8896   -0.0042 C   0  0  0  0  0  0  0  0  0  0  0  0
   -4.3231   -1.0759    0.0655 C   0  0  0  0  0  0  0  0  0  0  0  0
   -4.1822    0.3091    0.0939 C   0  0  0  0  0  0  0  0  0  0  0  0
   -2.9200    0.8751    0.0425 C   0  0  0  0  0  0  0  0  0  0  0  0
   -1.7990    0.0593   -0.0432 C   0  0  0  0  0  0  0  0  0  0  0  0
   -5.2827    1.1043    0.1714 O   0  0  0  0  0  0  0  0  0  0  0  0
   -5.5635   -1.6321    0.1059 O   0  0  0  0  0  0  0  0  0  0  0  0
   -1.2468    2.7602    0.6391 O   0  0  0  0  0  0  0  0  0  0  0  0
    3.3864    2.1900   -0.2596 O   0  0  0  0  0  0  0  0  0  0  0  0
    5.4042   -1.7813    1.7525 C   0  0  0  0  0  0  0  0  0  0  0  0
    5.8202    0.6362   -0.1879 H   0  0  0  0  0  0  0  0  0  0  0  0
    6.8203   -0.8292   -0.3314 H   0  0  0  0  0  0  0  0  0  0  0  0
    5.4796   -0.5518   -1.4688 H   0  0  0  0  0  0  0  0  0  0  0  0
    2.9489   -1.8469    0.8067 H   0  0  0  0  0  0  0  0  0  0  0  0
    3.8330    0.1127   -1.4367 H   0  0  0  0  0  0  0  0  0  0  0  0
    2.7045   -1.2295   -1.7421 H   0  0  0  0  0  0  0  0  0  0  0  0
    1.2515    3.5218    0.4548 H   0  0  0  0  0  0  0  0  0  0  0  0
    0.0507   -1.5846   -2.0029 H   0  0  0  0  0  0  0  0  0  0  0  0
    1.2849   -2.1559   -0.8591 H   0  0  0  0  0  0  0  0  0  0  0  0
   -0.9983   -3.1786   -0.5261 H   0  0  0  0  0  0  0  0  0  0  0  0
   -0.3432   -2.3620    0.9096 H   0  0  0  0  0  0  0  0  0  0  0  0
   -3.3171   -2.9634   -0.0243 H   0  0  0  0  0  0  0  0  0  0  0  0
   -2.8070    1.9489    0.0646 H   0  0  0  0  0  0  0  0  0  0  0  0
   -5.5552    1.3116    1.0757 H   0  0  0  0  0  0  0  0  0  0  0  0
   -5.8835   -1.8152    0.9998 H   0  0  0  0  0  0  0  0  0  0  0  0
   -1.6818    3.2292   -0.0861 H   0  0  0  0  0  0  0  0  0  0  0  0
    3.6212    2.5829   -1.1114 H   0  0  0  0  0  0  0  0  0  0  0  0
    5.3519   -1.0573    2.5657 H   0  0  0  0  0  0  0  0  0  0  0  0
    4.8021   -2.6544    2.0041 H   0  0  0  0  0  0  0  0  0  0  0  0
    6.4402   -2.0853    1.6028 H   0  0  0  0  0  0  0  0  0  0  0  0
  1  2  1  0  0  0  0
  2  3  2  0  0  0  0
  3  4  1  0  0  0  0
  4  5  1  0  0  0  0
  5  6  2  0  0  0  0
  6  7  1  0  0  0  0
  7  8  2  0  0  0  0
  8  9  1  0  0  0  0
  9 10  2  0  0  0  0
  5 10  1  0  0  0  0
 10 11  1  0  0  0  0
 11 12  1  0  0  0  0
 12 13  1  0  0  0  0
 13 14  2  0  0  0  0
 14 15  1  0  0  0  0
 15 16  2  0  0  0  0
 16 17  1  0  0  0  0
 17 18  2  0  0  0  0
 13 18  1  0  0  0  0
  9 18  1  0  0  0  0
 16 19  1  0  0  0  0
 15 20  1  0  0  0  0
  8 21  1  0  0  0  0
  6 22  1  0  0  0  0
  2 23  1  0  0  0  0
  1 24  1  0  0  0  0
  1 25  1  0  0  0  0
  1 26  1  0  0  0  0
  3 27  1  0  0  0  0
  4 28  1  0  0  0  0
  4 29  1  0  0  0  0
  7 30  1  0  0  0  0
 11 31  1  0  0  0  0
 11 32  1  0  0  0  0
 12 33  1  0  0  0  0
 12 34  1  0  0  0  0
 14 35  1  0  0  0  0
 17 36  1  0  0  0  0
 19 37  1  0  0  0  0
 20 38  1  0  0  0  0
 21 39  1  0  0  0  0
 22 40  1  0  0  0  0
 23 41  1  0  0  0  0
 23 42  1  0  0  0  0
 23 43  1  0  0  0  0
M  END
$$$$
