C24H30O4
APtclcactv06221815493D 0   0.00000     0.00000
 
 58 59  0  0  0  0  0  0  0  0999 V2000
   -0.8841   -5.2423   -0.7853 C   0  0  0  0  0  0  0  0  0  0  0  0
   -0.6082   -4.6174    0.5580 C   0  0  0  0  0  0  0  0  0  0  0  0
   -0.3782   -3.3308    0.6471 C   0  0  0  0  0  0  0  0  0  0  0  0
   -0.5133   -2.4550   -0.5718 C   0  0  0  0  0  0  0  0  0  0  0  0
   -1.5550   -1.3963   -0.3167 C   0  0  0  0  0  0  0  0  0  0  0  0
   -1.1858   -0.1823    0.2301 C   0  0  0  0  0  0  0  0  0  0  0  0
   -2.1385    0.7907    0.4648 C   0  0  0  0  0  0  0  0  0  0  0  0
   -3.4690    0.5503    0.1519 C   0  0  0  0  0  0  0  0  0  0  0  0
   -3.8419   -0.6669   -0.3969 C   0  0  0  0  0  0  0  0  0  0  0  0
   -2.8833   -1.6393   -0.6366 C   0  0  0  0  0  0  0  0  0  0  0  0
   -3.2457   -2.8335   -1.1745 O   0  0  0  0  0  0  0  0  0  0  0  0
   -4.4056    1.5073    0.3837 O   0  0  0  0  0  0  0  0  0  0  0  0
   -1.7325    2.1136    1.0613 C   0  0  0  0  0  0  0  0  0  0  0  0
   -1.4924    3.1103   -0.0433 C   0  0  0  0  0  0  0  0  0  0  0  0
   -2.2054    4.2076   -0.1017 C   0  0  0  0  0  0  0  0  0  0  0  0
   -3.2530    4.4823    0.9462 C   0  0  0  0  0  0  0  0  0  0  0  0
   -1.9781    5.1954   -1.2170 C   0  0  0  0  0  0  0  0  0  0  0  0
    0.2582    0.0810    0.5717 C   0  0  0  0  0  0  0  0  0  0  0  0
    0.9806    0.6342   -0.6583 C   0  0  0  0  0  0  0  0  0  0  0  0
    2.4495    0.7797   -0.3550 C   0  0  0  0  0  0  0  0  0  0  0  0
    3.3130   -0.2703   -0.6061 C   0  0  0  0  0  0  0  0  0  0  0  0
    4.6639   -0.1381   -0.3278 C   0  0  0  0  0  0  0  0  0  0  0  0
    5.1482    1.0529    0.2045 C   0  0  0  0  0  0  0  0  0  0  0  0
    4.2773    2.1015    0.4538 C   0  0  0  0  0  0  0  0  0  0  0  0
    2.9316    1.9650    0.1686 C   0  0  0  0  0  0  0  0  0  0  0  0
    6.4732    1.1874    0.4798 O   0  0  0  0  0  0  0  0  0  0  0  0
    5.5146   -1.1702   -0.5738 O   0  0  0  0  0  0  0  0  0  0  0  0
   -0.5969   -5.4726    1.7988 C   0  0  0  0  0  0  0  0  0  0  0  0
   -0.0707   -5.0043   -1.4707 H   0  0  0  0  0  0  0  0  0  0  0  0
   -0.9608   -6.3238   -0.6740 H   0  0  0  0  0  0  0  0  0  0  0  0
   -1.8205   -4.8506   -1.1828 H   0  0  0  0  0  0  0  0  0  0  0  0
   -0.0918   -2.8978    1.5941 H   0  0  0  0  0  0  0  0  0  0  0  0
    0.4439   -1.9791   -0.7851 H   0  0  0  0  0  0  0  0  0  0  0  0
   -0.8147   -3.0633   -1.4246 H   0  0  0  0  0  0  0  0  0  0  0  0
   -4.8769   -0.8560   -0.6407 H   0  0  0  0  0  0  0  0  0  0  0  0
   -3.2224   -2.8529   -2.1410 H   0  0  0  0  0  0  0  0  0  0  0  0
   -4.5449    2.1096   -0.3598 H   0  0  0  0  0  0  0  0  0  0  0  0
   -2.5270    2.4776    1.7128 H   0  0  0  0  0  0  0  0  0  0  0  0
   -0.8179    1.9857    1.6404 H   0  0  0  0  0  0  0  0  0  0  0  0
   -0.7325    2.9198   -0.7867 H   0  0  0  0  0  0  0  0  0  0  0  0
   -2.7851    4.9451    1.8151 H   0  0  0  0  0  0  0  0  0  0  0  0
   -4.0073    5.1551    0.5383 H   0  0  0  0  0  0  0  0  0  0  0  0
   -3.7242    3.5454    1.2432 H   0  0  0  0  0  0  0  0  0  0  0  0
   -2.6243    4.9476   -2.0591 H   0  0  0  0  0  0  0  0  0  0  0  0
   -2.2098    6.2006   -0.8648 H   0  0  0  0  0  0  0  0  0  0  0  0
   -0.9360    5.1524   -1.5336 H   0  0  0  0  0  0  0  0  0  0  0  0
    0.3131    0.8073    1.3826 H   0  0  0  0  0  0  0  0  0  0  0  0
    0.7330   -0.8491    0.8842 H   0  0  0  0  0  0  0  0  0  0  0  0
    0.8486   -0.0508   -1.4958 H   0  0  0  0  0  0  0  0  0  0  0  0
    0.5646    1.6081   -0.9165 H   0  0  0  0  0  0  0  0  0  0  0  0
    2.9345   -1.1937   -1.0189 H   0  0  0  0  0  0  0  0  0  0  0  0
    4.6507    3.0269    0.8669 H   0  0  0  0  0  0  0  0  0  0  0  0
    2.2538    2.7830    0.3634 H   0  0  0  0  0  0  0  0  0  0  0  0
    6.9947    1.5347   -0.2568 H   0  0  0  0  0  0  0  0  0  0  0  0
    5.8986   -1.1604   -1.4612 H   0  0  0  0  0  0  0  0  0  0  0  0
   -0.8069   -6.5075    1.5287 H   0  0  0  0  0  0  0  0  0  0  0  0
    0.3829   -5.4124    2.2726 H   0  0  0  0  0  0  0  0  0  0  0  0
   -1.3584   -5.1164    2.4926 H   0  0  0  0  0  0  0  0  0  0  0  0
  1  2  1  0  0  0  0
  2  3  2  0  0  0  0
  3  4  1  0  0  0  0
  4  5  1  0  0  0  0
  5  6  2  0  0  0  0
  6  7  1  0  0  0  0
  7  8  2  0  0  0  0
  8  9  1  0  0  0  0
  9 10  2  0  0  0  0
  5 10  1  0  0  0  0
 10 11  1  0  0  0  0
  8 12  1  0  0  0  0
  7 13  1  0  0  0  0
 13 14  1  0  0  0  0
 14 15  2  0  0  0  0
 15 16  1  0  0  0  0
 15 17  1  0  0  0  0
  6 18  1  0  0  0  0
 18 19  1  0  0  0  0
 19 20  1  0  0  0  0
 20 21  2  0  0  0  0
 21 22  1  0  0  0  0
 22 23  2  0  0  0  0
 23 24  1  0  0  0  0
 24 25  2  0  0  0  0
 20 25  1  0  0  0  0
 23 26  1  0  0  0  0
 22 27  1  0  0  0  0
  2 28  1  0  0  0  0
  1 29  1  0  0  0  0
  1 30  1  0  0  0  0
  1 31  1  0  0  0  0
  3 32  1  0  0  0  0
  4 33  1  0  0  0  0
  4 34  1  0  0  0  0
  9 35  1  0  0  0  0
 11 36  1  0  0  0  0
 12 37  1  0  0  0  0
 13 38  1  0  0  0  0
 13 39  1  0  0  0  0
 14 40  1  0  0  0  0
 16 41  1  0  0  0  0
 16 42  1  0  0  0  0
 16 43  1  0  0  0  0
 17 44  1  0  0  0  0
 17 45  1  0  0  0  0
 17 46  1  0  0  0  0
 18 47  1  0  0  0  0
 18 48  1  0  0  0  0
 19 49  1  0  0  0  0
 19 50  1  0  0  0  0
 21 51  1  0  0  0  0
 24 52  1  0  0  0  0
 25 53  1  0  0  0  0
 26 54  1  0  0  0  0
 27 55  1  0  0  0  0
 28 56  1  0  0  0  0
 28 57  1  0  0  0  0
 28 58  1  0  0  0  0
M  END
$$$$
