C13H10O5
APtclcactv06211804363D 0   0.00000     0.00000
 
 28 30  0  0  0  0  0  0  0  0999 V2000
   -1.0725    3.2281    1.1187 C   0  0  0  0  0  0  0  0  0  0  0  0
   -0.9759    2.5177   -0.1174 O   0  0  0  0  0  0  0  0  0  0  0  0
   -0.6627    1.1971   -0.0473 C   0  0  0  0  0  0  0  0  0  0  0  0
   -1.6676    0.2568    0.0538 C   0  0  0  0  0  0  0  0  0  0  0  0
   -1.3554   -1.1035    0.1265 C   0  0  0  0  0  0  0  0  0  0  0  0
   -0.0146   -1.5145    0.0962 C   0  0  0  0  0  0  0  0  0  0  0  0
   -0.0490   -2.9793    0.1900 C   0  0  0  0  0  0  0  0  0  0  0  0
   -1.3430   -3.3178    0.2657 C   0  0  0  0  0  0  0  0  0  0  0  0
   -2.1121   -2.2153    0.2284 O   0  0  0  0  0  0  0  0  0  0  0  0
    1.0124   -0.5700   -0.0069 C   0  0  0  0  0  0  0  0  0  0  0  0
    0.6867    0.7928   -0.0839 C   0  0  0  0  0  0  0  0  0  0  0  0
    1.7265    1.7527   -0.1886 C   0  0  0  0  0  0  0  0  0  0  0  0
    3.0150    1.3246   -0.2115 C   0  0  0  0  0  0  0  0  0  0  0  0
    3.2963   -0.0541   -0.1316 C   0  0  0  0  0  0  0  0  0  0  0  0
    4.4541   -0.4329   -0.1526 O   0  0  0  0  0  0  0  0  0  0  0  0
    2.3060   -0.9569   -0.0371 O   0  0  0  0  0  0  0  0  0  0  0  0
   -2.9688    0.6559    0.0832 O   0  0  0  0  0  0  0  0  0  0  0  0
   -3.6420    0.7665   -1.1724 C   0  0  0  0  0  0  0  0  0  0  0  0
   -1.3275    4.2692    0.9205 H   0  0  0  0  0  0  0  0  0  0  0  0
   -1.8472    2.7759    1.7380 H   0  0  0  0  0  0  0  0  0  0  0  0
   -0.1167    3.1811    1.6405 H   0  0  0  0  0  0  0  0  0  0  0  0
    0.7982   -3.6491    0.1968 H   0  0  0  0  0  0  0  0  0  0  0  0
   -1.7144   -4.3288    0.3453 H   0  0  0  0  0  0  0  0  0  0  0  0
    1.4969    2.8063   -0.2494 H   0  0  0  0  0  0  0  0  0  0  0  0
    3.8217    2.0383   -0.2911 H   0  0  0  0  0  0  0  0  0  0  0  0
   -4.6689    1.0924   -1.0066 H   0  0  0  0  0  0  0  0  0  0  0  0
   -3.1263    1.4949   -1.7983 H   0  0  0  0  0  0  0  0  0  0  0  0
   -3.6444   -0.2032   -1.6701 H   0  0  0  0  0  0  0  0  0  0  0  0
  1  2  1  0  0  0  0
  2  3  1  0  0  0  0
  3  4  2  0  0  0  0
  4  5  1  0  0  0  0
  5  6  2  0  0  0  0
  6  7  1  0  0  0  0
  7  8  2  0  0  0  0
  8  9  1  0  0  0  0
  5  9  1  0  0  0  0
  6 10  1  0  0  0  0
 10 11  2  0  0  0  0
  3 11  1  0  0  0  0
 11 12  1  0  0  0  0
 12 13  2  0  0  0  0
 13 14  1  0  0  0  0
 14 15  2  0  0  0  0
 14 16  1  0  0  0  0
 10 16  1  0  0  0  0
  4 17  1  0  0  0  0
 17 18  1  0  0  0  0
  1 19  1  0  0  0  0
  1 20  1  0  0  0  0
  1 21  1  0  0  0  0
  7 22  1  0  0  0  0
  8 23  1  0  0  0  0
 12 24  1  0  0  0  0
 13 25  1  0  0  0  0
 18 26  1  0  0  0  0
 18 27  1  0  0  0  0
 18 28  1  0  0  0  0
M  END
$$$$
