C15H10N2O2
APtclcactv06221815503D 0   0.00000     0.00000
 
 29 32  0  0  0  0  0  0  0  0999 V2000
    4.3962    1.1445   -0.0022 C   0  0  0  0  0  0  0  0  0  0  0  0
    2.9832    1.3571   -0.0046 O   0  0  0  0  0  0  0  0  0  0  0  0
    2.1942    0.2533   -0.0028 C   0  0  0  0  0  0  0  0  0  0  0  0
    2.7550   -1.0276    0.0011 C   0  0  0  0  0  0  0  0  0  0  0  0
    2.0291   -2.1292    0.0031 N   0  0  0  0  0  0  0  0  0  0  0  0
    0.7011   -2.0709    0.0021 C   0  0  0  0  0  0  0  0  0  0  0  0
   -0.1865   -3.2376    0.0056 C   0  0  0  0  0  0  0  0  0  0  0  0
   -1.5266   -3.0009    0.0034 C   0  0  0  0  0  0  0  0  0  0  0  0
   -2.0605   -1.6924   -0.0020 C   0  0  0  0  0  0  0  0  0  0  0  0
   -3.2692   -1.5388   -0.0050 O   0  0  0  0  0  0  0  0  0  0  0  0
   -1.2537   -0.6092   -0.0035 N   0  0  0  0  0  0  0  0  0  0  0  0
    0.0872   -0.8225   -0.0021 C   0  0  0  0  0  0  0  0  0  0  0  0
    0.8046    0.3691    0.0009 C   0  0  0  0  0  0  0  0  0  0  0  0
   -0.2211    1.4223    0.0020 C   0  0  0  0  0  0  0  0  0  0  0  0
   -0.1719    2.8130    0.0052 C   0  0  0  0  0  0  0  0  0  0  0  0
   -1.3398    3.5457    0.0052 C   0  0  0  0  0  0  0  0  0  0  0  0
   -2.5664    2.9019    0.0020 C   0  0  0  0  0  0  0  0  0  0  0  0
   -2.6333    1.5243   -0.0012 C   0  0  0  0  0  0  0  0  0  0  0  0
   -1.4701    0.7664   -0.0062 C   0  0  0  0  0  0  0  0  0  0  0  0
    4.6779    0.5845    0.8896 H   0  0  0  0  0  0  0  0  0  0  0  0
    4.6802    0.5801   -0.8904 H   0  0  0  0  0  0  0  0  0  0  0  0
    4.9084    2.1066   -0.0039 H   0  0  0  0  0  0  0  0  0  0  0  0
    3.8311   -1.1192    0.0022 H   0  0  0  0  0  0  0  0  0  0  0  0
    0.2069   -4.2434    0.0095 H   0  0  0  0  0  0  0  0  0  0  0  0
   -2.2049   -3.8413    0.0055 H   0  0  0  0  0  0  0  0  0  0  0  0
    0.7822    3.3190    0.0081 H   0  0  0  0  0  0  0  0  0  0  0  0
   -1.2982    4.6249    0.0081 H   0  0  0  0  0  0  0  0  0  0  0  0
   -3.4769    3.4829    0.0023 H   0  0  0  0  0  0  0  0  0  0  0  0
   -3.5950    1.0329   -0.0033 H   0  0  0  0  0  0  0  0  0  0  0  0
  1  2  1  0  0  0  0
  2  3  1  0  0  0  0
  3  4  2  0  0  0  0
  4  5  1  0  0  0  0
  5  6  2  0  0  0  0
  6  7  1  0  0  0  0
  7  8  2  0  0  0  0
  8  9  1  0  0  0  0
  9 10  2  0  0  0  0
  9 11  1  0  0  0  0
 11 12  1  0  0  0  0
  6 12  1  0  0  0  0
 12 13  2  0  0  0  0
  3 13  1  0  0  0  0
 13 14  1  0  0  0  0
 14 15  2  0  0  0  0
 15 16  1  0  0  0  0
 16 17  2  0  0  0  0
 17 18  1  0  0  0  0
 18 19  2  0  0  0  0
 14 19  1  0  0  0  0
 11 19  1  0  0  0  0
  1 20  1  0  0  0  0
  1 21  1  0  0  0  0
  1 22  1  0  0  0  0
  4 23  1  0  0  0  0
  7 24  1  0  0  0  0
  8 25  1  0  0  0  0
 15 26  1  0  0  0  0
 16 27  1  0  0  0  0
 17 28  1  0  0  0  0
 18 29  1  0  0  0  0
M  END
$$$$
