C21H19NO4
APtclcactv06221815503D 0   0.00000     0.00000
 
 45 49  0  0  0  0  0  0  0  0999 V2000
    0.8777    2.3200    0.8484 C   0  0  0  0  0  0  0  0  0  0  0  0
    0.1285    1.4276   -0.0665 N   0  0  0  0  0  0  0  0  0  0  0  0
   -1.2950    1.6936    0.1162 C   0  0  0  0  0  0  0  0  0  0  0  0
   -2.2004    0.5054   -0.0083 C   0  0  0  0  0  0  0  0  0  0  0  0
   -1.6858   -0.7881    0.0211 C   0  0  0  0  0  0  0  0  0  0  0  0
   -2.5304   -1.8878   -0.0979 C   0  0  0  0  0  0  0  0  0  0  0  0
   -3.8865   -1.7018   -0.2654 C   0  0  0  0  0  0  0  0  0  0  0  0
   -4.4064   -0.4154   -0.2932 C   0  0  0  0  0  0  0  0  0  0  0  0
   -3.5659    0.6886   -0.1556 C   0  0  0  0  0  0  0  0  0  0  0  0
   -4.0888    1.9422   -0.1545 O   0  0  0  0  0  0  0  0  0  0  0  0
   -4.4715    2.4845    1.1110 C   0  0  0  0  0  0  0  0  0  0  0  0
   -5.7399   -0.2329   -0.4767 O   0  0  0  0  0  0  0  0  0  0  0  0
   -6.5399   -1.4066   -0.6328 C   0  0  0  0  0  0  0  0  0  0  0  0
   -0.2208   -0.9662    0.1491 C   0  0  0  0  0  0  0  0  0  0  0  0
    0.6138    0.1373    0.0134 C   0  0  0  0  0  0  0  0  0  0  0  0
    2.0048   -0.1119   -0.0746 C   0  0  0  0  0  0  0  0  0  0  0  0
    2.8861    0.8224   -0.6568 C   0  0  0  0  0  0  0  0  0  0  0  0
    4.2282    0.6070   -0.4798 C   0  0  0  0  0  0  0  0  0  0  0  0
    4.7214   -0.5255    0.2094 C   0  0  0  0  0  0  0  0  0  0  0  0
    3.8911   -1.5162    0.6588 C   0  0  0  0  0  0  0  0  0  0  0  0
    2.5126   -1.3434    0.4131 C   0  0  0  0  0  0  0  0  0  0  0  0
    1.6347   -2.4285    0.6059 C   0  0  0  0  0  0  0  0  0  0  0  0
    0.3005   -2.2342    0.4462 C   0  0  0  0  0  0  0  0  0  0  0  0
    6.0607   -0.3983    0.3139 O   0  0  0  0  0  0  0  0  0  0  0  0
    6.4706    0.5644   -0.6712 C   0  0  0  0  0  0  0  0  0  0  0  0
    5.2844    1.3456   -0.8855 O   0  0  0  0  0  0  0  0  0  0  0  0
    0.5336    2.1640    1.8708 H   0  0  0  0  0  0  0  0  0  0  0  0
    1.9423    2.0946    0.7850 H   0  0  0  0  0  0  0  0  0  0  0  0
    0.7086    3.3582    0.5626 H   0  0  0  0  0  0  0  0  0  0  0  0
   -1.4365    2.1331    1.1169 H   0  0  0  0  0  0  0  0  0  0  0  0
   -1.6075    2.4479   -0.6200 H   0  0  0  0  0  0  0  0  0  0  0  0
   -2.1335   -2.8913   -0.0689 H   0  0  0  0  0  0  0  0  0  0  0  0
   -4.5458   -2.5496   -0.3718 H   0  0  0  0  0  0  0  0  0  0  0  0
   -5.2330    1.8491    1.5632 H   0  0  0  0  0  0  0  0  0  0  0  0
   -3.6008    2.5298    1.7651 H   0  0  0  0  0  0  0  0  0  0  0  0
   -4.8726    3.4881    0.9700 H   0  0  0  0  0  0  0  0  0  0  0  0
   -6.4492   -2.0292    0.2573 H   0  0  0  0  0  0  0  0  0  0  0  0
   -7.5824   -1.1199   -0.7710 H   0  0  0  0  0  0  0  0  0  0  0  0
   -6.1983   -1.9659   -1.5038 H   0  0  0  0  0  0  0  0  0  0  0  0
    2.5285    1.6619   -1.2304 H   0  0  0  0  0  0  0  0  0  0  0  0
    4.2661   -2.3867    1.1695 H   0  0  0  0  0  0  0  0  0  0  0  0
    2.0173   -3.3947    0.8940 H   0  0  0  0  0  0  0  0  0  0  0  0
   -0.3592   -3.0836    0.5369 H   0  0  0  0  0  0  0  0  0  0  0  0
    7.2802    1.1800   -0.2857 H   0  0  0  0  0  0  0  0  0  0  0  0
    6.7632    0.0639   -1.6005 H   0  0  0  0  0  0  0  0  0  0  0  0
  1  2  1  0  0  0  0
  2  3  1  0  0  0  0
  3  4  1  0  0  0  0
  4  5  2  0  0  0  0
  5  6  1  0  0  0  0
  6  7  2  0  0  0  0
  7  8  1  0  0  0  0
  8  9  2  0  0  0  0
  4  9  1  0  0  0  0
  9 10  1  0  0  0  0
 10 11  1  0  0  0  0
  8 12  1  0  0  0  0
 12 13  1  0  0  0  0
  5 14  1  0  0  0  0
 14 15  2  0  0  0  0
  2 15  1  0  0  0  0
 15 16  1  0  0  0  0
 16 17  2  0  0  0  0
 17 18  1  0  0  0  0
 18 19  2  0  0  0  0
 19 20  1  0  0  0  0
 20 21  2  0  0  0  0
 16 21  1  0  0  0  0
 21 22  1  0  0  0  0
 22 23  2  0  0  0  0
 14 23  1  0  0  0  0
 19 24  1  0  0  0  0
 24 25  1  0  0  0  0
 25 26  1  0  0  0  0
 18 26  1  0  0  0  0
  1 27  1  0  0  0  0
  1 28  1  0  0  0  0
  1 29  1  0  0  0  0
  3 30  1  0  0  0  0
  3 31  1  0  0  0  0
  6 32  1  0  0  0  0
  7 33  1  0  0  0  0
 11 34  1  0  0  0  0
 11 35  1  0  0  0  0
 11 36  1  0  0  0  0
 13 37  1  0  0  0  0
 13 38  1  0  0  0  0
 13 39  1  0  0  0  0
 17 40  1  0  0  0  0
 20 41  1  0  0  0  0
 22 42  1  0  0  0  0
 23 43  1  0  0  0  0
 25 44  1  0  0  0  0
 25 45  1  0  0  0  0
M  END
$$$$
