C25H24O6
APtclcactv06211804363D 0   0.00000     0.00000
 
 55 58  0  0  0  0  0  0  0  0999 V2000
    5.9837    2.0126    0.0047 C   0  0  0  0  0  0  0  0  0  0  0  0
    4.8600    2.4276    0.9190 C   0  0  0  0  0  0  0  0  0  0  0  0
    3.6247    2.4217    0.4830 C   0  0  0  0  0  0  0  0  0  0  0  0
    3.3124    1.8817   -0.8889 C   0  0  0  0  0  0  0  0  0  0  0  0
    2.2424    0.8260   -0.7816 C   0  0  0  0  0  0  0  0  0  0  0  0
    0.9077    1.1825   -0.8713 C   0  0  0  0  0  0  0  0  0  0  0  0
   -0.0869    0.2005   -0.7703 C   0  0  0  0  0  0  0  0  0  0  0  0
    0.2564   -1.1497   -0.5847 C   0  0  0  0  0  0  0  0  0  0  0  0
    1.6083   -1.4914   -0.4944 C   0  0  0  0  0  0  0  0  0  0  0  0
    2.5958   -0.5021   -0.5988 C   0  0  0  0  0  0  0  0  0  0  0  0
    3.8993   -0.8703   -0.5080 O   0  0  0  0  0  0  0  0  0  0  0  0
    4.2096   -1.9561    0.3658 C   0  0  0  0  0  0  0  0  0  0  0  0
    3.2811   -3.1157    0.1178 C   0  0  0  0  0  0  0  0  0  0  0  0
    2.0325   -2.8928   -0.2942 C   0  0  0  0  0  0  0  0  0  0  0  0
    5.6523   -2.4036    0.1222 C   0  0  0  0  0  0  0  0  0  0  0  0
    4.0636   -1.4939    1.8170 C   0  0  0  0  0  0  0  0  0  0  0  0
   -0.6989   -2.0935   -0.5049 O   0  0  0  0  0  0  0  0  0  0  0  0
   -1.9745   -1.7736   -0.2864 C   0  0  0  0  0  0  0  0  0  0  0  0
   -2.4584   -0.5139   -0.4384 C   0  0  0  0  0  0  0  0  0  0  0  0
   -1.5167    0.5466   -0.8475 C   0  0  0  0  0  0  0  0  0  0  0  0
   -1.8984    1.6411   -1.2254 O   0  0  0  0  0  0  0  0  0  0  0  0
   -3.8913   -0.2127   -0.2013 C   0  0  0  0  0  0  0  0  0  0  0  0
   -4.4313   -0.3499    1.0762 C   0  0  0  0  0  0  0  0  0  0  0  0
   -5.7682   -0.0675    1.2932 C   0  0  0  0  0  0  0  0  0  0  0  0
   -6.5710    0.3528    0.2362 C   0  0  0  0  0  0  0  0  0  0  0  0
   -6.0331    0.4885   -1.0344 C   0  0  0  0  0  0  0  0  0  0  0  0
   -4.6985    0.2135   -1.2546 C   0  0  0  0  0  0  0  0  0  0  0  0
   -7.8851    0.6302    0.4503 O   0  0  0  0  0  0  0  0  0  0  0  0
   -6.2981   -0.2008    2.5386 O   0  0  0  0  0  0  0  0  0  0  0  0
    0.5630    2.4815   -1.0564 O   0  0  0  0  0  0  0  0  0  0  0  0
    5.1573    2.8494    2.3349 C   0  0  0  0  0  0  0  0  0  0  0  0
    5.9522    2.6121   -0.9051 H   0  0  0  0  0  0  0  0  0  0  0  0
    6.9379    2.1668    0.5086 H   0  0  0  0  0  0  0  0  0  0  0  0
    5.8739    0.9586   -0.2508 H   0  0  0  0  0  0  0  0  0  0  0  0
    2.8300    2.8038    1.1066 H   0  0  0  0  0  0  0  0  0  0  0  0
    2.9603    2.6923   -1.5269 H   0  0  0  0  0  0  0  0  0  0  0  0
    4.2125    1.4442   -1.3207 H   0  0  0  0  0  0  0  0  0  0  0  0
    3.6273   -4.1274    0.2695 H   0  0  0  0  0  0  0  0  0  0  0  0
    1.3503   -3.7117   -0.4684 H   0  0  0  0  0  0  0  0  0  0  0  0
    6.3288   -1.5718    0.3188 H   0  0  0  0  0  0  0  0  0  0  0  0
    5.8929   -3.2326    0.7877 H   0  0  0  0  0  0  0  0  0  0  0  0
    5.7631   -2.7251   -0.9134 H   0  0  0  0  0  0  0  0  0  0  0  0
    3.0391   -1.1653    1.9923 H   0  0  0  0  0  0  0  0  0  0  0  0
    4.2998   -2.3204    2.4871 H   0  0  0  0  0  0  0  0  0  0  0  0
    4.7477   -0.6665    2.0054 H   0  0  0  0  0  0  0  0  0  0  0  0
   -2.6544   -2.5523    0.0264 H   0  0  0  0  0  0  0  0  0  0  0  0
   -3.8074   -0.6763    1.8950 H   0  0  0  0  0  0  0  0  0  0  0  0
   -6.6584    0.8140   -1.8525 H   0  0  0  0  0  0  0  0  0  0  0  0
   -4.2817    0.3199   -2.2453 H   0  0  0  0  0  0  0  0  0  0  0  0
   -8.0588    1.5509    0.6896 H   0  0  0  0  0  0  0  0  0  0  0  0
   -6.2449    0.6010    3.0766 H   0  0  0  0  0  0  0  0  0  0  0  0
    0.4905    2.7407   -1.9851 H   0  0  0  0  0  0  0  0  0  0  0  0
    5.3345    3.9245    2.3641 H   0  0  0  0  0  0  0  0  0  0  0  0
    4.3085    2.6036    2.9730 H   0  0  0  0  0  0  0  0  0  0  0  0
    6.0439    2.3252    2.6916 H   0  0  0  0  0  0  0  0  0  0  0  0
  1  2  1  0  0  0  0
  2  3  2  0  0  0  0
  3  4  1  0  0  0  0
  4  5  1  0  0  0  0
  5  6  2  0  0  0  0
  6  7  1  0  0  0  0
  7  8  2  0  0  0  0
  8  9  1  0  0  0  0
  9 10  2  0  0  0  0
  5 10  1  0  0  0  0
 10 11  1  0  0  0  0
 11 12  1  0  0  0  0
 12 13  1  0  0  0  0
 13 14  2  0  0  0  0
  9 14  1  0  0  0  0
 12 15  1  0  0  0  0
 12 16  1  0  0  0  0
  8 17  1  0  0  0  0
 17 18  1  0  0  0  0
 18 19  2  0  0  0  0
 19 20  1  0  0  0  0
  7 20  1  0  0  0  0
 20 21  2  0  0  0  0
 19 22  1  0  0  0  0
 22 23  2  0  0  0  0
 23 24  1  0  0  0  0
 24 25  2  0  0  0  0
 25 26  1  0  0  0  0
 26 27  2  0  0  0  0
 22 27  1  0  0  0  0
 25 28  1  0  0  0  0
 24 29  1  0  0  0  0
  6 30  1  0  0  0  0
  2 31  1  0  0  0  0
  1 32  1  0  0  0  0
  1 33  1  0  0  0  0
  1 34  1  0  0  0  0
  3 35  1  0  0  0  0
  4 36  1  0  0  0  0
  4 37  1  0  0  0  0
 13 38  1  0  0  0  0
 14 39  1  0  0  0  0
 15 40  1  0  0  0  0
 15 41  1  0  0  0  0
 15 42  1  0  0  0  0
 16 43  1  0  0  0  0
 16 44  1  0  0  0  0
 16 45  1  0  0  0  0
 18 46  1  0  0  0  0
 23 47  1  0  0  0  0
 26 48  1  0  0  0  0
 27 49  1  0  0  0  0
 28 50  1  0  0  0  0
 29 51  1  0  0  0  0
 30 52  1  0  0  0  0
 31 53  1  0  0  0  0
 31 54  1  0  0  0  0
 31 55  1  0  0  0  0
M  END
$$$$
