C27H41NO
APtclcactv06221815503D 0   0.00000     0.00000
 
 70 75  0  0  0  0  0  0  0  0999 V2000
    7.5048    1.2523   -0.3708 C   0  0  0  0  0  0  0  0  0  0  0  0
    6.3556    0.2423   -0.3645 C   0  0  0  0  0  0  0  0  0  0  0  0
    5.6028    0.3335    0.9650 C   0  0  0  0  0  0  0  0  0  0  0  0
    4.4368   -0.6605    0.9439 C   0  0  0  0  0  0  0  0  0  0  0  0
    3.5444   -0.3656   -0.2511 C   0  0  0  0  0  0  0  0  0  0  0  0
    2.3593   -1.3661   -0.2800 C   0  0  0  0  0  0  0  0  0  0  0  0
    1.5437   -0.8316    0.8702 C   0  0  0  0  0  0  0  0  0  0  0  0
    1.8960    0.6633    0.9291 C   0  0  0  0  0  0  0  0  0  0  0  0
    2.8778    0.9028   -0.0925 O   0  0  0  0  0  0  0  0  0  0  0  0
    0.6103    1.4387    0.6133 C   0  0  0  0  0  0  0  0  0  0  0  0
   -0.2931    0.3751   -0.0328 C   0  0  0  0  0  0  0  0  0  0  0  0
    0.0254   -0.8500    0.8058 C   0  0  0  0  0  0  0  0  0  0  0  0
   -0.6856   -2.0778    0.2843 C   0  0  0  0  0  0  0  0  0  0  0  0
   -2.1719   -1.8302    0.0654 C   0  0  0  0  0  0  0  0  0  0  0  0
   -2.6386   -0.4419    0.4607 C   0  0  0  0  0  0  0  0  0  0  0  0
   -1.7739    0.6545   -0.1418 C   0  0  0  0  0  0  0  0  0  0  0  0
   -2.2068    1.9861    0.4752 C   0  0  0  0  0  0  0  0  0  0  0  0
   -3.6230    2.2224    0.0255 C   0  0  0  0  0  0  0  0  0  0  0  0
   -4.4803    1.2320   -0.1513 C   0  0  0  0  0  0  0  0  0  0  0  0
   -4.1213   -0.2040    0.1298 C   0  0  0  0  0  0  0  0  0  0  0  0
   -4.6413   -1.0486   -1.0278 C   0  0  0  0  0  0  0  0  0  0  0  0
   -6.1573   -0.8844   -1.1400 C   0  0  0  0  0  0  0  0  0  0  0  0
   -6.6078    0.5479   -1.1028 C   0  0  0  0  0  0  0  0  0  0  0  0
   -5.8374    1.5249   -0.6537 C   0  0  0  0  0  0  0  0  0  0  0  0
   -4.8922   -0.6096    1.3889 C   0  0  0  0  0  0  0  0  0  0  0  0
   -0.3932   -0.6306    2.2838 C   0  0  0  0  0  0  0  0  0  0  0  0
    1.7380   -1.3787   -1.6666 C   0  0  0  0  0  0  0  0  0  0  0  0
    4.2890   -0.4194   -1.5033 N   0  0  0  0  0  0  0  0  0  0  0  0
    5.3925    0.5542   -1.5123 C   0  0  0  0  0  0  0  0  0  0  0  0
    8.1879    1.0306    0.4492 H   0  0  0  0  0  0  0  0  0  0  0  0
    8.0407    1.1871   -1.3177 H   0  0  0  0  0  0  0  0  0  0  0  0
    7.1047    2.2588   -0.2483 H   0  0  0  0  0  0  0  0  0  0  0  0
    6.7556   -0.7643   -0.4874 H   0  0  0  0  0  0  0  0  0  0  0  0
    6.2772    0.0859    1.7852 H   0  0  0  0  0  0  0  0  0  0  0  0
    5.2188    1.3442    1.1005 H   0  0  0  0  0  0  0  0  0  0  0  0
    4.8294   -1.6758    0.8654 H   0  0  0  0  0  0  0  0  0  0  0  0
    3.8651   -0.5675    1.8667 H   0  0  0  0  0  0  0  0  0  0  0  0
    2.7510   -2.3733   -0.0462 H   0  0  0  0  0  0  0  0  0  0  0  0
    1.8658   -1.3133    1.8278 H   0  0  0  0  0  0  0  0  0  0  0  0
    2.2866    0.9277    1.9136 H   0  0  0  0  0  0  0  0  0  0  0  0
    0.1624    1.8600    1.5098 H   0  0  0  0  0  0  0  0  0  0  0  0
    0.8161    2.2416   -0.1048 H   0  0  0  0  0  0  0  0  0  0  0  0
    0.0677    0.2401   -1.0723 H   0  0  0  0  0  0  0  0  0  0  0  0
   -0.2479   -2.4447   -0.6453 H   0  0  0  0  0  0  0  0  0  0  0  0
   -0.5740   -2.8941    1.0230 H   0  0  0  0  0  0  0  0  0  0  0  0
   -2.3965   -1.9982   -0.9992 H   0  0  0  0  0  0  0  0  0  0  0  0
   -2.7403   -2.5825    0.6309 H   0  0  0  0  0  0  0  0  0  0  0  0
   -2.6241   -0.3521    1.5477 H   0  0  0  0  0  0  0  0  0  0  0  0
   -2.0243    0.7122   -1.2264 H   0  0  0  0  0  0  0  0  0  0  0  0
   -2.1673    1.9286    1.5602 H   0  0  0  0  0  0  0  0  0  0  0  0
   -1.5670    2.7894    0.1143 H   0  0  0  0  0  0  0  0  0  0  0  0
   -3.9466    3.2359   -0.1588 H   0  0  0  0  0  0  0  0  0  0  0  0
   -4.1699   -0.7307   -1.9598 H   0  0  0  0  0  0  0  0  0  0  0  0
   -4.4082   -2.1019   -0.8522 H   0  0  0  0  0  0  0  0  0  0  0  0
   -6.4730   -1.3132   -2.0991 H   0  0  0  0  0  0  0  0  0  0  0  0
   -6.6549   -1.4442   -0.3538 H   0  0  0  0  0  0  0  0  0  0  0  0
   -7.6013    0.7886   -1.4544 H   0  0  0  0  0  0  0  0  0  0  0  0
   -6.2035    2.5416   -0.6535 H   0  0  0  0  0  0  0  0  0  0  0  0
   -5.9622   -0.5047    1.2094 H   0  0  0  0  0  0  0  0  0  0  0  0
   -4.6651   -1.6468    1.6356 H   0  0  0  0  0  0  0  0  0  0  0  0
   -4.5980    0.0338    2.2181 H   0  0  0  0  0  0  0  0  0  0  0  0
   -1.3595   -0.1275    2.3168 H   0  0  0  0  0  0  0  0  0  0  0  0
   -0.4680   -1.5945    2.7871 H   0  0  0  0  0  0  0  0  0  0  0  0
    0.3540   -0.0157    2.7856 H   0  0  0  0  0  0  0  0  0  0  0  0
    2.4867   -1.6843   -2.3975 H   0  0  0  0  0  0  0  0  0  0  0  0
    0.9046   -2.0809   -1.6850 H   0  0  0  0  0  0  0  0  0  0  0  0
    1.3771   -0.3799   -1.9121 H   0  0  0  0  0  0  0  0  0  0  0  0
    4.6452   -1.3507   -1.6749 H   0  0  0  0  0  0  0  0  0  0  0  0
    4.9912    1.5591   -1.3868 H   0  0  0  0  0  0  0  0  0  0  0  0
    5.9256    0.4898   -2.4606 H   0  0  0  0  0  0  0  0  0  0  0  0
  1  2  1  0  0  0  0
  2  3  1  0  0  0  0
  3  4  1  0  0  0  0
  4  5  1  0  0  0  0
  5  6  1  0  0  0  0
  6  7  1  0  0  0  0
  7  8  1  0  0  0  0
  8  9  1  0  0  0  0
  5  9  1  0  0  0  0
  8 10  1  0  0  0  0
 10 11  1  0  0  0  0
 11 12  1  0  0  0  0
  7 12  1  0  0  0  0
 12 13  1  0  0  0  0
 13 14  1  0  0  0  0
 14 15  1  0  0  0  0
 15 16  1  0  0  0  0
 11 16  1  0  0  0  0
 16 17  1  0  0  0  0
 17 18  1  0  0  0  0
 18 19  2  0  0  0  0
 19 20  1  0  0  0  0
 15 20  1  0  0  0  0
 20 21  1  0  0  0  0
 21 22  1  0  0  0  0
 22 23  1  0  0  0  0
 23 24  2  0  0  0  0
 19 24  1  0  0  0  0
 20 25  1  0  0  0  0
 12 26  1  0  0  0  0
  6 27  1  0  0  0  0
  5 28  1  0  0  0  0
 28 29  1  0  0  0  0
  2 29  1  0  0  0  0
  1 30  1  0  0  0  0
  1 31  1  0  0  0  0
  1 32  1  0  0  0  0
  2 33  1  0  0  0  0
  3 34  1  0  0  0  0
  3 35  1  0  0  0  0
  4 36  1  0  0  0  0
  4 37  1  0  0  0  0
  6 38  1  0  0  0  0
  7 39  1  0  0  0  0
  8 40  1  0  0  0  0
 10 41  1  0  0  0  0
 10 42  1  0  0  0  0
 11 43  1  0  0  0  0
 13 44  1  0  0  0  0
 13 45  1  0  0  0  0
 14 46  1  0  0  0  0
 14 47  1  0  0  0  0
 15 48  1  0  0  0  0
 16 49  1  0  0  0  0
 17 50  1  0  0  0  0
 17 51  1  0  0  0  0
 18 52  1  0  0  0  0
 21 53  1  0  0  0  0
 21 54  1  0  0  0  0
 22 55  1  0  0  0  0
 22 56  1  0  0  0  0
 23 57  1  0  0  0  0
 24 58  1  0  0  0  0
 25 59  1  0  0  0  0
 25 60  1  0  0  0  0
 25 61  1  0  0  0  0
 26 62  1  0  0  0  0
 26 63  1  0  0  0  0
 26 64  1  0  0  0  0
 27 65  1  0  0  0  0
 27 66  1  0  0  0  0
 27 67  1  0  0  0  0
 28 68  1  0  0  0  0
 29 69  1  0  0  0  0
 29 70  1  0  0  0  0
M  END
$$$$
