C5H11N3O2
APtclcactv06211804303D 0   0.00000     0.00000
 
 21 20  0  0  0  0  0  0  0  0999 V2000
   -0.4944   -0.2322    0.2937 C   0  0  0  0  0  0  0  0  0  0  0  0
   -1.7233    0.6789    0.3171 C   0  0  0  0  0  0  0  0  0  0  0  0
   -2.9341   -0.0993   -0.1296 C   0  0  0  0  0  0  0  0  0  0  0  0
   -2.8252   -1.2632   -0.4352 O   0  0  0  0  0  0  0  0  0  0  0  0
   -4.1335    0.5006   -0.1878 O   0  0  0  0  0  0  0  0  0  0  0  0
    0.7349    0.5578    0.7472 C   0  0  0  0  0  0  0  0  0  0  0  0
    1.9116   -0.3145    0.7248 N   0  0  0  0  0  0  0  0  0  0  0  0
    2.9046   -0.0490   -0.0768 C   0  0  0  0  0  0  0  0  0  0  0  0
    2.9067    1.1166   -0.8059 N   0  0  0  0  0  0  0  0  0  0  0  0
    3.9498   -0.9345   -0.1931 N   0  0  0  0  0  0  0  0  0  0  0  0
   -0.6536   -1.0745    0.9670 H   0  0  0  0  0  0  0  0  0  0  0  0
   -0.3353   -0.6018   -0.7193 H   0  0  0  0  0  0  0  0  0  0  0  0
   -1.8823    1.0485    1.3301 H   0  0  0  0  0  0  0  0  0  0  0  0
   -1.5640    1.5212   -0.3562 H   0  0  0  0  0  0  0  0  0  0  0  0
   -4.8806   -0.0393   -0.4802 H   0  0  0  0  0  0  0  0  0  0  0  0
    0.8942    1.4001    0.0739 H   0  0  0  0  0  0  0  0  0  0  0  0
    0.5759    0.9275    1.7602 H   0  0  0  0  0  0  0  0  0  0  0  0
    2.2484    1.8049   -0.6220 H   0  0  0  0  0  0  0  0  0  0  0  0
    3.5665    1.2507   -1.5042 H   0  0  0  0  0  0  0  0  0  0  0  0
    3.9483   -1.7569    0.3213 H   0  0  0  0  0  0  0  0  0  0  0  0
    4.6888   -0.7369   -0.7896 H   0  0  0  0  0  0  0  0  0  0  0  0
  1  2  1  0  0  0  0
  2  3  1  0  0  0  0
  3  4  2  0  0  0  0
  3  5  1  0  0  0  0
  1  6  1  0  0  0  0
  6  7  1  0  0  0  0
  7  8  2  0  0  0  0
  8  9  1  0  0  0  0
  8 10  1  0  0  0  0
  1 11  1  0  0  0  0
  1 12  1  0  0  0  0
  2 13  1  0  0  0  0
  2 14  1  0  0  0  0
  5 15  1  0  0  0  0
  6 16  1  0  0  0  0
  6 17  1  0  0  0  0
  9 18  1  0  0  0  0
  9 19  1  0  0  0  0
 10 20  1  0  0  0  0
 10 21  1  0  0  0  0
M  END
$$$$
