C22H30O5
APtclcactv06221815503D 0   0.00000     0.00000
 
 57 60  0  0  0  0  0  0  0  0999 V2000
    0.1660    5.0039   -0.9625 C   0  0  0  0  0  0  0  0  0  0  0  0
   -0.1031    4.0002    0.1605 C   0  0  0  0  0  0  0  0  0  0  0  0
    0.0943    2.6726   -0.3299 O   0  0  0  0  0  0  0  0  0  0  0  0
   -0.0353    1.6588    0.6688 C   0  0  0  0  0  0  0  0  0  0  0  0
   -1.5003    1.2306    0.7586 C   0  0  0  0  0  0  0  0  0  0  0  0
   -1.8024    0.3629   -0.5037 C   0  0  0  0  0  0  0  0  0  0  0  0
   -3.3206    0.1916   -0.5795 C   0  0  0  0  0  0  0  0  0  0  0  0
   -3.6775   -1.0105   -1.4519 C   0  0  0  0  0  0  0  0  0  0  0  0
   -3.1059   -2.2791   -0.8111 C   0  0  0  0  0  0  0  0  0  0  0  0
   -1.5806   -2.1606   -0.7682 C   0  0  0  0  0  0  0  0  0  0  0  0
   -1.1524   -0.9450    0.0051 C   0  0  0  0  0  0  0  0  0  0  0  0
    0.3432   -0.7398   -0.0137 C   0  0  0  0  0  0  0  0  0  0  0  0
    1.1831   -1.7856   -0.3520 C   0  0  0  0  0  0  0  0  0  0  0  0
    2.5619   -1.5910   -0.3590 C   0  0  0  0  0  0  0  0  0  0  0  0
    3.0793   -0.3498   -0.0264 C   0  0  0  0  0  0  0  0  0  0  0  0
    2.2322    0.6892    0.3067 C   0  0  0  0  0  0  0  0  0  0  0  0
    0.8589    0.5001    0.3127 C   0  0  0  0  0  0  0  0  0  0  0  0
    4.5706   -0.1325   -0.0275 C   0  0  0  0  0  0  0  0  0  0  0  0
    4.9246    0.9696   -1.0280 C   0  0  0  0  0  0  0  0  0  0  0  0
    5.0263    0.2839    1.3724 C   0  0  0  0  0  0  0  0  0  0  0  0
    3.3954   -2.6131   -0.6908 O   0  0  0  0  0  0  0  0  0  0  0  0
    0.6639   -3.0000   -0.6762 O   0  0  0  0  0  0  0  0  0  0  0  0
   -1.5723   -0.9726    1.4618 C   0  0  0  0  0  0  0  0  0  0  0  0
   -1.7652   -1.9592    2.1321 O   0  0  0  0  0  0  0  0  0  0  0  0
   -1.6904    0.3071    1.8717 O   0  0  0  0  0  0  0  0  0  0  0  0
   -3.8768   -0.0228    0.8297 C   0  0  0  0  0  0  0  0  0  0  0  0
   -3.9432    1.4544   -1.1784 C   0  0  0  0  0  0  0  0  0  0  0  0
    0.0154    6.0166   -0.5884 H   0  0  0  0  0  0  0  0  0  0  0  0
    1.1934    4.8939   -1.3096 H   0  0  0  0  0  0  0  0  0  0  0  0
   -0.5190    4.8164   -1.7893 H   0  0  0  0  0  0  0  0  0  0  0  0
    0.5819    4.1877    0.9873 H   0  0  0  0  0  0  0  0  0  0  0  0
   -1.1305    4.1103    0.5076 H   0  0  0  0  0  0  0  0  0  0  0  0
    0.2764    2.0652    1.6310 H   0  0  0  0  0  0  0  0  0  0  0  0
   -2.1641    2.0930    0.8200 H   0  0  0  0  0  0  0  0  0  0  0  0
   -1.3671    0.7559   -1.4225 H   0  0  0  0  0  0  0  0  0  0  0  0
   -4.7614   -1.0970   -1.5281 H   0  0  0  0  0  0  0  0  0  0  0  0
   -3.2499   -0.8795   -2.4459 H   0  0  0  0  0  0  0  0  0  0  0  0
   -3.4933   -2.3836    0.2023 H   0  0  0  0  0  0  0  0  0  0  0  0
   -3.3886   -3.1483   -1.4050 H   0  0  0  0  0  0  0  0  0  0  0  0
   -1.1662   -3.0502   -0.2939 H   0  0  0  0  0  0  0  0  0  0  0  0
   -1.1989   -2.0891   -1.7867 H   0  0  0  0  0  0  0  0  0  0  0  0
    2.6423    1.6546    0.5641 H   0  0  0  0  0  0  0  0  0  0  0  0
    5.0723   -1.0572   -0.3129 H   0  0  0  0  0  0  0  0  0  0  0  0
    4.4230    1.8942   -0.7426 H   0  0  0  0  0  0  0  0  0  0  0  0
    6.0033    1.1267   -1.0288 H   0  0  0  0  0  0  0  0  0  0  0  0
    4.5999    0.6729   -2.0253 H   0  0  0  0  0  0  0  0  0  0  0  0
    4.7741   -0.5012    2.0852 H   0  0  0  0  0  0  0  0  0  0  0  0
    6.1049    0.4411    1.3716 H   0  0  0  0  0  0  0  0  0  0  0  0
    4.5247    1.2086    1.6578 H   0  0  0  0  0  0  0  0  0  0  0  0
    3.5978   -2.6649   -1.6350 H   0  0  0  0  0  0  0  0  0  0  0  0
    0.4748   -3.1080   -1.6184 H   0  0  0  0  0  0  0  0  0  0  0  0
   -3.5283    0.7769    1.4834 H   0  0  0  0  0  0  0  0  0  0  0  0
   -4.9662   -0.0153    0.7954 H   0  0  0  0  0  0  0  0  0  0  0  0
   -3.5320   -0.9826    1.2142 H   0  0  0  0  0  0  0  0  0  0  0  0
   -3.5441    1.6164   -2.1797 H   0  0  0  0  0  0  0  0  0  0  0  0
   -5.0252    1.3350   -1.2336 H   0  0  0  0  0  0  0  0  0  0  0  0
   -3.7038    2.3113   -0.5488 H   0  0  0  0  0  0  0  0  0  0  0  0
  1  2  1  0  0  0  0
  2  3  1  0  0  0  0
  3  4  1  0  0  0  0
  4  5  1  0  0  0  0
  5  6  1  0  0  0  0
  6  7  1  0  0  0  0
  7  8  1  0  0  0  0
  8  9  1  0  0  0  0
  9 10  1  0  0  0  0
 10 11  1  0  0  0  0
  6 11  1  0  0  0  0
 11 12  1  0  0  0  0
 12 13  2  0  0  0  0
 13 14  1  0  0  0  0
 14 15  2  0  0  0  0
 15 16  1  0  0  0  0
 16 17  2  0  0  0  0
  4 17  1  0  0  0  0
 12 17  1  0  0  0  0
 15 18  1  0  0  0  0
 18 19  1  0  0  0  0
 18 20  1  0  0  0  0
 14 21  1  0  0  0  0
 13 22  1  0  0  0  0
 11 23  1  0  0  0  0
 23 24  2  0  0  0  0
 23 25  1  0  0  0  0
  5 25  1  0  0  0  0
  7 26  1  0  0  0  0
  7 27  1  0  0  0  0
  1 28  1  0  0  0  0
  1 29  1  0  0  0  0
  1 30  1  0  0  0  0
  2 31  1  0  0  0  0
  2 32  1  0  0  0  0
  4 33  1  0  0  0  0
  5 34  1  0  0  0  0
  6 35  1  0  0  0  0
  8 36  1  0  0  0  0
  8 37  1  0  0  0  0
  9 38  1  0  0  0  0
  9 39  1  0  0  0  0
 10 40  1  0  0  0  0
 10 41  1  0  0  0  0
 16 42  1  0  0  0  0
 18 43  1  0  0  0  0
 19 44  1  0  0  0  0
 19 45  1  0  0  0  0
 19 46  1  0  0  0  0
 20 47  1  0  0  0  0
 20 48  1  0  0  0  0
 20 49  1  0  0  0  0
 21 50  1  0  0  0  0
 22 51  1  0  0  0  0
 26 52  1  0  0  0  0
 26 53  1  0  0  0  0
 26 54  1  0  0  0  0
 27 55  1  0  0  0  0
 27 56  1  0  0  0  0
 27 57  1  0  0  0  0
M  END
$$$$
