C30H48O3
APtclcactv06221815503D 0   0.00000     0.00000
 
 81 85  0  0  0  0  0  0  0  0999 V2000
   -6.0016    1.4871    0.5923 C   0  0  0  0  0  0  0  0  0  0  0  0
   -5.3574    0.2564   -0.0925 C   0  0  0  0  0  0  0  0  0  0  0  0
   -3.8592    0.4592   -0.1046 C   0  0  0  0  0  0  0  0  0  0  0  0
   -3.4046    1.5582   -1.0662 C   0  0  0  0  0  0  0  0  0  0  0  0
   -1.9666    1.9288   -0.7048 C   0  0  0  0  0  0  0  0  0  0  0  0
   -1.1385    0.7516   -0.2619 C   0  0  0  0  0  0  0  0  0  0  0  0
   -1.5695   -0.4671   -0.1341 C   0  0  0  0  0  0  0  0  0  0  0  0
   -3.0401   -0.7853   -0.3853 C   0  0  0  0  0  0  0  0  0  0  0  0
   -3.4625   -1.9333    0.5253 C   0  0  0  0  0  0  0  0  0  0  0  0
   -4.9572   -2.2030    0.3538 C   0  0  0  0  0  0  0  0  0  0  0  0
   -5.7548   -0.9634    0.7396 C   0  0  0  0  0  0  0  0  0  0  0  0
   -5.5445   -0.6755    2.1252 O   0  0  0  0  0  0  0  0  0  0  0  0
   -3.1482   -1.2407   -1.8389 C   0  0  0  0  0  0  0  0  0  0  0  0
   -0.7133   -1.6455    0.2445 C   0  0  0  0  0  0  0  0  0  0  0  0
    0.7374   -1.3177    0.5565 C   0  0  0  0  0  0  0  0  0  0  0  0
    1.1833   -0.0901   -0.2393 C   0  0  0  0  0  0  0  0  0  0  0  0
    0.3044    1.0827    0.1355 C   0  0  0  0  0  0  0  0  0  0  0  0
    0.7304    2.3714   -0.5300 C   0  0  0  0  0  0  0  0  0  0  0  0
    2.2305    2.5693   -0.6763 C   0  0  0  0  0  0  0  0  0  0  0  0
    3.0770    1.6027    0.1317 C   0  0  0  0  0  0  0  0  0  0  0  0
    2.6631    0.1635   -0.1057 C   0  0  0  0  0  0  0  0  0  0  0  0
    3.4037   -0.7710    0.8336 C   0  0  0  0  0  0  0  0  0  0  0  0
    4.9132   -0.6607    0.6216 C   0  0  0  0  0  0  0  0  0  0  0  0
    5.4108    0.7703    0.4999 C   0  0  0  0  0  0  0  0  0  0  0  0
    4.5421    1.6705   -0.3658 C   0  0  0  0  0  0  0  0  0  0  0  0
    5.6100   -1.3152    1.8311 C   0  0  0  0  0  0  0  0  0  0  0  0
    5.3084   -1.4412   -0.6111 C   0  0  0  0  0  0  0  0  0  0  0  0
    4.4667   -2.0248   -1.2522 O   0  0  0  0  0  0  0  0  0  0  0  0
    6.5942   -1.4860   -0.9936 O   0  0  0  0  0  0  0  0  0  0  0  0
    3.1133    2.0099    1.6007 C   0  0  0  0  0  0  0  0  0  0  0  0
    0.2194    1.2701    1.6539 C   0  0  0  0  0  0  0  0  0  0  0  0
    0.9315   -0.4064   -1.7403 C   0  0  0  0  0  0  0  0  0  0  0  0
   -5.9561    0.1562   -1.4941 C   0  0  0  0  0  0  0  0  0  0  0  0
   -5.7483    2.3879    0.0334 H   0  0  0  0  0  0  0  0  0  0  0  0
   -7.0846    1.3654    0.6139 H   0  0  0  0  0  0  0  0  0  0  0  0
   -5.6254    1.5741    1.6116 H   0  0  0  0  0  0  0  0  0  0  0  0
   -3.5717    0.8038    0.9181 H   0  0  0  0  0  0  0  0  0  0  0  0
   -3.4578    1.2543   -2.1046 H   0  0  0  0  0  0  0  0  0  0  0  0
   -4.0290    2.4501   -0.9337 H   0  0  0  0  0  0  0  0  0  0  0  0
   -1.5075    2.3798   -1.5878 H   0  0  0  0  0  0  0  0  0  0  0  0
   -1.9910    2.6770    0.0889 H   0  0  0  0  0  0  0  0  0  0  0  0
   -2.9002   -2.8322    0.2620 H   0  0  0  0  0  0  0  0  0  0  0  0
   -3.2496   -1.6729    1.5628 H   0  0  0  0  0  0  0  0  0  0  0  0
   -5.1830   -2.4997   -0.6657 H   0  0  0  0  0  0  0  0  0  0  0  0
   -5.2428   -3.0269    1.0209 H   0  0  0  0  0  0  0  0  0  0  0  0
   -6.8207   -1.1641    0.5876 H   0  0  0  0  0  0  0  0  0  0  0  0
   -5.8163   -1.3874    2.7205 H   0  0  0  0  0  0  0  0  0  0  0  0
   -2.4526   -2.0611   -2.0153 H   0  0  0  0  0  0  0  0  0  0  0  0
   -4.1654   -1.5773   -2.0394 H   0  0  0  0  0  0  0  0  0  0  0  0
   -2.9039   -0.4088   -2.4994 H   0  0  0  0  0  0  0  0  0  0  0  0
   -1.1501   -2.1274    1.1277 H   0  0  0  0  0  0  0  0  0  0  0  0
   -0.7413   -2.3823   -0.5657 H   0  0  0  0  0  0  0  0  0  0  0  0
    0.8868   -1.1856    1.6232 H   0  0  0  0  0  0  0  0  0  0  0  0
    1.3539   -2.1768    0.2398 H   0  0  0  0  0  0  0  0  0  0  0  0
    0.2745    2.4280   -1.5335 H   0  0  0  0  0  0  0  0  0  0  0  0
    0.3147    3.2221    0.0358 H   0  0  0  0  0  0  0  0  0  0  0  0
    2.5029    2.4798   -1.7392 H   0  0  0  0  0  0  0  0  0  0  0  0
    2.4848    3.5981   -0.3777 H   0  0  0  0  0  0  0  0  0  0  0  0
    3.0727   -0.0778   -1.1338 H   0  0  0  0  0  0  0  0  0  0  0  0
    3.1569   -0.5742    1.8739 H   0  0  0  0  0  0  0  0  0  0  0  0
    3.1093   -1.8093    0.6168 H   0  0  0  0  0  0  0  0  0  0  0  0
    5.5530    1.2016    1.4932 H   0  0  0  0  0  0  0  0  0  0  0  0
    6.4192    0.7377    0.0424 H   0  0  0  0  0  0  0  0  0  0  0  0
    4.5690    1.3437   -1.4027 H   0  0  0  0  0  0  0  0  0  0  0  0
    4.8782    2.7038   -0.2915 H   0  0  0  0  0  0  0  0  0  0  0  0
    5.3137   -2.3620    1.8984 H   0  0  0  0  0  0  0  0  0  0  0  0
    6.6909   -1.2508    1.7063 H   0  0  0  0  0  0  0  0  0  0  0  0
    5.3179   -0.7955    2.7436 H   0  0  0  0  0  0  0  0  0  0  0  0
    6.7983   -1.9978   -1.7882 H   0  0  0  0  0  0  0  0  0  0  0  0
    2.1236    2.3469    1.9089 H   0  0  0  0  0  0  0  0  0  0  0  0
    3.4113    1.1549    2.2076 H   0  0  0  0  0  0  0  0  0  0  0  0
    3.8310    2.8191    1.7358 H   0  0  0  0  0  0  0  0  0  0  0  0
    1.1988    1.0913    2.0975 H   0  0  0  0  0  0  0  0  0  0  0  0
   -0.1001    2.2881    1.8770 H   0  0  0  0  0  0  0  0  0  0  0  0
   -0.5011    0.5643    2.0673 H   0  0  0  0  0  0  0  0  0  0  0  0
   -0.1291   -0.6031   -1.8972 H   0  0  0  0  0  0  0  0  0  0  0  0
    1.2367    0.4459   -2.3474 H   0  0  0  0  0  0  0  0  0  0  0  0
    1.5103   -1.2838   -2.0287 H   0  0  0  0  0  0  0  0  0  0  0  0
   -5.6302    1.0085   -2.0902 H   0  0  0  0  0  0  0  0  0  0  0  0
   -5.6216   -0.7671   -1.9669 H   0  0  0  0  0  0  0  0  0  0  0  0
   -7.0440    0.1557   -1.4252 H   0  0  0  0  0  0  0  0  0  0  0  0
  1  2  1  0  0  0  0
  2  3  1  0  0  0  0
  3  4  1  0  0  0  0
  4  5  1  0  0  0  0
  5  6  1  0  0  0  0
  6  7  2  0  0  0  0
  7  8  1  0  0  0  0
  3  8  1  0  0  0  0
  8  9  1  0  0  0  0
  9 10  1  0  0  0  0
 10 11  1  0  0  0  0
  2 11  1  0  0  0  0
 11 12  1  0  0  0  0
  8 13  1  0  0  0  0
  7 14  1  0  0  0  0
 14 15  1  0  0  0  0
 15 16  1  0  0  0  0
 16 17  1  0  0  0  0
  6 17  1  0  0  0  0
 17 18  1  0  0  0  0
 18 19  1  0  0  0  0
 19 20  1  0  0  0  0
 20 21  1  0  0  0  0
 16 21  1  0  0  0  0
 21 22  1  0  0  0  0
 22 23  1  0  0  0  0
 23 24  1  0  0  0  0
 24 25  1  0  0  0  0
 20 25  1  0  0  0  0
 23 26  1  0  0  0  0
 23 27  1  0  0  0  0
 27 28  2  0  0  0  0
 27 29  1  0  0  0  0
 20 30  1  0  0  0  0
 17 31  1  0  0  0  0
 16 32  1  0  0  0  0
  2 33  1  0  0  0  0
  1 34  1  0  0  0  0
  1 35  1  0  0  0  0
  1 36  1  0  0  0  0
  3 37  1  0  0  0  0
  4 38  1  0  0  0  0
  4 39  1  0  0  0  0
  5 40  1  0  0  0  0
  5 41  1  0  0  0  0
  9 42  1  0  0  0  0
  9 43  1  0  0  0  0
 10 44  1  0  0  0  0
 10 45  1  0  0  0  0
 11 46  1  0  0  0  0
 12 47  1  0  0  0  0
 13 48  1  0  0  0  0
 13 49  1  0  0  0  0
 13 50  1  0  0  0  0
 14 51  1  0  0  0  0
 14 52  1  0  0  0  0
 15 53  1  0  0  0  0
 15 54  1  0  0  0  0
 18 55  1  0  0  0  0
 18 56  1  0  0  0  0
 19 57  1  0  0  0  0
 19 58  1  0  0  0  0
 21 59  1  0  0  0  0
 22 60  1  0  0  0  0
 22 61  1  0  0  0  0
 24 62  1  0  0  0  0
 24 63  1  0  0  0  0
 25 64  1  0  0  0  0
 25 65  1  0  0  0  0
 26 66  1  0  0  0  0
 26 67  1  0  0  0  0
 26 68  1  0  0  0  0
 29 69  1  0  0  0  0
 30 70  1  0  0  0  0
 30 71  1  0  0  0  0
 30 72  1  0  0  0  0
 31 73  1  0  0  0  0
 31 74  1  0  0  0  0
 31 75  1  0  0  0  0
 32 76  1  0  0  0  0
 32 77  1  0  0  0  0
 32 78  1  0  0  0  0
 33 79  1  0  0  0  0
 33 80  1  0  0  0  0
 33 81  1  0  0  0  0
M  END
$$$$
