C30H50O
APtclcactv06221813463D 0   0.00000     0.00000
 
 81 85  0  0  0  0  0  0  0  0999 V2000
    2.3960    0.3544    1.6039 C   0  0  0  0  0  0  0  0  0  0  0  0
    2.9723   -0.1688    0.2867 C   0  0  0  0  0  0  0  0  0  0  0  0
    4.4814   -0.3719    0.4353 C   0  0  0  0  0  0  0  0  0  0  0  0
    5.1629    0.9853    0.6212 C   0  0  0  0  0  0  0  0  0  0  0  0
    6.6493    0.7852    0.7675 C   0  0  0  0  0  0  0  0  0  0  0  0
    7.4765    1.4123   -0.0317 C   0  0  0  0  0  0  0  0  0  0  0  0
    6.9599    2.4734   -0.9688 C   0  0  0  0  0  0  0  0  0  0  0  0
    8.9445    1.0725   -0.0141 C   0  0  0  0  0  0  0  0  0  0  0  0
    2.3146   -1.4940   -0.0632 C   0  0  0  0  0  0  0  0  0  0  0  0
    1.9996   -2.3228    1.2097 C   0  0  0  0  0  0  0  0  0  0  0  0
    0.4767   -2.6313    1.1628 C   0  0  0  0  0  0  0  0  0  0  0  0
   -0.0683   -1.4309    0.3564 C   0  0  0  0  0  0  0  0  0  0  0  0
    0.9747   -1.3539   -0.7759 C   0  0  0  0  0  0  0  0  0  0  0  0
    0.7328   -0.2224   -1.7257 C   0  0  0  0  0  0  0  0  0  0  0  0
   -0.5925    0.4944   -1.4879 C   0  0  0  0  0  0  0  0  0  0  0  0
   -1.7491   -0.4733   -1.1942 C   0  0  0  0  0  0  0  0  0  0  0  0
   -1.4439   -1.6210   -0.2321 C   0  0  0  0  0  0  0  0  0  0  0  0
   -2.5138   -1.8781    0.7906 C   0  0  0  0  0  0  0  0  0  0  0  0
   -3.9304   -1.6638    0.3354 C   0  0  0  0  0  0  0  0  0  0  0  0
   -4.2460   -0.3429   -0.3221 C   0  0  0  0  0  0  0  0  0  0  0  0
   -3.1393    0.1455   -1.2376 C   0  0  0  0  0  0  0  0  0  0  0  0
   -2.6887   -0.8313   -2.3502 C   0  0  0  0  0  0  0  0  0  0  0  0
   -3.2871    1.5860   -1.7606 C   0  0  0  0  0  0  0  0  0  0  0  0
   -3.5900    2.5282   -0.5974 C   0  0  0  0  0  0  0  0  0  0  0  0
   -4.8920    2.0741    0.0585 C   0  0  0  0  0  0  0  0  0  0  0  0
   -4.7150    0.6929    0.6903 C   0  0  0  0  0  0  0  0  0  0  0  0
   -6.0938    0.2689    1.2344 C   0  0  0  0  0  0  0  0  0  0  0  0
   -3.7540    0.8092    1.8724 C   0  0  0  0  0  0  0  0  0  0  0  0
   -5.2698    3.0107    1.0720 O   0  0  0  0  0  0  0  0  0  0  0  0
    0.8662   -2.6387   -1.6403 C   0  0  0  0  0  0  0  0  0  0  0  0
   -0.0410   -0.2054    1.2827 C   0  0  0  0  0  0  0  0  0  0  0  0
    3.0917    1.0668    2.0474 H   0  0  0  0  0  0  0  0  0  0  0  0
    1.4431    0.8480    1.4130 H   0  0  0  0  0  0  0  0  0  0  0  0
    2.2427   -0.4787    2.2898 H   0  0  0  0  0  0  0  0  0  0  0  0
    2.7792    0.5533   -0.5066 H   0  0  0  0  0  0  0  0  0  0  0  0
    4.6798   -1.0000    1.3038 H   0  0  0  0  0  0  0  0  0  0  0  0
    4.8728   -0.8554   -0.4598 H   0  0  0  0  0  0  0  0  0  0  0  0
    4.9645    1.6134   -0.2473 H   0  0  0  0  0  0  0  0  0  0  0  0
    4.7715    1.4688    1.5163 H   0  0  0  0  0  0  0  0  0  0  0  0
    7.0327    0.1249    1.5313 H   0  0  0  0  0  0  0  0  0  0  0  0
    5.8997    2.6410   -0.7790 H   0  0  0  0  0  0  0  0  0  0  0  0
    7.5091    3.4007   -0.8059 H   0  0  0  0  0  0  0  0  0  0  0  0
    7.0972    2.1461   -1.9994 H   0  0  0  0  0  0  0  0  0  0  0  0
    9.1419    0.2765   -0.7321 H   0  0  0  0  0  0  0  0  0  0  0  0
    9.5251    1.9553   -0.2817 H   0  0  0  0  0  0  0  0  0  0  0  0
    9.2285    0.7398    0.9844 H   0  0  0  0  0  0  0  0  0  0  0  0
    2.9962   -2.0774   -0.7020 H   0  0  0  0  0  0  0  0  0  0  0  0
    2.5685   -3.2528    1.1965 H   0  0  0  0  0  0  0  0  0  0  0  0
    2.2433   -1.7493    2.1018 H   0  0  0  0  0  0  0  0  0  0  0  0
    0.2661   -3.5760    0.6854 H   0  0  0  0  0  0  0  0  0  0  0  0
    0.0600   -2.6108    2.1736 H   0  0  0  0  0  0  0  0  0  0  0  0
    1.5422    0.5061   -1.6932 H   0  0  0  0  0  0  0  0  0  0  0  0
    0.7196   -0.6301   -2.7503 H   0  0  0  0  0  0  0  0  0  0  0  0
   -0.5065    1.2498   -0.7210 H   0  0  0  0  0  0  0  0  0  0  0  0
   -0.8413    1.0242   -2.4267 H   0  0  0  0  0  0  0  0  0  0  0  0
   -1.4364   -2.5382   -0.8429 H   0  0  0  0  0  0  0  0  0  0  0  0
   -2.4212   -2.9457    1.0767 H   0  0  0  0  0  0  0  0  0  0  0  0
   -2.3162   -1.3200    1.6997 H   0  0  0  0  0  0  0  0  0  0  0  0
   -4.1705   -2.4613   -0.3942 H   0  0  0  0  0  0  0  0  0  0  0  0
   -4.6019   -1.8404    1.1814 H   0  0  0  0  0  0  0  0  0  0  0  0
   -5.1199   -0.5340   -0.9898 H   0  0  0  0  0  0  0  0  0  0  0  0
   -2.4663   -0.4038   -3.3250 H   0  0  0  0  0  0  0  0  0  0  0  0
   -3.1304   -1.8247   -2.3465 H   0  0  0  0  0  0  0  0  0  0  0  0
   -2.3758    1.9012   -2.2601 H   0  0  0  0  0  0  0  0  0  0  0  0
   -4.1158    1.6212   -2.4727 H   0  0  0  0  0  0  0  0  0  0  0  0
   -2.7681    2.5211    0.1119 H   0  0  0  0  0  0  0  0  0  0  0  0
   -3.7147    3.5446   -0.9837 H   0  0  0  0  0  0  0  0  0  0  0  0
   -5.6822    2.0249   -0.6940 H   0  0  0  0  0  0  0  0  0  0  0  0
   -6.8113    0.2295    0.4148 H   0  0  0  0  0  0  0  0  0  0  0  0
   -6.0152   -0.7153    1.6962 H   0  0  0  0  0  0  0  0  0  0  0  0
   -6.4296    0.9929    1.9768 H   0  0  0  0  0  0  0  0  0  0  0  0
   -4.1647    1.5010    2.6078 H   0  0  0  0  0  0  0  0  0  0  0  0
   -3.6209   -0.1710    2.3302 H   0  0  0  0  0  0  0  0  0  0  0  0
   -2.7908    1.1806    1.5224 H   0  0  0  0  0  0  0  0  0  0  0  0
   -5.4147    3.9086    0.7434 H   0  0  0  0  0  0  0  0  0  0  0  0
   -0.1358   -2.7081   -2.0638 H   0  0  0  0  0  0  0  0  0  0  0  0
    1.5991   -2.5975   -2.4460 H   0  0  0  0  0  0  0  0  0  0  0  0
    1.0590   -3.5126   -1.0180 H   0  0  0  0  0  0  0  0  0  0  0  0
    0.7808   -0.3042    1.9919 H   0  0  0  0  0  0  0  0  0  0  0  0
    0.0993    0.6969    0.6874 H   0  0  0  0  0  0  0  0  0  0  0  0
   -0.9837   -0.1394    1.8258 H   0  0  0  0  0  0  0  0  0  0  0  0
  1  2  1  0  0  0  0
  2  3  1  0  0  0  0
  3  4  1  0  0  0  0
  4  5  1  0  0  0  0
  5  6  2  0  0  0  0
  6  7  1  0  0  0  0
  6  8  1  0  0  0  0
  2  9  1  0  0  0  0
  9 10  1  0  0  0  0
 10 11  1  0  0  0  0
 11 12  1  0  0  0  0
 12 13  1  0  0  0  0
  9 13  1  0  0  0  0
 13 14  1  0  0  0  0
 14 15  1  0  0  0  0
 15 16  1  0  0  0  0
 16 17  1  0  0  0  0
 12 17  1  0  0  0  0
 17 18  1  0  0  0  0
 18 19  1  0  0  0  0
 19 20  1  0  0  0  0
 20 21  1  0  0  0  0
 16 21  1  0  0  0  0
 21 22  1  0  0  0  0
 16 22  1  0  0  0  0
 21 23  1  0  0  0  0
 23 24  1  0  0  0  0
 24 25  1  0  0  0  0
 25 26  1  0  0  0  0
 20 26  1  0  0  0  0
 26 27  1  0  0  0  0
 26 28  1  0  0  0  0
 25 29  1  0  0  0  0
 13 30  1  0  0  0  0
 12 31  1  0  0  0  0
  1 32  1  0  0  0  0
  1 33  1  0  0  0  0
  1 34  1  0  0  0  0
  2 35  1  0  0  0  0
  3 36  1  0  0  0  0
  3 37  1  0  0  0  0
  4 38  1  0  0  0  0
  4 39  1  0  0  0  0
  5 40  1  0  0  0  0
  7 41  1  0  0  0  0
  7 42  1  0  0  0  0
  7 43  1  0  0  0  0
  8 44  1  0  0  0  0
  8 45  1  0  0  0  0
  8 46  1  0  0  0  0
  9 47  1  0  0  0  0
 10 48  1  0  0  0  0
 10 49  1  0  0  0  0
 11 50  1  0  0  0  0
 11 51  1  0  0  0  0
 14 52  1  0  0  0  0
 14 53  1  0  0  0  0
 15 54  1  0  0  0  0
 15 55  1  0  0  0  0
 17 56  1  0  0  0  0
 18 57  1  0  0  0  0
 18 58  1  0  0  0  0
 19 59  1  0  0  0  0
 19 60  1  0  0  0  0
 20 61  1  0  0  0  0
 22 62  1  0  0  0  0
 22 63  1  0  0  0  0
 23 64  1  0  0  0  0
 23 65  1  0  0  0  0
 24 66  1  0  0  0  0
 24 67  1  0  0  0  0
 25 68  1  0  0  0  0
 27 69  1  0  0  0  0
 27 70  1  0  0  0  0
 27 71  1  0  0  0  0
 28 72  1  0  0  0  0
 28 73  1  0  0  0  0
 28 74  1  0  0  0  0
 29 75  1  0  0  0  0
 30 76  1  0  0  0  0
 30 77  1  0  0  0  0
 30 78  1  0  0  0  0
 31 79  1  0  0  0  0
 31 80  1  0  0  0  0
 31 81  1  0  0  0  0
M  END
$$$$
