C5H13N3O
APtclcactv06211804303D 0   0.00000     0.00000
 
 22 21  0  0  0  0  0  0  0  0999 V2000
    2.1874   -0.3538   -0.0181 C   0  0  0  0  0  0  0  0  0  0  0  0
    0.9426    0.5356   -0.0019 C   0  0  0  0  0  0  0  0  0  0  0  0
   -0.3110   -0.3415   -0.0096 C   0  0  0  0  0  0  0  0  0  0  0  0
   -1.5030    0.5101    0.0060 N   0  0  0  0  0  0  0  0  0  0  0  0
   -2.7299   -0.0478    0.0025 C   0  0  0  0  0  0  0  0  0  0  0  0
   -2.8474   -1.2579   -0.0135 O   0  0  0  0  0  0  0  0  0  0  0  0
   -3.8264    0.7357    0.0168 N   0  0  0  0  0  0  0  0  0  0  0  0
    3.4410    0.5233   -0.0104 C   0  0  0  0  0  0  0  0  0  0  0  0
    4.6362   -0.3306   -0.0260 N   0  0  0  0  0  0  0  0  0  0  0  0
    2.1873   -0.9951    0.8632 H   0  0  0  0  0  0  0  0  0  0  0  0
    2.1813   -0.9710   -0.9166 H   0  0  0  0  0  0  0  0  0  0  0  0
    0.9486    1.1528    0.8965 H   0  0  0  0  0  0  0  0  0  0  0  0
    0.9427    1.1769   -0.8833 H   0  0  0  0  0  0  0  0  0  0  0  0
   -0.3171   -0.9587   -0.9080 H   0  0  0  0  0  0  0  0  0  0  0  0
   -0.3112   -0.9828    0.8718 H   0  0  0  0  0  0  0  0  0  0  0  0
   -1.4092    1.4754    0.0187 H   0  0  0  0  0  0  0  0  0  0  0  0
   -3.7327    1.7010    0.0296 H   0  0  0  0  0  0  0  0  0  0  0  0
   -4.7094    0.3341    0.0143 H   0  0  0  0  0  0  0  0  0  0  0  0
    3.4411    1.1647   -0.8918 H   0  0  0  0  0  0  0  0  0  0  0  0
    3.4471    1.1405    0.8880 H   0  0  0  0  0  0  0  0  0  0  0  0
    5.4781    0.2256   -0.0213 H   0  0  0  0  0  0  0  0  0  0  0  0
    4.6271   -0.9794    0.7466 H   0  0  0  0  0  0  0  0  0  0  0  0
  1  2  1  0  0  0  0
  2  3  1  0  0  0  0
  3  4  1  0  0  0  0
  4  5  1  0  0  0  0
  5  6  2  0  0  0  0
  5  7  1  0  0  0  0
  1  8  1  0  0  0  0
  8  9  1  0  0  0  0
  1 10  1  0  0  0  0
  1 11  1  0  0  0  0
  2 12  1  0  0  0  0
  2 13  1  0  0  0  0
  3 14  1  0  0  0  0
  3 15  1  0  0  0  0
  4 16  1  0  0  0  0
  7 17  1  0  0  0  0
  7 18  1  0  0  0  0
  8 19  1  0  0  0  0
  8 20  1  0  0  0  0
  9 21  1  0  0  0  0
  9 22  1  0  0  0  0
M  END
$$$$
