C18H32O16
APtclcactv06281816403D 0   0.00000     0.00000
 
 66 68  0  0  0  0  0  0  0  0999 V2000
   -4.0029   -2.0946   -1.5382 C   0  0  0  0  0  0  0  0  0  0  0  0
   -2.9427   -1.8535   -0.4617 C   0  0  0  0  0  0  0  0  0  0  0  0
   -2.8483   -3.0826    0.4462 C   0  0  0  0  0  0  0  0  0  0  0  0
   -1.7438   -2.8578    1.4834 C   0  0  0  0  0  0  0  0  0  0  0  0
   -0.4268   -2.5696    0.7564 C   0  0  0  0  0  0  0  0  0  0  0  0
   -0.6147   -1.3604   -0.1635 C   0  0  0  0  0  0  0  0  0  0  0  0
   -1.6766   -1.6234   -1.0830 O   0  0  0  0  0  0  0  0  0  0  0  0
   -0.9376   -0.2104    0.6210 O   0  0  0  0  0  0  0  0  0  0  0  0
   -0.7713    1.0296   -0.0694 C   0  0  0  0  0  0  0  0  0  0  0  0
   -1.7974    1.1474   -1.2181 C   0  0  0  0  0  0  0  0  0  0  0  0
   -2.9690    1.9390   -0.5951 C   0  0  0  0  0  0  0  0  0  0  0  0
   -2.5121    2.2058    0.8562 C   0  0  0  0  0  0  0  0  0  0  0  0
   -1.0703    2.1374    0.8077 O   0  0  0  0  0  0  0  0  0  0  0  0
   -2.9644    3.5951    1.3102 C   0  0  0  0  0  0  0  0  0  0  0  0
   -2.6349    3.7766    2.6888 O   0  0  0  0  0  0  0  0  0  0  0  0
   -3.1677    3.1707   -1.2919 O   0  0  0  0  0  0  0  0  0  0  0  0
   -1.2367    1.8661   -2.3186 O   0  0  0  0  0  0  0  0  0  0  0  0
    0.6537    1.1479   -0.6139 C   0  0  0  0  0  0  0  0  0  0  0  0
    1.5878    0.9506    0.4494 O   0  0  0  0  0  0  0  0  0  0  0  0
    2.9556    1.0435    0.0461 C   0  0  0  0  0  0  0  0  0  0  0  0
    3.8884    0.6569    1.2152 C   0  0  0  0  0  0  0  0  0  0  0  0
    4.1820   -0.8419    0.9815 C   0  0  0  0  0  0  0  0  0  0  0  0
    3.3918   -1.1836   -0.3012 C   0  0  0  0  0  0  0  0  0  0  0  0
    3.2413    0.0775   -0.9888 O   0  0  0  0  0  0  0  0  0  0  0  0
    4.1796   -2.1706   -1.1650 C   0  0  0  0  0  0  0  0  0  0  0  0
    3.3736   -2.5855   -2.2697 O   0  0  0  0  0  0  0  0  0  0  0  0
    5.5808   -1.0525    0.7789 O   0  0  0  0  0  0  0  0  0  0  0  0
    5.0969    1.4178    1.1642 O   0  0  0  0  0  0  0  0  0  0  0  0
    3.2711    2.4590   -0.4414 C   0  0  0  0  0  0  0  0  0  0  0  0
    2.5512    2.7187   -1.6482 O   0  0  0  0  0  0  0  0  0  0  0  0
    0.5954   -2.2868    1.7141 O   0  0  0  0  0  0  0  0  0  0  0  0
   -2.0857   -1.7451    2.3123 O   0  0  0  0  0  0  0  0  0  0  0  0
   -4.0966   -3.2807    1.1130 O   0  0  0  0  0  0  0  0  0  0  0  0
   -4.1407   -0.9213   -2.3422 O   0  0  0  0  0  0  0  0  0  0  0  0
   -3.6991   -2.9319   -2.1664 H   0  0  0  0  0  0  0  0  0  0  0  0
   -4.9570   -2.3239   -1.0636 H   0  0  0  0  0  0  0  0  0  0  0  0
   -3.2197   -0.9829    0.1328 H   0  0  0  0  0  0  0  0  0  0  0  0
   -2.6113   -3.9612   -0.1538 H   0  0  0  0  0  0  0  0  0  0  0  0
   -1.6332   -3.7514    2.0977 H   0  0  0  0  0  0  0  0  0  0  0  0
   -0.1408   -3.4379    0.1627 H   0  0  0  0  0  0  0  0  0  0  0  0
    0.3070   -1.1768   -0.7155 H   0  0  0  0  0  0  0  0  0  0  0  0
   -2.1303    0.1593   -1.5357 H   0  0  0  0  0  0  0  0  0  0  0  0
   -3.8811    1.3422   -0.6048 H   0  0  0  0  0  0  0  0  0  0  0  0
   -2.9060    1.4403    1.5248 H   0  0  0  0  0  0  0  0  0  0  0  0
   -2.4599    4.3547    0.7130 H   0  0  0  0  0  0  0  0  0  0  0  0
   -4.0426    3.6870    1.1792 H   0  0  0  0  0  0  0  0  0  0  0  0
   -2.8932    4.6377    3.0449 H   0  0  0  0  0  0  0  0  0  0  0  0
   -3.8916    3.7081   -0.9423 H   0  0  0  0  0  0  0  0  0  0  0  0
   -1.8386    1.9696   -3.0683 H   0  0  0  0  0  0  0  0  0  0  0  0
    0.8129    0.3915   -1.3824 H   0  0  0  0  0  0  0  0  0  0  0  0
    0.7970    2.1390   -1.0442 H   0  0  0  0  0  0  0  0  0  0  0  0
    3.3841    0.8029    2.1705 H   0  0  0  0  0  0  0  0  0  0  0  0
    3.8228   -1.4369    1.8212 H   0  0  0  0  0  0  0  0  0  0  0  0
    2.4154   -1.5960   -0.0469 H   0  0  0  0  0  0  0  0  0  0  0  0
    5.0836   -1.6876   -1.5360 H   0  0  0  0  0  0  0  0  0  0  0  0
    4.4517   -3.0402   -0.5668 H   0  0  0  0  0  0  0  0  0  0  0  0
    3.8104   -3.2135   -2.8613 H   0  0  0  0  0  0  0  0  0  0  0  0
    5.8215   -1.9767    0.6273 H   0  0  0  0  0  0  0  0  0  0  0  0
    5.7195    1.2152    1.8757 H   0  0  0  0  0  0  0  0  0  0  0  0
    2.9752    3.1801    0.3206 H   0  0  0  0  0  0  0  0  0  0  0  0
    4.3409    2.5482   -0.6302 H   0  0  0  0  0  0  0  0  0  0  0  0
    2.7036    3.6003   -2.0151 H   0  0  0  0  0  0  0  0  0  0  0  0
    1.4586   -2.0945    1.3229 H   0  0  0  0  0  0  0  0  0  0  0  0
   -1.4289   -1.5455    2.9934 H   0  0  0  0  0  0  0  0  0  0  0  0
   -4.1087   -4.0443    1.7062 H   0  0  0  0  0  0  0  0  0  0  0  0
   -4.8499   -0.9746   -2.9975 H   0  0  0  0  0  0  0  0  0  0  0  0
  1  2  1  0  0  0  0
  2  3  1  0  0  0  0
  3  4  1  0  0  0  0
  4  5  1  0  0  0  0
  5  6  1  0  0  0  0
  6  7  1  0  0  0  0
  2  7  1  0  0  0  0
  6  8  1  0  0  0  0
  8  9  1  0  0  0  0
  9 10  1  0  0  0  0
 10 11  1  0  0  0  0
 11 12  1  0  0  0  0
 12 13  1  0  0  0  0
  9 13  1  0  0  0  0
 12 14  1  0  0  0  0
 14 15  1  0  0  0  0
 11 16  1  0  0  0  0
 10 17  1  0  0  0  0
  9 18  1  0  0  0  0
 18 19  1  0  0  0  0
 19 20  1  0  0  0  0
 20 21  1  0  0  0  0
 21 22  1  0  0  0  0
 22 23  1  0  0  0  0
 23 24  1  0  0  0  0
 20 24  1  0  0  0  0
 23 25  1  0  0  0  0
 25 26  1  0  0  0  0
 22 27  1  0  0  0  0
 21 28  1  0  0  0  0
 20 29  1  0  0  0  0
 29 30  1  0  0  0  0
  5 31  1  0  0  0  0
  4 32  1  0  0  0  0
  3 33  1  0  0  0  0
  1 34  1  0  0  0  0
  1 35  1  0  0  0  0
  1 36  1  0  0  0  0
  2 37  1  0  0  0  0
  3 38  1  0  0  0  0
  4 39  1  0  0  0  0
  5 40  1  0  0  0  0
  6 41  1  0  0  0  0
 10 42  1  0  0  0  0
 11 43  1  0  0  0  0
 12 44  1  0  0  0  0
 14 45  1  0  0  0  0
 14 46  1  0  0  0  0
 15 47  1  0  0  0  0
 16 48  1  0  0  0  0
 17 49  1  0  0  0  0
 18 50  1  0  0  0  0
 18 51  1  0  0  0  0
 21 52  1  0  0  0  0
 22 53  1  0  0  0  0
 23 54  1  0  0  0  0
 25 55  1  0  0  0  0
 25 56  1  0  0  0  0
 26 57  1  0  0  0  0
 27 58  1  0  0  0  0
 28 59  1  0  0  0  0
 29 60  1  0  0  0  0
 29 61  1  0  0  0  0
 30 62  1  0  0  0  0
 31 63  1  0  0  0  0
 32 64  1  0  0  0  0
 33 65  1  0  0  0  0
 34 66  1  0  0  0  0
M  END
$$$$
