C6H6O2
APtclcactv06211804363D 0   0.00000     0.00000
 
 14 14  0  0  0  0  0  0  0  0999 V2000
   -0.0000   -1.7889    0.0119 C   0  0  0  0  0  0  0  0  0  0  0  0
   -1.1973   -1.0992    0.0014 C   0  0  0  0  0  0  0  0  0  0  0  0
   -1.1999    0.2883   -0.0206 C   0  0  0  0  0  0  0  0  0  0  0  0
    0.0000    0.9825   -0.0315 C   0  0  0  0  0  0  0  0  0  0  0  0
    1.2000    0.2883   -0.0205 C   0  0  0  0  0  0  0  0  0  0  0  0
    1.1973   -1.0993    0.0010 C   0  0  0  0  0  0  0  0  0  0  0  0
    2.3778    0.9660   -0.0316 O   0  0  0  0  0  0  0  0  0  0  0  0
   -2.3778    0.9660   -0.0318 O   0  0  0  0  0  0  0  0  0  0  0  0
   -0.0000   -2.8687    0.0332 H   0  0  0  0  0  0  0  0  0  0  0  0
   -2.1318   -1.6405    0.0100 H   0  0  0  0  0  0  0  0  0  0  0  0
    0.0000    2.0624   -0.0490 H   0  0  0  0  0  0  0  0  0  0  0  0
    2.1318   -1.6405    0.0096 H   0  0  0  0  0  0  0  0  0  0  0  0
    2.7189    1.1764    0.8484 H   0  0  0  0  0  0  0  0  0  0  0  0
   -2.7191    1.1762    0.8483 H   0  0  0  0  0  0  0  0  0  0  0  0
  1  2  2  0  0  0  0
  2  3  1  0  0  0  0
  3  4  2  0  0  0  0
  4  5  1  0  0  0  0
  5  6  2  0  0  0  0
  1  6  1  0  0  0  0
  5  7  1  0  0  0  0
  3  8  1  0  0  0  0
  1  9  1  0  0  0  0
  2 10  1  0  0  0  0
  4 11  1  0  0  0  0
  6 12  1  0  0  0  0
  7 13  1  0  0  0  0
  8 14  1  0  0  0  0
M  END
$$$$
