C12H10N4O2
APtclcactv06211804303D 0   0.00000     0.00000
 
 28 30  0  0  0  0  0  0  0  0999 V2000
    4.8023    1.4435    0.0020 C   0  0  0  0  0  0  0  0  0  0  0  0
    3.4771    0.7261    0.0016 C   0  0  0  0  0  0  0  0  0  0  0  0
    2.3079    1.4533    0.0007 C   0  0  0  0  0  0  0  0  0  0  0  0
    1.0812    0.7942    0.0003 C   0  0  0  0  0  0  0  0  0  0  0  0
    1.0478   -0.6185    0.0008 C   0  0  0  0  0  0  0  0  0  0  0  0
    2.2610   -1.3352    0.0018 C   0  0  0  0  0  0  0  0  0  0  0  0
    3.4463   -0.6649   -0.0036 C   0  0  0  0  0  0  0  0  0  0  0  0
    4.7396   -1.4386   -0.0030 C   0  0  0  0  0  0  0  0  0  0  0  0
   -0.1171   -1.2800    0.0008 N   0  0  0  0  0  0  0  0  0  0  0  0
   -1.2536   -0.6313    0.0001 C   0  0  0  0  0  0  0  0  0  0  0  0
   -1.2741    0.8408   -0.0008 C   0  0  0  0  0  0  0  0  0  0  0  0
   -2.4428    1.4598   -0.0010 N   0  0  0  0  0  0  0  0  0  0  0  0
   -3.5887    0.7833   -0.0005 C   0  0  0  0  0  0  0  0  0  0  0  0
   -4.6279    1.4195   -0.0011 O   0  0  0  0  0  0  0  0  0  0  0  0
   -3.6707   -0.5548    0.0003 N   0  0  0  0  0  0  0  0  0  0  0  0
   -2.5596   -1.3272    0.0007 C   0  0  0  0  0  0  0  0  0  0  0  0
   -2.6313   -2.5409    0.0010 O   0  0  0  0  0  0  0  0  0  0  0  0
   -0.0921    1.5185   -0.0001 N   0  0  0  0  0  0  0  0  0  0  0  0
    5.1213    1.6168    1.0298 H   0  0  0  0  0  0  0  0  0  0  0  0
    5.5458    0.8336   -0.5112 H   0  0  0  0  0  0  0  0  0  0  0  0
    4.6985    2.3989   -0.5122 H   0  0  0  0  0  0  0  0  0  0  0  0
    2.3422    2.5327    0.0006 H   0  0  0  0  0  0  0  0  0  0  0  0
    2.2507   -2.4152    0.0022 H   0  0  0  0  0  0  0  0  0  0  0  0
    5.0492   -1.6295   -1.0306 H   0  0  0  0  0  0  0  0  0  0  0  0
    5.5093   -0.8592    0.5067 H   0  0  0  0  0  0  0  0  0  0  0  0
    4.5956   -2.3867    0.5151 H   0  0  0  0  0  0  0  0  0  0  0  0
   -4.5437   -0.9776    0.0010 H   0  0  0  0  0  0  0  0  0  0  0  0
   -0.0763    2.4884   -0.0008 H   0  0  0  0  0  0  0  0  0  0  0  0
  1  2  1  0  0  0  0
  2  3  2  0  0  0  0
  3  4  1  0  0  0  0
  4  5  2  0  0  0  0
  5  6  1  0  0  0  0
  6  7  2  0  0  0  0
  2  7  1  0  0  0  0
  7  8  1  0  0  0  0
  5  9  1  0  0  0  0
  9 10  2  0  0  0  0
 10 11  1  0  0  0  0
 11 12  2  0  0  0  0
 12 13  1  0  0  0  0
 13 14  2  0  0  0  0
 13 15  1  0  0  0  0
 15 16  1  0  0  0  0
 10 16  1  0  0  0  0
 16 17  2  0  0  0  0
 11 18  1  0  0  0  0
  4 18  1  0  0  0  0
  1 19  1  0  0  0  0
  1 20  1  0  0  0  0
  1 21  1  0  0  0  0
  3 22  1  0  0  0  0
  6 23  1  0  0  0  0
  8 24  1  0  0  0  0
  8 25  1  0  0  0  0
  8 26  1  0  0  0  0
 15 27  1  0  0  0  0
 18 28  1  0  0  0  0
M  END
$$$$
