C20H20O4
APtclcactv06281816413D 0   0.00000     0.00000
 
 44 47  0  0  0  0  0  0  0  0999 V2000
   -2.3863   -3.5114    0.4728 C   0  0  0  0  0  0  0  0  0  0  0  0
   -3.1726   -2.7805   -0.5848 C   0  0  0  0  0  0  0  0  0  0  0  0
   -3.6135   -1.5689   -0.3531 C   0  0  0  0  0  0  0  0  0  0  0  0
   -3.2305   -0.8583    0.9195 C   0  0  0  0  0  0  0  0  0  0  0  0
   -2.6139    0.4752    0.5840 C   0  0  0  0  0  0  0  0  0  0  0  0
   -3.3930    1.6218    0.4634 C   0  0  0  0  0  0  0  0  0  0  0  0
   -2.8358    2.8518    0.1560 C   0  0  0  0  0  0  0  0  0  0  0  0
   -1.4686    2.9970   -0.0404 C   0  0  0  0  0  0  0  0  0  0  0  0
   -0.6875    1.8691    0.0826 C   0  0  0  0  0  0  0  0  0  0  0  0
   -1.2445    0.6084    0.3889 C   0  0  0  0  0  0  0  0  0  0  0  0
   -0.2823   -0.3577    0.4180 O   0  0  0  0  0  0  0  0  0  0  0  0
    0.7780    0.1129   -0.4036 C   0  0  0  0  0  0  0  0  0  0  0  0
    0.7732    1.6364   -0.0211 C   0  0  0  0  0  0  0  0  0  0  0  0
    1.5713    2.3492   -1.0838 C   0  0  0  0  0  0  0  0  0  0  0  0
    2.8337    1.6924   -1.2473 O   0  0  0  0  0  0  0  0  0  0  0  0
    3.1654    0.5780   -0.5528 C   0  0  0  0  0  0  0  0  0  0  0  0
    2.1768   -0.3068   -0.0941 C   0  0  0  0  0  0  0  0  0  0  0  0
    2.5069   -1.4492    0.5855 C   0  0  0  0  0  0  0  0  0  0  0  0
    3.8363   -1.7380    0.8438 C   0  0  0  0  0  0  0  0  0  0  0  0
    4.8261   -0.8662    0.4113 C   0  0  0  0  0  0  0  0  0  0  0  0
    4.4934    0.2853   -0.2825 C   0  0  0  0  0  0  0  0  0  0  0  0
    6.1307   -1.1439    0.6714 O   0  0  0  0  0  0  0  0  0  0  0  0
   -4.7358    1.5321    0.6518 O   0  0  0  0  0  0  0  0  0  0  0  0
   -3.4517   -3.4435   -1.9091 C   0  0  0  0  0  0  0  0  0  0  0  0
   -2.9620   -3.5413    1.3979 H   0  0  0  0  0  0  0  0  0  0  0  0
   -2.1844   -4.5287    0.1375 H   0  0  0  0  0  0  0  0  0  0  0  0
   -1.4437   -2.9928    0.6481 H   0  0  0  0  0  0  0  0  0  0  0  0
   -4.2515   -1.0794   -1.0739 H   0  0  0  0  0  0  0  0  0  0  0  0
   -4.1195   -0.7039    1.5311 H   0  0  0  0  0  0  0  0  0  0  0  0
   -2.5106   -1.4631    1.4709 H   0  0  0  0  0  0  0  0  0  0  0  0
   -3.4776    3.7157    0.0668 H   0  0  0  0  0  0  0  0  0  0  0  0
   -1.0349    3.9565   -0.2806 H   0  0  0  0  0  0  0  0  0  0  0  0
    0.5453   -0.0318   -1.4586 H   0  0  0  0  0  0  0  0  0  0  0  0
    1.2437    1.7746    0.9524 H   0  0  0  0  0  0  0  0  0  0  0  0
    1.0244    2.3262   -2.0264 H   0  0  0  0  0  0  0  0  0  0  0  0
    1.7356    3.3839   -0.7829 H   0  0  0  0  0  0  0  0  0  0  0  0
    1.7319   -2.1232    0.9196 H   0  0  0  0  0  0  0  0  0  0  0  0
    4.1018   -2.6372    1.3797 H   0  0  0  0  0  0  0  0  0  0  0  0
    5.2709    0.9570   -0.6153 H   0  0  0  0  0  0  0  0  0  0  0  0
    6.5659   -1.6677   -0.0152 H   0  0  0  0  0  0  0  0  0  0  0  0
   -5.0147    1.6713    1.5672 H   0  0  0  0  0  0  0  0  0  0  0  0
   -4.3910   -3.9932   -1.8494 H   0  0  0  0  0  0  0  0  0  0  0  0
   -3.5240   -2.6840   -2.6875 H   0  0  0  0  0  0  0  0  0  0  0  0
   -2.6418   -4.1328   -2.1481 H   0  0  0  0  0  0  0  0  0  0  0  0
  1  2  1  0  0  0  0
  2  3  2  0  0  0  0
  3  4  1  0  0  0  0
  4  5  1  0  0  0  0
  5  6  2  0  0  0  0
  6  7  1  0  0  0  0
  7  8  2  0  0  0  0
  8  9  1  0  0  0  0
  9 10  2  0  0  0  0
  5 10  1  0  0  0  0
 10 11  1  0  0  0  0
 11 12  1  0  0  0  0
 12 13  1  0  0  0  0
  9 13  1  0  0  0  0
 13 14  1  0  0  0  0
 14 15  1  0  0  0  0
 15 16  1  0  0  0  0
 16 17  2  0  0  0  0
 12 17  1  0  0  0  0
 17 18  1  0  0  0  0
 18 19  2  0  0  0  0
 19 20  1  0  0  0  0
 20 21  2  0  0  0  0
 16 21  1  0  0  0  0
 20 22  1  0  0  0  0
  6 23  1  0  0  0  0
  2 24  1  0  0  0  0
  1 25  1  0  0  0  0
  1 26  1  0  0  0  0
  1 27  1  0  0  0  0
  3 28  1  0  0  0  0
  4 29  1  0  0  0  0
  4 30  1  0  0  0  0
  7 31  1  0  0  0  0
  8 32  1  0  0  0  0
 12 33  1  0  0  0  0
 13 34  1  0  0  0  0
 14 35  1  0  0  0  0
 14 36  1  0  0  0  0
 18 37  1  0  0  0  0
 19 38  1  0  0  0  0
 21 39  1  0  0  0  0
 22 40  1  0  0  0  0
 23 41  1  0  0  0  0
 24 42  1  0  0  0  0
 24 43  1  0  0  0  0
 24 44  1  0  0  0  0
M  END
$$$$
