C12H10O3
APtclcactv06281816413D 0   0.00000     0.00000
 
 25 26  0  0  0  0  0  0  0  0999 V2000
    5.0923   -0.6928   -0.4964 C   0  0  0  0  0  0  0  0  0  0  0  0
    4.0389   -0.8819    0.2591 C   0  0  0  0  0  0  0  0  0  0  0  0
    2.8813    0.0807    0.1924 C   0  0  0  0  0  0  0  0  0  0  0  0
    1.6551   -0.6515    0.1431 O   0  0  0  0  0  0  0  0  0  0  0  0
    0.5120    0.0687    0.0800 C   0  0  0  0  0  0  0  0  0  0  0  0
    0.5409    1.4359    0.0648 C   0  0  0  0  0  0  0  0  0  0  0  0
   -0.6614    2.1564   -0.0016 C   0  0  0  0  0  0  0  0  0  0  0  0
   -0.6220    3.3744   -0.0146 O   0  0  0  0  0  0  0  0  0  0  0  0
   -1.8539    1.5416   -0.0516 O   0  0  0  0  0  0  0  0  0  0  0  0
   -1.9586    0.1951   -0.0402 C   0  0  0  0  0  0  0  0  0  0  0  0
   -3.2022   -0.4204   -0.0921 C   0  0  0  0  0  0  0  0  0  0  0  0
   -3.2905   -1.7969   -0.0792 C   0  0  0  0  0  0  0  0  0  0  0  0
   -2.1466   -2.5782   -0.0145 C   0  0  0  0  0  0  0  0  0  0  0  0
   -0.9032   -1.9875    0.0377 C   0  0  0  0  0  0  0  0  0  0  0  0
   -0.7994   -0.5954    0.0196 C   0  0  0  0  0  0  0  0  0  0  0  0
    5.1311    0.1528   -1.1670 H   0  0  0  0  0  0  0  0  0  0  0  0
    5.9237   -1.3802   -0.4453 H   0  0  0  0  0  0  0  0  0  0  0  0
    4.0000   -1.7275    0.9297 H   0  0  0  0  0  0  0  0  0  0  0  0
    2.8881    0.7189    1.0760 H   0  0  0  0  0  0  0  0  0  0  0  0
    2.9725    0.6973   -0.7018 H   0  0  0  0  0  0  0  0  0  0  0  0
    1.4850    1.9588    0.1040 H   0  0  0  0  0  0  0  0  0  0  0  0
   -4.0997    0.1783   -0.1423 H   0  0  0  0  0  0  0  0  0  0  0  0
   -4.2602   -2.2708   -0.1193 H   0  0  0  0  0  0  0  0  0  0  0  0
   -2.2310   -3.6548   -0.0048 H   0  0  0  0  0  0  0  0  0  0  0  0
   -0.0136   -2.5979    0.0884 H   0  0  0  0  0  0  0  0  0  0  0  0
  1  2  2  0  0  0  0
  2  3  1  0  0  0  0
  3  4  1  0  0  0  0
  4  5  1  0  0  0  0
  5  6  2  0  0  0  0
  6  7  1  0  0  0  0
  7  8  2  0  0  0  0
  7  9  1  0  0  0  0
  9 10  1  0  0  0  0
 10 11  2  0  0  0  0
 11 12  1  0  0  0  0
 12 13  2  0  0  0  0
 13 14  1  0  0  0  0
 14 15  2  0  0  0  0
 10 15  1  0  0  0  0
  5 15  1  0  0  0  0
  1 16  1  0  0  0  0
  1 17  1  0  0  0  0
  2 18  1  0  0  0  0
  3 19  1  0  0  0  0
  3 20  1  0  0  0  0
  6 21  1  0  0  0  0
 11 22  1  0  0  0  0
 12 23  1  0  0  0  0
 13 24  1  0  0  0  0
 14 25  1  0  0  0  0
M  END
$$$$
