C9H17NO8
APtclcactv06221815513D 0   0.00000     0.00000
 
 35 35  0  0  0  0  0  0  0  0999 V2000
   -2.5398    0.2705   -0.6493 C   0  0  0  0  0  0  0  0  0  0  0  0
   -2.2463    1.0383    0.6432 C   0  0  0  0  0  0  0  0  0  0  0  0
   -0.8138    1.5781    0.5894 C   0  0  0  0  0  0  0  0  0  0  0  0
    0.1547    0.4123    0.3735 C   0  0  0  0  0  0  0  0  0  0  0  0
   -0.1930   -0.2777   -0.8287 O   0  0  0  0  0  0  0  0  0  0  0  0
   -1.5046   -0.8448   -0.8174 C   0  0  0  0  0  0  0  0  0  0  0  0
   -1.6223   -1.8165    0.3285 C   0  0  0  0  0  0  0  0  0  0  0  0
   -1.7893   -2.9927    0.1084 O   0  0  0  0  0  0  0  0  0  0  0  0
   -1.5414   -1.3752    1.5936 O   0  0  0  0  0  0  0  0  0  0  0  0
   -1.7382   -1.5300   -2.0495 O   0  0  0  0  0  0  0  0  0  0  0  0
    1.5826    0.9498    0.2586 C   0  0  0  0  0  0  0  0  0  0  0  0
    2.5568   -0.2198    0.1038 C   0  0  0  0  0  0  0  0  0  0  0  0
    3.9847    0.3177   -0.0111 C   0  0  0  0  0  0  0  0  0  0  0  0
    4.8813   -0.7640   -0.2719 O   0  0  0  0  0  0  0  0  0  0  0  0
    2.4600   -1.0746    1.2449 O   0  0  0  0  0  0  0  0  0  0  0  0
    1.6794    1.8045   -0.8825 O   0  0  0  0  0  0  0  0  0  0  0  0
   -0.6898    2.5315   -0.5213 N   0  0  0  0  0  0  0  0  0  0  0  0
   -3.1629    2.1272    0.7710 O   0  0  0  0  0  0  0  0  0  0  0  0
   -3.5381   -0.1640   -0.5962 H   0  0  0  0  0  0  0  0  0  0  0  0
   -2.4827    0.9515   -1.4985 H   0  0  0  0  0  0  0  0  0  0  0  0
   -2.3520    0.3689    1.4969 H   0  0  0  0  0  0  0  0  0  0  0  0
   -0.5777    2.0787    1.5284 H   0  0  0  0  0  0  0  0  0  0  0  0
    0.0913   -0.2741    1.2179 H   0  0  0  0  0  0  0  0  0  0  0  0
   -1.6226   -2.0359    2.2950 H   0  0  0  0  0  0  0  0  0  0  0  0
   -1.1172   -2.2508   -2.2224 H   0  0  0  0  0  0  0  0  0  0  0  0
    1.8319    1.5138    1.1573 H   0  0  0  0  0  0  0  0  0  0  0  0
    2.3075   -0.7839   -0.7949 H   0  0  0  0  0  0  0  0  0  0  0  0
    4.0372    1.0380   -0.8275 H   0  0  0  0  0  0  0  0  0  0  0  0
    4.2655    0.8054    0.9224 H   0  0  0  0  0  0  0  0  0  0  0  0
    5.8065   -0.4962   -0.3571 H   0  0  0  0  0  0  0  0  0  0  0  0
    2.6688   -0.6381    2.0821 H   0  0  0  0  0  0  0  0  0  0  0  0
    1.4705    1.3681   -1.7197 H   0  0  0  0  0  0  0  0  0  0  0  0
   -1.4373    3.2089   -0.5015 H   0  0  0  0  0  0  0  0  0  0  0  0
    0.2108    2.9862   -0.5086 H   0  0  0  0  0  0  0  0  0  0  0  0
   -4.0912    1.8581    0.8043 H   0  0  0  0  0  0  0  0  0  0  0  0
  1  2  1  0  0  0  0
  2  3  1  0  0  0  0
  3  4  1  0  0  0  0
  4  5  1  0  0  0  0
  5  6  1  0  0  0  0
  1  6  1  0  0  0  0
  6  7  1  0  0  0  0
  7  8  2  0  0  0  0
  7  9  1  0  0  0  0
  6 10  1  0  0  0  0
  4 11  1  0  0  0  0
 11 12  1  0  0  0  0
 12 13  1  0  0  0  0
 13 14  1  0  0  0  0
 12 15  1  0  0  0  0
 11 16  1  0  0  0  0
  3 17  1  0  0  0  0
  2 18  1  0  0  0  0
  1 19  1  0  0  0  0
  1 20  1  0  0  0  0
  2 21  1  0  0  0  0
  3 22  1  0  0  0  0
  4 23  1  0  0  0  0
  9 24  1  0  0  0  0
 10 25  1  0  0  0  0
 11 26  1  0  0  0  0
 12 27  1  0  0  0  0
 13 28  1  0  0  0  0
 13 29  1  0  0  0  0
 14 30  1  0  0  0  0
 15 31  1  0  0  0  0
 16 32  1  0  0  0  0
 17 33  1  0  0  0  0
 17 34  1  0  0  0  0
 18 35  1  0  0  0  0
M  END
$$$$
