C15H24O3
APtclcactv06211806223D 0   0.00000     0.00000
 
 42 42  0  0  0  0  0  0  0  0999 V2000
    6.9970    0.7128   -0.1655 C   0  0  0  0  0  0  0  0  0  0  0  0
    5.7429   -0.1633   -0.1877 C   0  0  0  0  0  0  0  0  0  0  0  0
    5.8014   -1.1669    0.9657 C   0  0  0  0  0  0  0  0  0  0  0  0
    4.5020    0.7184   -0.0340 C   0  0  0  0  0  0  0  0  0  0  0  0
    3.2446   -0.1381   -0.1956 C   0  0  0  0  0  0  0  0  0  0  0  0
    2.0051    0.7229    0.0563 C   0  0  0  0  0  0  0  0  0  0  0  0
    0.7553   -0.1588    0.0178 C   0  0  0  0  0  0  0  0  0  0  0  0
    0.7983   -1.1555    1.1778 C   0  0  0  0  0  0  0  0  0  0  0  0
   -0.4917    0.7184    0.1451 C   0  0  0  0  0  0  0  0  0  0  0  0
   -1.7429   -0.1469   -0.0182 C   0  0  0  0  0  0  0  0  0  0  0  0
   -2.9712    0.7171    0.1073 C   0  0  0  0  0  0  0  0  0  0  0  0
   -2.8571    1.9083    0.3076 O   0  0  0  0  0  0  0  0  0  0  0  0
   -4.3039    0.1184   -0.0128 C   0  0  0  0  0  0  0  0  0  0  0  0
   -4.6032   -1.1980   -0.2363 C   0  0  0  0  0  0  0  0  0  0  0  0
   -5.9319   -1.3255   -0.2775 O   0  0  0  0  0  0  0  0  0  0  0  0
   -6.5345   -0.1408   -0.0893 C   0  0  0  0  0  0  0  0  0  0  0  0
   -5.6016    0.8058    0.0882 C   0  0  0  0  0  0  0  0  0  0  0  0
    3.1956   -0.6669   -1.5223 O   0  0  0  0  0  0  0  0  0  0  0  0
    7.8835    0.0790   -0.1868 H   0  0  0  0  0  0  0  0  0  0  0  0
    6.9979    1.3682   -1.0364 H   0  0  0  0  0  0  0  0  0  0  0  0
    7.0031    1.3156    0.7427 H   0  0  0  0  0  0  0  0  0  0  0  0
    5.6918   -0.7007   -1.1346 H   0  0  0  0  0  0  0  0  0  0  0  0
    5.8525   -0.6295    1.9127 H   0  0  0  0  0  0  0  0  0  0  0  0
    4.9080   -1.7911    0.9499 H   0  0  0  0  0  0  0  0  0  0  0  0
    6.6855   -1.7950    0.8563 H   0  0  0  0  0  0  0  0  0  0  0  0
    4.5035    1.1789    0.9539 H   0  0  0  0  0  0  0  0  0  0  0  0
    4.5123    1.4963   -0.7975 H   0  0  0  0  0  0  0  0  0  0  0  0
    3.2691   -0.9584    0.5218 H   0  0  0  0  0  0  0  0  0  0  0  0
    2.0851    1.1974    1.0343 H   0  0  0  0  0  0  0  0  0  0  0  0
    1.9327    1.4898   -0.7149 H   0  0  0  0  0  0  0  0  0  0  0  0
    0.7227   -0.7018   -0.9268 H   0  0  0  0  0  0  0  0  0  0  0  0
    0.8310   -0.6125    2.1223 H   0  0  0  0  0  0  0  0  0  0  0  0
   -0.0921   -1.7836    1.1504 H   0  0  0  0  0  0  0  0  0  0  0  0
    1.6868   -1.7805    1.0871 H   0  0  0  0  0  0  0  0  0  0  0  0
   -0.5036    1.1928    1.1264 H   0  0  0  0  0  0  0  0  0  0  0  0
   -0.4770    1.4855   -0.6291 H   0  0  0  0  0  0  0  0  0  0  0  0
   -1.7310   -0.6213   -0.9994 H   0  0  0  0  0  0  0  0  0  0  0  0
   -1.7577   -0.9140    0.7561 H   0  0  0  0  0  0  0  0  0  0  0  0
   -3.8872   -1.9972   -0.3592 H   0  0  0  0  0  0  0  0  0  0  0  0
   -7.6019    0.0233   -0.0784 H   0  0  0  0  0  0  0  0  0  0  0  0
   -5.7681    1.8586    0.2625 H   0  0  0  0  0  0  0  0  0  0  0  0
    3.1718    0.0083   -2.2142 H   0  0  0  0  0  0  0  0  0  0  0  0
  1  2  1  0  0  0  0
  2  3  1  0  0  0  0
  2  4  1  0  0  0  0
  4  5  1  0  0  0  0
  5  6  1  0  0  0  0
  6  7  1  0  0  0  0
  7  8  1  0  0  0  0
  7  9  1  0  0  0  0
  9 10  1  0  0  0  0
 10 11  1  0  0  0  0
 11 12  2  0  0  0  0
 11 13  1  0  0  0  0
 13 14  2  0  0  0  0
 14 15  1  0  0  0  0
 15 16  1  0  0  0  0
 16 17  2  0  0  0  0
 13 17  1  0  0  0  0
  5 18  1  0  0  0  0
  1 19  1  0  0  0  0
  1 20  1  0  0  0  0
  1 21  1  0  0  0  0
  2 22  1  0  0  0  0
  3 23  1  0  0  0  0
  3 24  1  0  0  0  0
  3 25  1  0  0  0  0
  4 26  1  0  0  0  0
  4 27  1  0  0  0  0
  5 28  1  0  0  0  0
  6 29  1  0  0  0  0
  6 30  1  0  0  0  0
  7 31  1  0  0  0  0
  8 32  1  0  0  0  0
  8 33  1  0  0  0  0
  8 34  1  0  0  0  0
  9 35  1  0  0  0  0
  9 36  1  0  0  0  0
 10 37  1  0  0  0  0
 10 38  1  0  0  0  0
 14 39  1  0  0  0  0
 16 40  1  0  0  0  0
 17 41  1  0  0  0  0
 18 42  1  0  0  0  0
M  END
$$$$
