C14H18N2O6
APtclcactv06221815513D 0   0.00000     0.00000
 
 40 40  0  0  0  0  0  0  0  0999 V2000
    2.1987    2.5356   -0.6054 C   0  0  0  0  0  0  0  0  0  0  0  0
    1.3672    3.5888   -0.9337 C   0  0  0  0  0  0  0  0  0  0  0  0
    0.1988    3.7986   -0.2156 C   0  0  0  0  0  0  0  0  0  0  0  0
   -0.1314    2.9496    0.8307 C   0  0  0  0  0  0  0  0  0  0  0  0
    0.7035    1.8978    1.1551 C   0  0  0  0  0  0  0  0  0  0  0  0
    1.8673    1.6910    0.4379 C   0  0  0  0  0  0  0  0  0  0  0  0
    2.7762    0.5428    0.7939 C   0  0  0  0  0  0  0  0  0  0  0  0
    2.3671   -0.6975   -0.0030 C   0  0  0  0  0  0  0  0  0  0  0  0
    3.3493   -1.8099    0.2596 C   0  0  0  0  0  0  0  0  0  0  0  0
    2.9687   -2.8507    0.7412 O   0  0  0  0  0  0  0  0  0  0  0  0
    4.6469   -1.6445   -0.0414 O   0  0  0  0  0  0  0  0  0  0  0  0
    1.0268   -1.1223    0.4085 N   0  0  0  0  0  0  0  0  0  0  0  0
    0.2542   -1.8302   -0.4391 C   0  0  0  0  0  0  0  0  0  0  0  0
    0.6686   -2.1156   -1.5426 O   0  0  0  0  0  0  0  0  0  0  0  0
   -1.1245   -2.2670   -0.0157 C   0  0  0  0  0  0  0  0  0  0  0  0
   -2.0988   -1.0969   -0.1656 C   0  0  0  0  0  0  0  0  0  0  0  0
   -3.4696   -1.5014    0.3804 C   0  0  0  0  0  0  0  0  0  0  0  0
   -4.4292   -0.3489    0.2328 C   0  0  0  0  0  0  0  0  0  0  0  0
   -4.0551    0.6896   -0.2587 O   0  0  0  0  0  0  0  0  0  0  0  0
   -5.6996   -0.4759    0.6472 O   0  0  0  0  0  0  0  0  0  0  0  0
   -1.5660   -3.3833   -0.8625 N   0  0  0  0  0  0  0  0  0  0  0  0
   -0.6206    4.8343   -0.5363 O   0  0  0  0  0  0  0  0  0  0  0  0
    3.1060    2.3692   -1.1670 H   0  0  0  0  0  0  0  0  0  0  0  0
    1.6266    4.2486   -1.7484 H   0  0  0  0  0  0  0  0  0  0  0  0
   -1.0402    3.1110    1.3915 H   0  0  0  0  0  0  0  0  0  0  0  0
    0.4470    1.2369    1.9698 H   0  0  0  0  0  0  0  0  0  0  0  0
    3.8060    0.8063    0.5526 H   0  0  0  0  0  0  0  0  0  0  0  0
    2.6953    0.3325    1.8603 H   0  0  0  0  0  0  0  0  0  0  0  0
    2.3624   -0.4606   -1.0670 H   0  0  0  0  0  0  0  0  0  0  0  0
    5.2388   -2.3861    0.1451 H   0  0  0  0  0  0  0  0  0  0  0  0
    0.6953   -0.8940    1.2911 H   0  0  0  0  0  0  0  0  0  0  0  0
   -1.1001   -2.5884    1.0255 H   0  0  0  0  0  0  0  0  0  0  0  0
   -1.7243   -0.2386    0.3924 H   0  0  0  0  0  0  0  0  0  0  0  0
   -2.1907   -0.8332   -1.2192 H   0  0  0  0  0  0  0  0  0  0  0  0
   -3.8440   -2.3597   -0.1776 H   0  0  0  0  0  0  0  0  0  0  0  0
   -3.3777   -1.7651    1.4340 H   0  0  0  0  0  0  0  0  0  0  0  0
   -6.2778    0.2905    0.5317 H   0  0  0  0  0  0  0  0  0  0  0  0
   -2.4606   -3.7367   -0.5575 H   0  0  0  0  0  0  0  0  0  0  0  0
   -1.5970   -3.1104   -1.8334 H   0  0  0  0  0  0  0  0  0  0  0  0
   -1.2967    4.6126   -1.1911 H   0  0  0  0  0  0  0  0  0  0  0  0
  1  2  2  0  0  0  0
  2  3  1  0  0  0  0
  3  4  2  0  0  0  0
  4  5  1  0  0  0  0
  5  6  2  0  0  0  0
  1  6  1  0  0  0  0
  6  7  1  0  0  0  0
  7  8  1  0  0  0  0
  8  9  1  0  0  0  0
  9 10  2  0  0  0  0
  9 11  1  0  0  0  0
  8 12  1  0  0  0  0
 12 13  1  0  0  0  0
 13 14  2  0  0  0  0
 13 15  1  0  0  0  0
 15 16  1  0  0  0  0
 16 17  1  0  0  0  0
 17 18  1  0  0  0  0
 18 19  2  0  0  0  0
 18 20  1  0  0  0  0
 15 21  1  0  0  0  0
  3 22  1  0  0  0  0
  1 23  1  0  0  0  0
  2 24  1  0  0  0  0
  4 25  1  0  0  0  0
  5 26  1  0  0  0  0
  7 27  1  0  0  0  0
  7 28  1  0  0  0  0
  8 29  1  0  0  0  0
 11 30  1  0  0  0  0
 12 31  1  0  0  0  0
 15 32  1  0  0  0  0
 16 33  1  0  0  0  0
 16 34  1  0  0  0  0
 17 35  1  0  0  0  0
 17 36  1  0  0  0  0
 20 37  1  0  0  0  0
 21 38  1  0  0  0  0
 21 39  1  0  0  0  0
 22 40  1  0  0  0  0
M  END
$$$$
