KNO3
APtclcactv06221805333D 0   0.00000     0.00000
 
  5  3  0  0  0  0  0  0  0  0999 V2000
   -3.7336    0.0000    0.0273 N   0  3  0  0  0  0  0  0  0  0  0  0
   -4.4347   -0.9035   -0.3918 O   0  0  0  0  0  0  0  0  0  0  0  0
   -2.7098   -0.2557    0.6357 O   0  5  0  0  0  0  0  0  0  0  0  0
   -4.0535    1.1592   -0.1664 O   0  5  0  0  0  0  0  0  0  0  0  0
    5.9201   -0.0000   -0.0415 K   0  3  0  0  0  0  0  0  0  0  0  0
  1  2  2  0  0  0  0
  1  3  1  0  0  0  0
  1  4  1  0  0  0  0
M  CHG  4   1   1   3  -1   4  -1   5   1
M  END
$$$$
