C15H26O
APtclcactv06221815523D 0   0.00000     0.00000
 
 42 43  0  0  0  0  0  0  0  0999 V2000
   -1.3045    2.7883   -0.0482 C   0  0  0  0  0  0  0  0  0  0  0  0
   -1.8124    1.3752    0.0790 C   0  0  0  0  0  0  0  0  0  0  0  0
   -0.9809    0.3971   -0.1304 C   0  0  0  0  0  0  0  0  0  0  0  0
    0.4566    0.7382   -0.4850 C   0  0  0  0  0  0  0  0  0  0  0  0
    1.3833   -0.0394    0.4543 C   0  0  0  0  0  0  0  0  0  0  0  0
    1.0608   -1.5321    0.3674 C   0  0  0  0  0  0  0  0  0  0  0  0
   -0.3641   -1.7821    0.8651 C   0  0  0  0  0  0  0  0  0  0  0  0
   -1.3561   -1.0539   -0.0463 C   0  0  0  0  0  0  0  0  0  0  0  0
   -2.7751   -1.2717    0.4494 C   0  0  0  0  0  0  0  0  0  0  0  0
   -3.7108   -0.1947   -0.0993 C   0  0  0  0  0  0  0  0  0  0  0  0
   -3.2529    1.1636    0.4475 C   0  0  0  0  0  0  0  0  0  0  0  0
   -1.2521   -1.6588   -1.4478 C   0  0  0  0  0  0  0  0  0  0  0  0
    2.8385    0.1929    0.0427 C   0  0  0  0  0  0  0  0  0  0  0  0
    3.7567   -0.6801    0.9003 C   0  0  0  0  0  0  0  0  0  0  0  0
    3.0163   -0.1747   -1.4318 C   0  0  0  0  0  0  0  0  0  0  0  0
    3.1739    1.5687    0.2344 O   0  0  0  0  0  0  0  0  0  0  0  0
   -0.8773    2.9330   -1.0405 H   0  0  0  0  0  0  0  0  0  0  0  0
   -2.1296    3.4855    0.0974 H   0  0  0  0  0  0  0  0  0  0  0  0
   -0.5391    2.9686    0.7067 H   0  0  0  0  0  0  0  0  0  0  0  0
    0.6575    0.4532   -1.5177 H   0  0  0  0  0  0  0  0  0  0  0  0
    0.6214    1.8084   -0.3602 H   0  0  0  0  0  0  0  0  0  0  0  0
    1.2357    0.3053    1.4778 H   0  0  0  0  0  0  0  0  0  0  0  0
    1.1464   -1.8618   -0.6680 H   0  0  0  0  0  0  0  0  0  0  0  0
    1.7639   -2.0915    0.9846 H   0  0  0  0  0  0  0  0  0  0  0  0
   -0.5726   -2.8519    0.8482 H   0  0  0  0  0  0  0  0  0  0  0  0
   -0.4642   -1.4080    1.8839 H   0  0  0  0  0  0  0  0  0  0  0  0
   -3.1236   -2.2510    0.1215 H   0  0  0  0  0  0  0  0  0  0  0  0
   -2.7845   -1.2343    1.5388 H   0  0  0  0  0  0  0  0  0  0  0  0
   -3.6660   -0.1897   -1.1883 H   0  0  0  0  0  0  0  0  0  0  0  0
   -4.7317   -0.3951    0.2257 H   0  0  0  0  0  0  0  0  0  0  0  0
   -3.3636    1.1765    1.5318 H   0  0  0  0  0  0  0  0  0  0  0  0
   -3.8583    1.9565    0.0082 H   0  0  0  0  0  0  0  0  0  0  0  0
   -1.4941   -2.7207   -1.4042 H   0  0  0  0  0  0  0  0  0  0  0  0
   -1.9514   -1.1539   -2.1143 H   0  0  0  0  0  0  0  0  0  0  0  0
   -0.2367   -1.5326   -1.8235 H   0  0  0  0  0  0  0  0  0  0  0  0
    3.5008   -1.7295    0.7542 H   0  0  0  0  0  0  0  0  0  0  0  0
    4.7934   -0.5146    0.6071 H   0  0  0  0  0  0  0  0  0  0  0  0
    3.6300   -0.4182    1.9508 H   0  0  0  0  0  0  0  0  0  0  0  0
    2.3621    0.4472   -2.0428 H   0  0  0  0  0  0  0  0  0  0  0  0
    4.0530   -0.0092   -1.7250 H   0  0  0  0  0  0  0  0  0  0  0  0
    2.7604   -1.2242   -1.5780 H   0  0  0  0  0  0  0  0  0  0  0  0
    4.0840    1.7890   -0.0069 H   0  0  0  0  0  0  0  0  0  0  0  0
  1  2  1  0  0  0  0
  2  3  2  0  0  0  0
  3  4  1  0  0  0  0
  4  5  1  0  0  0  0
  5  6  1  0  0  0  0
  6  7  1  0  0  0  0
  7  8  1  0  0  0  0
  3  8  1  0  0  0  0
  8  9  1  0  0  0  0
  9 10  1  0  0  0  0
 10 11  1  0  0  0  0
  2 11  1  0  0  0  0
  8 12  1  0  0  0  0
  5 13  1  0  0  0  0
 13 14  1  0  0  0  0
 13 15  1  0  0  0  0
 13 16  1  0  0  0  0
  1 17  1  0  0  0  0
  1 18  1  0  0  0  0
  1 19  1  0  0  0  0
  4 20  1  0  0  0  0
  4 21  1  0  0  0  0
  5 22  1  0  0  0  0
  6 23  1  0  0  0  0
  6 24  1  0  0  0  0
  7 25  1  0  0  0  0
  7 26  1  0  0  0  0
  9 27  1  0  0  0  0
  9 28  1  0  0  0  0
 10 29  1  0  0  0  0
 10 30  1  0  0  0  0
 11 31  1  0  0  0  0
 11 32  1  0  0  0  0
 12 33  1  0  0  0  0
 12 34  1  0  0  0  0
 12 35  1  0  0  0  0
 14 36  1  0  0  0  0
 14 37  1  0  0  0  0
 14 38  1  0  0  0  0
 15 39  1  0  0  0  0
 15 40  1  0  0  0  0
 15 41  1  0  0  0  0
 16 42  1  0  0  0  0
M  END
$$$$
