C11H22
APtclcactv06221815523D 0   0.00000     0.00000
 
 33 33  0  0  0  0  0  0  0  0999 V2000
    3.3274   -0.0003    0.3400 C   0  0  0  0  0  0  0  0  0  0  0  0
    1.8017    0.0004    0.2244 C   0  0  0  0  0  0  0  0  0  0  0  0
    1.3482    1.2505   -0.5323 C   0  0  0  0  0  0  0  0  0  0  0  0
    0.3353    2.0212    0.3169 C   0  0  0  0  0  0  0  0  0  0  0  0
   -1.0238    2.0214   -0.3857 C   0  0  0  0  0  0  0  0  0  0  0  0
   -2.0365    1.2494    0.4625 C   0  0  0  0  0  0  0  0  0  0  0  0
   -2.4883   -0.0008   -0.2950 C   0  0  0  0  0  0  0  0  0  0  0  0
   -2.0343   -1.2491    0.4643 C   0  0  0  0  0  0  0  0  0  0  0  0
   -1.0235   -2.0228   -0.3845 C   0  0  0  0  0  0  0  0  0  0  0  0
    0.3370   -2.0217    0.3155 C   0  0  0  0  0  0  0  0  0  0  0  0
    1.3471   -1.2480   -0.5343 C   0  0  0  0  0  0  0  0  0  0  0  0
    3.6512    0.8891    0.8805 H   0  0  0  0  0  0  0  0  0  0  0  0
    3.6505   -0.8909    0.8790 H   0  0  0  0  0  0  0  0  0  0  0  0
    3.7673    0.0003   -0.6573 H   0  0  0  0  0  0  0  0  0  0  0  0
    1.3618   -0.0002    1.2217 H   0  0  0  0  0  0  0  0  0  0  0  0
    2.2106    1.8855   -0.7347 H   0  0  0  0  0  0  0  0  0  0  0  0
    0.8842    0.9568   -1.4739 H   0  0  0  0  0  0  0  0  0  0  0  0
    0.2403    1.5433    1.2919 H   0  0  0  0  0  0  0  0  0  0  0  0
    0.6771    3.0480    0.4472 H   0  0  0  0  0  0  0  0  0  0  0  0
   -1.3659    3.0483   -0.5148 H   0  0  0  0  0  0  0  0  0  0  0  0
   -0.9286    1.5448   -1.3613 H   0  0  0  0  0  0  0  0  0  0  0  0
   -1.5728    0.9558    1.4042 H   0  0  0  0  0  0  0  0  0  0  0  0
   -2.8997    1.8835    0.6646 H   0  0  0  0  0  0  0  0  0  0  0  0
   -3.5751   -0.0018   -0.3791 H   0  0  0  0  0  0  0  0  0  0  0  0
   -2.0468   -0.0011   -1.2917 H   0  0  0  0  0  0  0  0  0  0  0  0
   -1.5686   -0.9533    1.4043 H   0  0  0  0  0  0  0  0  0  0  0  0
   -2.8969   -1.8831    0.6698 H   0  0  0  0  0  0  0  0  0  0  0  0
   -1.3660   -3.0498   -0.5112 H   0  0  0  0  0  0  0  0  0  0  0  0
   -0.9300   -1.5479   -1.3611 H   0  0  0  0  0  0  0  0  0  0  0  0
    0.2431   -1.5455    1.2915 H   0  0  0  0  0  0  0  0  0  0  0  0
    0.6806   -3.0481    0.4436 H   0  0  0  0  0  0  0  0  0  0  0  0
    0.8805   -0.9523   -1.4739 H   0  0  0  0  0  0  0  0  0  0  0  0
    2.2095   -1.8820   -0.7406 H   0  0  0  0  0  0  0  0  0  0  0  0
  1  2  1  0  0  0  0
  2  3  1  0  0  0  0
  3  4  1  0  0  0  0
  4  5  1  0  0  0  0
  5  6  1  0  0  0  0
  6  7  1  0  0  0  0
  7  8  1  0  0  0  0
  8  9  1  0  0  0  0
  9 10  1  0  0  0  0
 10 11  1  0  0  0  0
  2 11  1  0  0  0  0
  1 12  1  0  0  0  0
  1 13  1  0  0  0  0
  1 14  1  0  0  0  0
  2 15  1  0  0  0  0
  3 16  1  0  0  0  0
  3 17  1  0  0  0  0
  4 18  1  0  0  0  0
  4 19  1  0  0  0  0
  5 20  1  0  0  0  0
  5 21  1  0  0  0  0
  6 22  1  0  0  0  0
  6 23  1  0  0  0  0
  7 24  1  0  0  0  0
  7 25  1  0  0  0  0
  8 26  1  0  0  0  0
  8 27  1  0  0  0  0
  9 28  1  0  0  0  0
  9 29  1  0  0  0  0
 10 30  1  0  0  0  0
 10 31  1  0  0  0  0
 11 32  1  0  0  0  0
 11 33  1  0  0  0  0
M  END
$$$$
