C9H10O3
APtclcactv06221815523D 0   0.00000     0.00000
 
 22 22  0  0  0  0  0  0  0  0999 V2000
    4.3100   -0.0067   -0.8456 C   0  0  0  0  0  0  0  0  0  0  0  0
    3.4375    0.0026    0.3149 O   0  0  0  0  0  0  0  0  0  0  0  0
    2.1154    0.0007    0.0834 C   0  0  0  0  0  0  0  0  0  0  0  0
    1.7008   -0.0084   -1.0515 O   0  0  0  0  0  0  0  0  0  0  0  0
    1.1480    0.0100    1.2389 C   0  0  0  0  0  0  0  0  0  0  0  0
   -0.2639    0.0057    0.7121 C   0  0  0  0  0  0  0  0  0  0  0  0
   -0.9105   -1.1943    0.4804 C   0  0  0  0  0  0  0  0  0  0  0  0
   -2.2047   -1.2009   -0.0025 C   0  0  0  0  0  0  0  0  0  0  0  0
   -2.8557   -0.0021   -0.2550 C   0  0  0  0  0  0  0  0  0  0  0  0
   -2.2048    1.2006   -0.0218 C   0  0  0  0  0  0  0  0  0  0  0  0
   -0.9125    1.2018    0.4665 C   0  0  0  0  0  0  0  0  0  0  0  0
   -4.1288   -0.0060   -0.7306 O   0  0  0  0  0  0  0  0  0  0  0  0
    5.3498   -0.0040   -0.5186 H   0  0  0  0  0  0  0  0  0  0  0  0
    4.1177   -0.9014   -1.4377 H   0  0  0  0  0  0  0  0  0  0  0  0
    4.1176    0.8785   -1.4520 H   0  0  0  0  0  0  0  0  0  0  0  0
    1.3088   -0.8751    1.8545 H   0  0  0  0  0  0  0  0  0  0  0  0
    1.3088    0.9048    1.8401 H   0  0  0  0  0  0  0  0  0  0  0  0
   -0.4031   -2.1272    0.6769 H   0  0  0  0  0  0  0  0  0  0  0  0
   -2.7092   -2.1385   -0.1836 H   0  0  0  0  0  0  0  0  0  0  0  0
   -2.7095    2.1351   -0.2176 H   0  0  0  0  0  0  0  0  0  0  0  0
   -0.4053    2.1379    0.6483 H   0  0  0  0  0  0  0  0  0  0  0  0
   -4.8064   -0.0006   -0.0406 H   0  0  0  0  0  0  0  0  0  0  0  0
  1  2  1  0  0  0  0
  2  3  1  0  0  0  0
  3  4  2  0  0  0  0
  3  5  1  0  0  0  0
  5  6  1  0  0  0  0
  6  7  2  0  0  0  0
  7  8  1  0  0  0  0
  8  9  2  0  0  0  0
  9 10  1  0  0  0  0
 10 11  2  0  0  0  0
  6 11  1  0  0  0  0
  9 12  1  0  0  0  0
  1 13  1  0  0  0  0
  1 14  1  0  0  0  0
  1 15  1  0  0  0  0
  5 16  1  0  0  0  0
  5 17  1  0  0  0  0
  7 18  1  0  0  0  0
  8 19  1  0  0  0  0
 10 20  1  0  0  0  0
 11 21  1  0  0  0  0
 12 22  1  0  0  0  0
M  END
$$$$
