C10H18O4
APtclcactv06211804363D 0   0.00000     0.00000
 
 32 31  0  0  0  0  0  0  0  0999 V2000
    0.6535   -0.3977    0.0000 C   0  0  0  0  0  0  0  0  0  0  0  0
   -0.6535    0.3977    0.0000 C   0  0  0  0  0  0  0  0  0  0  0  0
   -1.8390   -0.5695    0.0000 C   0  0  0  0  0  0  0  0  0  0  0  0
   -3.1461    0.2258    0.0000 C   0  0  0  0  0  0  0  0  0  0  0  0
   -4.3316   -0.7414    0.0000 C   0  0  0  0  0  0  0  0  0  0  0  0
   -5.6190    0.0420   -0.0000 C   0  0  0  0  0  0  0  0  0  0  0  0
   -5.5912    1.2499   -0.0000 O   0  0  0  0  0  0  0  0  0  0  0  0
   -6.7966   -0.6022    0.0000 O   0  0  0  0  0  0  0  0  0  0  0  0
    1.8390    0.5695    0.0000 C   0  0  0  0  0  0  0  0  0  0  0  0
    3.1461   -0.2258    0.0000 C   0  0  0  0  0  0  0  0  0  0  0  0
    4.3316    0.7414    0.0000 C   0  0  0  0  0  0  0  0  0  0  0  0
    5.6190   -0.0420   -0.0000 C   0  0  0  0  0  0  0  0  0  0  0  0
    5.5912   -1.2499   -0.0000 O   0  0  0  0  0  0  0  0  0  0  0  0
    6.7966    0.6022    0.0000 O   0  0  0  0  0  0  0  0  0  0  0  0
    0.6968   -1.0255    0.8900 H   0  0  0  0  0  0  0  0  0  0  0  0
    0.6968   -1.0255   -0.8900 H   0  0  0  0  0  0  0  0  0  0  0  0
   -0.6968    1.0255    0.8900 H   0  0  0  0  0  0  0  0  0  0  0  0
   -0.6968    1.0255   -0.8900 H   0  0  0  0  0  0  0  0  0  0  0  0
   -1.7958   -1.1973   -0.8900 H   0  0  0  0  0  0  0  0  0  0  0  0
   -1.7958   -1.1973    0.8900 H   0  0  0  0  0  0  0  0  0  0  0  0
   -3.1894    0.8536    0.8900 H   0  0  0  0  0  0  0  0  0  0  0  0
   -3.1894    0.8536   -0.8900 H   0  0  0  0  0  0  0  0  0  0  0  0
   -4.2883   -1.3692   -0.8900 H   0  0  0  0  0  0  0  0  0  0  0  0
   -4.2883   -1.3692    0.8900 H   0  0  0  0  0  0  0  0  0  0  0  0
   -7.5953   -0.0570   -0.0000 H   0  0  0  0  0  0  0  0  0  0  0  0
    1.7958    1.1973   -0.8900 H   0  0  0  0  0  0  0  0  0  0  0  0
    1.7958    1.1973    0.8900 H   0  0  0  0  0  0  0  0  0  0  0  0
    3.1894   -0.8536    0.8900 H   0  0  0  0  0  0  0  0  0  0  0  0
    3.1894   -0.8536   -0.8900 H   0  0  0  0  0  0  0  0  0  0  0  0
    4.2883    1.3692   -0.8900 H   0  0  0  0  0  0  0  0  0  0  0  0
    4.2883    1.3692    0.8900 H   0  0  0  0  0  0  0  0  0  0  0  0
    7.5953    0.0570   -0.0000 H   0  0  0  0  0  0  0  0  0  0  0  0
  1  2  1  0  0  0  0
  2  3  1  0  0  0  0
  3  4  1  0  0  0  0
  4  5  1  0  0  0  0
  5  6  1  0  0  0  0
  6  7  2  0  0  0  0
  6  8  1  0  0  0  0
  1  9  1  0  0  0  0
  9 10  1  0  0  0  0
 10 11  1  0  0  0  0
 11 12  1  0  0  0  0
 12 13  2  0  0  0  0
 12 14  1  0  0  0  0
  1 15  1  0  0  0  0
  1 16  1  0  0  0  0
  2 17  1  0  0  0  0
  2 18  1  0  0  0  0
  3 19  1  0  0  0  0
  3 20  1  0  0  0  0
  4 21  1  0  0  0  0
  4 22  1  0  0  0  0
  5 23  1  0  0  0  0
  5 24  1  0  0  0  0
  8 25  1  0  0  0  0
  9 26  1  0  0  0  0
  9 27  1  0  0  0  0
 10 28  1  0  0  0  0
 10 29  1  0  0  0  0
 11 30  1  0  0  0  0
 11 31  1  0  0  0  0
 14 32  1  0  0  0  0
M  END
$$$$
