C10H16
APtclcactv06221815523D 0   0.00000     0.00000
 
 26 25  0  0  0  0  0  0  0  0999 V2000
    3.4030    1.0619    0.5769 C   0  0  0  0  0  0  0  0  0  0  0  0
    2.6893   -0.1341    0.0014 C   0  0  0  0  0  0  0  0  0  0  0  0
    3.1235   -1.3428    0.2596 C   0  0  0  0  0  0  0  0  0  0  0  0
    1.4761    0.0603   -0.8712 C   0  0  0  0  0  0  0  0  0  0  0  0
    0.2316    0.1956    0.0085 C   0  0  0  0  0  0  0  0  0  0  0  0
   -1.0001    0.3929   -0.8774 C   0  0  0  0  0  0  0  0  0  0  0  0
   -2.2259    0.5262   -0.0109 C   0  0  0  0  0  0  0  0  0  0  0  0
   -2.6707    1.7309    0.3301 C   0  0  0  0  0  0  0  0  0  0  0  0
   -2.9302   -0.6776    0.4573 C   0  0  0  0  0  0  0  0  0  0  0  0
   -2.4854   -1.8824    0.1163 C   0  0  0  0  0  0  0  0  0  0  0  0
    4.2494    0.7263    1.1761 H   0  0  0  0  0  0  0  0  0  0  0  0
    3.7608    1.6963   -0.2340 H   0  0  0  0  0  0  0  0  0  0  0  0
    2.7151    1.6281    1.2047 H   0  0  0  0  0  0  0  0  0  0  0  0
    2.6120   -2.1999   -0.1528 H   0  0  0  0  0  0  0  0  0  0  0  0
    3.9929   -1.4821    0.8850 H   0  0  0  0  0  0  0  0  0  0  0  0
    1.5990    0.9639   -1.4682 H   0  0  0  0  0  0  0  0  0  0  0  0
    1.3623   -0.7991   -1.5319 H   0  0  0  0  0  0  0  0  0  0  0  0
    0.1087   -0.7081    0.6055 H   0  0  0  0  0  0  0  0  0  0  0  0
    0.3454    1.0549    0.6693 H   0  0  0  0  0  0  0  0  0  0  0  0
   -0.8773    1.2965   -1.4744 H   0  0  0  0  0  0  0  0  0  0  0  0
   -1.1139   -0.4665   -1.5381 H   0  0  0  0  0  0  0  0  0  0  0  0
   -3.5492    1.8264    0.9510 H   0  0  0  0  0  0  0  0  0  0  0  0
   -2.1537    2.6146   -0.0137 H   0  0  0  0  0  0  0  0  0  0  0  0
   -3.8086   -0.5822    1.0783 H   0  0  0  0  0  0  0  0  0  0  0  0
   -3.0024   -2.7661    0.4601 H   0  0  0  0  0  0  0  0  0  0  0  0
   -1.6069   -1.9779   -0.5046 H   0  0  0  0  0  0  0  0  0  0  0  0
  1  2  1  0  0  0  0
  2  3  2  0  0  0  0
  2  4  1  0  0  0  0
  4  5  1  0  0  0  0
  5  6  1  0  0  0  0
  6  7  1  0  0  0  0
  7  8  2  0  0  0  0
  7  9  1  0  0  0  0
  9 10  2  0  0  0  0
  1 11  1  0  0  0  0
  1 12  1  0  0  0  0
  1 13  1  0  0  0  0
  3 14  1  0  0  0  0
  3 15  1  0  0  0  0
  4 16  1  0  0  0  0
  4 17  1  0  0  0  0
  5 18  1  0  0  0  0
  5 19  1  0  0  0  0
  6 20  1  0  0  0  0
  6 21  1  0  0  0  0
  8 22  1  0  0  0  0
  8 23  1  0  0  0  0
  9 24  1  0  0  0  0
 10 25  1  0  0  0  0
 10 26  1  0  0  0  0
M  END
$$$$
