C13H22O
APtclcactv06221815533D 0   0.00000     0.00000
 
 36 36  0  0  0  0  0  0  0  0999 V2000
   -0.3388    2.5868   -0.2350 C   0  0  0  0  0  0  0  0  0  0  0  0
   -1.1682    1.3491   -0.0086 C   0  0  0  0  0  0  0  0  0  0  0  0
   -0.6152    0.1995   -0.2278 C   0  0  0  0  0  0  0  0  0  0  0  0
   -1.3154   -1.1167   -0.0563 C   0  0  0  0  0  0  0  0  0  0  0  0
   -2.5749   -0.9368    0.7939 C   0  0  0  0  0  0  0  0  0  0  0  0
   -3.3793    0.2395    0.2265 C   0  0  0  0  0  0  0  0  0  0  0  0
   -2.5819    1.5259    0.4627 C   0  0  0  0  0  0  0  0  0  0  0  0
   -1.7050   -1.6667   -1.4298 C   0  0  0  0  0  0  0  0  0  0  0  0
   -0.3742   -2.1056    0.6345 C   0  0  0  0  0  0  0  0  0  0  0  0
    0.8209    0.1817   -0.6842 C   0  0  0  0  0  0  0  0  0  0  0  0
    1.7384   -0.0021    0.5263 C   0  0  0  0  0  0  0  0  0  0  0  0
    3.1746   -0.0199    0.0700 C   0  0  0  0  0  0  0  0  0  0  0  0
    3.4372    0.1018   -1.1024 O   0  0  0  0  0  0  0  0  0  0  0  0
    4.2830   -0.1896    1.0768 C   0  0  0  0  0  0  0  0  0  0  0  0
   -0.4559    2.9190   -1.2666 H   0  0  0  0  0  0  0  0  0  0  0  0
   -0.6708    3.3752    0.4405 H   0  0  0  0  0  0  0  0  0  0  0  0
    0.7102    2.3615   -0.0427 H   0  0  0  0  0  0  0  0  0  0  0  0
   -3.1764   -1.8450    0.7544 H   0  0  0  0  0  0  0  0  0  0  0  0
   -2.2935   -0.7246    1.8253 H   0  0  0  0  0  0  0  0  0  0  0  0
   -3.5379    0.0935   -0.8420 H   0  0  0  0  0  0  0  0  0  0  0  0
   -4.3402    0.3064    0.7368 H   0  0  0  0  0  0  0  0  0  0  0  0
   -2.5871    1.7640    1.5264 H   0  0  0  0  0  0  0  0  0  0  0  0
   -3.0432    2.3438   -0.0908 H   0  0  0  0  0  0  0  0  0  0  0  0
   -0.8078   -1.8072   -2.0328 H   0  0  0  0  0  0  0  0  0  0  0  0
   -2.2138   -2.6229   -1.3074 H   0  0  0  0  0  0  0  0  0  0  0  0
   -2.3708   -0.9620   -1.9279 H   0  0  0  0  0  0  0  0  0  0  0  0
   -0.0894   -1.7144    1.6112 H   0  0  0  0  0  0  0  0  0  0  0  0
   -0.8810   -3.0624    0.7600 H   0  0  0  0  0  0  0  0  0  0  0  0
    0.5183   -2.2445    0.0243 H   0  0  0  0  0  0  0  0  0  0  0  0
    0.9703   -0.6425   -1.3817 H   0  0  0  0  0  0  0  0  0  0  0  0
    1.0566    1.1238   -1.1790 H   0  0  0  0  0  0  0  0  0  0  0  0
    1.5890    0.8220    1.2239 H   0  0  0  0  0  0  0  0  0  0  0  0
    1.5027   -0.9442    1.0212 H   0  0  0  0  0  0  0  0  0  0  0  0
    3.8559   -0.2833    2.0752 H   0  0  0  0  0  0  0  0  0  0  0  0
    4.8544   -1.0872    0.8403 H   0  0  0  0  0  0  0  0  0  0  0  0
    4.9407    0.6790    1.0430 H   0  0  0  0  0  0  0  0  0  0  0  0
  1  2  1  0  0  0  0
  2  3  2  0  0  0  0
  3  4  1  0  0  0  0
  4  5  1  0  0  0  0
  5  6  1  0  0  0  0
  6  7  1  0  0  0  0
  2  7  1  0  0  0  0
  4  8  1  0  0  0  0
  4  9  1  0  0  0  0
  3 10  1  0  0  0  0
 10 11  1  0  0  0  0
 11 12  1  0  0  0  0
 12 13  2  0  0  0  0
 12 14  1  0  0  0  0
  1 15  1  0  0  0  0
  1 16  1  0  0  0  0
  1 17  1  0  0  0  0
  5 18  1  0  0  0  0
  5 19  1  0  0  0  0
  6 20  1  0  0  0  0
  6 21  1  0  0  0  0
  7 22  1  0  0  0  0
  7 23  1  0  0  0  0
  8 24  1  0  0  0  0
  8 25  1  0  0  0  0
  8 26  1  0  0  0  0
  9 27  1  0  0  0  0
  9 28  1  0  0  0  0
  9 29  1  0  0  0  0
 10 30  1  0  0  0  0
 10 31  1  0  0  0  0
 11 32  1  0  0  0  0
 11 33  1  0  0  0  0
 14 34  1  0  0  0  0
 14 35  1  0  0  0  0
 14 36  1  0  0  0  0
M  END
$$$$
