C15H24
APtclcactv06221815543D 0   0.00000     0.00000
 
 39 39  0  0  0  0  0  0  0  0999 V2000
    0.1146    2.5673    0.2597 C   0  0  0  0  0  0  0  0  0  0  0  0
    0.1818    1.0388    0.2545 C   0  0  0  0  0  0  0  0  0  0  0  0
   -1.0135    0.4784   -0.5187 C   0  0  0  0  0  0  0  0  0  0  0  0
   -2.3072    0.8242    0.2213 C   0  0  0  0  0  0  0  0  0  0  0  0
   -3.4846    0.2721   -0.5403 C   0  0  0  0  0  0  0  0  0  0  0  0
   -4.2995   -0.5752    0.0376 C   0  0  0  0  0  0  0  0  0  0  0  0
   -3.9881   -1.0999    1.4156 C   0  0  0  0  0  0  0  0  0  0  0  0
   -5.5485   -1.0253   -0.6755 C   0  0  0  0  0  0  0  0  0  0  0  0
    1.4805    0.5877   -0.4169 C   0  0  0  0  0  0  0  0  0  0  0  0
    2.6684    1.1514    0.3611 C   0  0  0  0  0  0  0  0  0  0  0  0
    3.9665    0.5649   -0.2123 C   0  0  0  0  0  0  0  0  0  0  0  0
    3.9081   -0.9358   -0.0121 C   0  0  0  0  0  0  0  0  0  0  0  0
    4.9757   -1.6182    0.3878 C   0  0  0  0  0  0  0  0  0  0  0  0
    2.6240   -1.6128   -0.2762 C   0  0  0  0  0  0  0  0  0  0  0  0
    1.5188   -0.9110   -0.4557 C   0  0  0  0  0  0  0  0  0  0  0  0
    0.1403    2.9356   -0.7659 H   0  0  0  0  0  0  0  0  0  0  0  0
   -0.8106    2.8887    0.7380 H   0  0  0  0  0  0  0  0  0  0  0  0
    0.9662    2.9666    0.8106 H   0  0  0  0  0  0  0  0  0  0  0  0
    0.1561    0.6706    1.2801 H   0  0  0  0  0  0  0  0  0  0  0  0
   -1.0379    0.9157   -1.5169 H   0  0  0  0  0  0  0  0  0  0  0  0
   -0.9191   -0.6046   -0.5988 H   0  0  0  0  0  0  0  0  0  0  0  0
   -2.2828    0.3868    1.2195 H   0  0  0  0  0  0  0  0  0  0  0  0
   -2.4017    1.9071    0.3014 H   0  0  0  0  0  0  0  0  0  0  0  0
   -3.6565    0.5751   -1.5626 H   0  0  0  0  0  0  0  0  0  0  0  0
   -4.3522   -0.3955    2.1634 H   0  0  0  0  0  0  0  0  0  0  0  0
   -4.4766   -2.0640    1.5562 H   0  0  0  0  0  0  0  0  0  0  0  0
   -2.9101   -1.2196    1.5237 H   0  0  0  0  0  0  0  0  0  0  0  0
   -5.3301   -1.9170   -1.2631 H   0  0  0  0  0  0  0  0  0  0  0  0
   -6.3229   -1.2534    0.0569 H   0  0  0  0  0  0  0  0  0  0  0  0
   -5.8959   -0.2309   -1.3361 H   0  0  0  0  0  0  0  0  0  0  0  0
    1.5071    0.9713   -1.4368 H   0  0  0  0  0  0  0  0  0  0  0  0
    2.6851    2.2370    0.2651 H   0  0  0  0  0  0  0  0  0  0  0  0
    2.5783    0.8784    1.4125 H   0  0  0  0  0  0  0  0  0  0  0  0
    4.0397    0.7948   -1.2753 H   0  0  0  0  0  0  0  0  0  0  0  0
    4.8255    0.9768    0.3174 H   0  0  0  0  0  0  0  0  0  0  0  0
    5.9063   -1.1034    0.5761 H   0  0  0  0  0  0  0  0  0  0  0  0
    4.9129   -2.6877    0.5245 H   0  0  0  0  0  0  0  0  0  0  0  0
    2.5870   -2.6911   -0.3232 H   0  0  0  0  0  0  0  0  0  0  0  0
    0.5972   -1.4432   -0.6395 H   0  0  0  0  0  0  0  0  0  0  0  0
  1  2  1  0  0  0  0
  2  3  1  0  0  0  0
  3  4  1  0  0  0  0
  4  5  1  0  0  0  0
  5  6  2  0  0  0  0
  6  7  1  0  0  0  0
  6  8  1  0  0  0  0
  2  9  1  0  0  0  0
  9 10  1  0  0  0  0
 10 11  1  0  0  0  0
 11 12  1  0  0  0  0
 12 13  2  0  0  0  0
 12 14  1  0  0  0  0
 14 15  2  0  0  0  0
  9 15  1  0  0  0  0
  1 16  1  0  0  0  0
  1 17  1  0  0  0  0
  1 18  1  0  0  0  0
  2 19  1  0  0  0  0
  3 20  1  0  0  0  0
  3 21  1  0  0  0  0
  4 22  1  0  0  0  0
  4 23  1  0  0  0  0
  5 24  1  0  0  0  0
  7 25  1  0  0  0  0
  7 26  1  0  0  0  0
  7 27  1  0  0  0  0
  8 28  1  0  0  0  0
  8 29  1  0  0  0  0
  8 30  1  0  0  0  0
  9 31  1  0  0  0  0
 10 32  1  0  0  0  0
 10 33  1  0  0  0  0
 11 34  1  0  0  0  0
 11 35  1  0  0  0  0
 13 36  1  0  0  0  0
 13 37  1  0  0  0  0
 14 38  1  0  0  0  0
 15 39  1  0  0  0  0
M  END
$$$$
