C7H14O3
APtclcactv06221815553D 0   0.00000     0.00000
 
 24 23  0  0  0  0  0  0  0  0999 V2000
    4.5346   -0.4468   -0.1546 C   0  0  0  0  0  0  0  0  0  0  0  0
    3.2048    0.2758   -0.3792 C   0  0  0  0  0  0  0  0  0  0  0  0
    2.0561   -0.6033    0.1195 C   0  0  0  0  0  0  0  0  0  0  0  0
    0.7263    0.1193   -0.1052 C   0  0  0  0  0  0  0  0  0  0  0  0
   -0.4290   -0.8079    0.2775 C   0  0  0  0  0  0  0  0  0  0  0  0
   -1.7391   -0.1432   -0.0585 C   0  0  0  0  0  0  0  0  0  0  0  0
   -1.7478    0.9591   -0.5532 O   0  0  0  0  0  0  0  0  0  0  0  0
   -2.8962   -0.7757    0.1919 O   0  0  0  0  0  0  0  0  0  0  0  0
   -4.1192   -0.0754   -0.1575 C   0  0  0  0  0  0  0  0  0  0  0  0
    0.6809    1.2960    0.7044 O   0  0  0  0  0  0  0  0  0  0  0  0
    5.3529    0.1794   -0.5099 H   0  0  0  0  0  0  0  0  0  0  0  0
    4.6647   -0.6458    0.9092 H   0  0  0  0  0  0  0  0  0  0  0  0
    4.5334   -1.3888   -0.7029 H   0  0  0  0  0  0  0  0  0  0  0  0
    3.2059    1.2178    0.1692 H   0  0  0  0  0  0  0  0  0  0  0  0
    3.0746    0.4748   -1.4430 H   0  0  0  0  0  0  0  0  0  0  0  0
    2.0549   -1.5453   -0.4289 H   0  0  0  0  0  0  0  0  0  0  0  0
    2.1863   -0.8023    1.1833 H   0  0  0  0  0  0  0  0  0  0  0  0
    0.6366    0.3971   -1.1553 H   0  0  0  0  0  0  0  0  0  0  0  0
   -0.3433   -1.7428   -0.2764 H   0  0  0  0  0  0  0  0  0  0  0  0
   -0.3901   -1.0145    1.3471 H   0  0  0  0  0  0  0  0  0  0  0  0
   -4.9785   -0.6962    0.0962 H   0  0  0  0  0  0  0  0  0  0  0  0
   -4.1721    0.8620    0.3962 H   0  0  0  0  0  0  0  0  0  0  0  0
   -4.1253    0.1337   -1.2273 H   0  0  0  0  0  0  0  0  0  0  0  0
    0.7554    1.1239    1.6530 H   0  0  0  0  0  0  0  0  0  0  0  0
  1  2  1  0  0  0  0
  2  3  1  0  0  0  0
  3  4  1  0  0  0  0
  4  5  1  0  0  0  0
  5  6  1  0  0  0  0
  6  7  2  0  0  0  0
  6  8  1  0  0  0  0
  8  9  1  0  0  0  0
  4 10  1  0  0  0  0
  1 11  1  0  0  0  0
  1 12  1  0  0  0  0
  1 13  1  0  0  0  0
  2 14  1  0  0  0  0
  2 15  1  0  0  0  0
  3 16  1  0  0  0  0
  3 17  1  0  0  0  0
  4 18  1  0  0  0  0
  5 19  1  0  0  0  0
  5 20  1  0  0  0  0
  9 21  1  0  0  0  0
  9 22  1  0  0  0  0
  9 23  1  0  0  0  0
 10 24  1  0  0  0  0
M  END
$$$$
