C12H26O
APtclcactv06221815563D 0   0.00000     0.00000
 
 39 38  0  0  0  0  0  0  0  0999 V2000
    6.8556    0.4701    0.0000 C   0  0  0  0  0  0  0  0  0  0  0  0
    5.6419   -0.4615   -0.0000 C   0  0  0  0  0  0  0  0  0  0  0  0
    4.3590    0.3723    0.0000 C   0  0  0  0  0  0  0  0  0  0  0  0
    3.1453   -0.5593   -0.0000 C   0  0  0  0  0  0  0  0  0  0  0  0
    1.8625    0.2744    0.0000 C   0  0  0  0  0  0  0  0  0  0  0  0
    0.6488   -0.6571    0.0000 C   0  0  0  0  0  0  0  0  0  0  0  0
   -0.6341    0.1766    0.0000 C   0  0  0  0  0  0  0  0  0  0  0  0
   -1.8478   -0.7549    0.0000 C   0  0  0  0  0  0  0  0  0  0  0  0
   -3.1307    0.0788    0.0000 C   0  0  0  0  0  0  0  0  0  0  0  0
   -3.1652    0.9615    1.2492 C   0  0  0  0  0  0  0  0  0  0  0  0
   -3.1652    0.9615   -1.2492 C   0  0  0  0  0  0  0  0  0  0  0  0
   -4.3444   -0.8527    0.0000 C   0  0  0  0  0  0  0  0  0  0  0  0
   -5.5425   -0.0740   -0.0000 O   0  0  0  0  0  0  0  0  0  0  0  0
    6.8310    1.0989    0.8900 H   0  0  0  0  0  0  0  0  0  0  0  0
    7.7695   -0.1239   -0.0000 H   0  0  0  0  0  0  0  0  0  0  0  0
    6.8310    1.0989   -0.8900 H   0  0  0  0  0  0  0  0  0  0  0  0
    5.6665   -1.0903   -0.8900 H   0  0  0  0  0  0  0  0  0  0  0  0
    5.6665   -1.0903    0.8900 H   0  0  0  0  0  0  0  0  0  0  0  0
    4.3344    1.0011    0.8900 H   0  0  0  0  0  0  0  0  0  0  0  0
    4.3344    1.0011   -0.8900 H   0  0  0  0  0  0  0  0  0  0  0  0
    3.1700   -1.1881   -0.8900 H   0  0  0  0  0  0  0  0  0  0  0  0
    3.1700   -1.1881    0.8900 H   0  0  0  0  0  0  0  0  0  0  0  0
    1.8378    0.9033    0.8900 H   0  0  0  0  0  0  0  0  0  0  0  0
    1.8378    0.9033   -0.8900 H   0  0  0  0  0  0  0  0  0  0  0  0
    0.6734   -1.2860   -0.8900 H   0  0  0  0  0  0  0  0  0  0  0  0
    0.6734   -1.2860    0.8900 H   0  0  0  0  0  0  0  0  0  0  0  0
   -0.6587    0.8055    0.8900 H   0  0  0  0  0  0  0  0  0  0  0  0
   -0.6587    0.8055   -0.8900 H   0  0  0  0  0  0  0  0  0  0  0  0
   -1.8232   -1.3838   -0.8900 H   0  0  0  0  0  0  0  0  0  0  0  0
   -1.8232   -1.3838    0.8900 H   0  0  0  0  0  0  0  0  0  0  0  0
   -2.3006    1.6252    1.2492 H   0  0  0  0  0  0  0  0  0  0  0  0
   -4.0792    1.5555    1.2492 H   0  0  0  0  0  0  0  0  0  0  0  0
   -3.1406    0.3327    2.1392 H   0  0  0  0  0  0  0  0  0  0  0  0
   -3.1406    0.3327   -2.1392 H   0  0  0  0  0  0  0  0  0  0  0  0
   -4.0792    1.5555   -1.2492 H   0  0  0  0  0  0  0  0  0  0  0  0
   -2.3006    1.6252   -1.2492 H   0  0  0  0  0  0  0  0  0  0  0  0
   -4.3197   -1.4816   -0.8900 H   0  0  0  0  0  0  0  0  0  0  0  0
   -4.3197   -1.4816    0.8900 H   0  0  0  0  0  0  0  0  0  0  0  0
   -6.3537   -0.6004   -0.0000 H   0  0  0  0  0  0  0  0  0  0  0  0
  1  2  1  0  0  0  0
  2  3  1  0  0  0  0
  3  4  1  0  0  0  0
  4  5  1  0  0  0  0
  5  6  1  0  0  0  0
  6  7  1  0  0  0  0
  7  8  1  0  0  0  0
  8  9  1  0  0  0  0
  9 10  1  0  0  0  0
  9 11  1  0  0  0  0
  9 12  1  0  0  0  0
 12 13  1  0  0  0  0
  1 14  1  0  0  0  0
  1 15  1  0  0  0  0
  1 16  1  0  0  0  0
  2 17  1  0  0  0  0
  2 18  1  0  0  0  0
  3 19  1  0  0  0  0
  3 20  1  0  0  0  0
  4 21  1  0  0  0  0
  4 22  1  0  0  0  0
  5 23  1  0  0  0  0
  5 24  1  0  0  0  0
  6 25  1  0  0  0  0
  6 26  1  0  0  0  0
  7 27  1  0  0  0  0
  7 28  1  0  0  0  0
  8 29  1  0  0  0  0
  8 30  1  0  0  0  0
 10 31  1  0  0  0  0
 10 32  1  0  0  0  0
 10 33  1  0  0  0  0
 11 34  1  0  0  0  0
 11 35  1  0  0  0  0
 11 36  1  0  0  0  0
 12 37  1  0  0  0  0
 12 38  1  0  0  0  0
 13 39  1  0  0  0  0
M  END
$$$$
