C15H32
APtclcactv06221815563D 0   0.00000     0.00000
 
 47 46  0  0  0  0  0  0  0  0999 V2000
    8.4101   -0.3201   -0.2076 C   0  0  0  0  0  0  0  0  0  0  0  0
    7.1635    0.4644    0.2065 C   0  0  0  0  0  0  0  0  0  0  0  0
    5.9116   -0.3124   -0.2060 C   0  0  0  0  0  0  0  0  0  0  0  0
    4.6651    0.4721    0.2081 C   0  0  0  0  0  0  0  0  0  0  0  0
    3.4132   -0.3047   -0.2043 C   0  0  0  0  0  0  0  0  0  0  0  0
    2.1666    0.4798    0.2098 C   0  0  0  0  0  0  0  0  0  0  0  0
    0.9147   -0.2970   -0.2027 C   0  0  0  0  0  0  0  0  0  0  0  0
   -0.3319    0.4875    0.2114 C   0  0  0  0  0  0  0  0  0  0  0  0
   -1.5838   -0.2894   -0.2011 C   0  0  0  0  0  0  0  0  0  0  0  0
   -2.8303    0.4952    0.2130 C   0  0  0  0  0  0  0  0  0  0  0  0
   -4.0822   -0.2817   -0.1995 C   0  0  0  0  0  0  0  0  0  0  0  0
   -4.1502   -1.5933    0.5854 C   0  0  0  0  0  0  0  0  0  0  0  0
   -5.3255    0.5577    0.1014 C   0  0  0  0  0  0  0  0  0  0  0  0
   -6.5678   -0.1644   -0.4240 C   0  0  0  0  0  0  0  0  0  0  0  0
   -7.8111    0.6750   -0.1231 C   0  0  0  0  0  0  0  0  0  0  0  0
    9.3020    0.2333    0.0862 H   0  0  0  0  0  0  0  0  0  0  0  0
    8.4074   -1.2927    0.2845 H   0  0  0  0  0  0  0  0  0  0  0  0
    8.4090   -0.4599   -1.2886 H   0  0  0  0  0  0  0  0  0  0  0  0
    7.1647    0.6042    1.2875 H   0  0  0  0  0  0  0  0  0  0  0  0
    7.1662    1.4370   -0.2857 H   0  0  0  0  0  0  0  0  0  0  0  0
    5.9105   -0.4522   -1.2870 H   0  0  0  0  0  0  0  0  0  0  0  0
    5.9090   -1.2850    0.2862 H   0  0  0  0  0  0  0  0  0  0  0  0
    4.6662    0.6119    1.2891 H   0  0  0  0  0  0  0  0  0  0  0  0
    4.6677    1.4447   -0.2840 H   0  0  0  0  0  0  0  0  0  0  0  0
    3.4120   -0.4445   -1.2853 H   0  0  0  0  0  0  0  0  0  0  0  0
    3.4105   -1.2773    0.2878 H   0  0  0  0  0  0  0  0  0  0  0  0
    2.1677    0.6196    1.2907 H   0  0  0  0  0  0  0  0  0  0  0  0
    2.1693    1.4524   -0.2824 H   0  0  0  0  0  0  0  0  0  0  0  0
    0.9136   -0.4368   -1.2837 H   0  0  0  0  0  0  0  0  0  0  0  0
    0.9120   -1.2696    0.2894 H   0  0  0  0  0  0  0  0  0  0  0  0
   -0.3307    0.6273    1.2924 H   0  0  0  0  0  0  0  0  0  0  0  0
   -0.3292    1.4601   -0.2808 H   0  0  0  0  0  0  0  0  0  0  0  0
   -1.5849   -0.4292   -1.2821 H   0  0  0  0  0  0  0  0  0  0  0  0
   -1.5864   -1.2619    0.2911 H   0  0  0  0  0  0  0  0  0  0  0  0
   -2.8292    0.6350    1.2940 H   0  0  0  0  0  0  0  0  0  0  0  0
   -2.8277    1.4678   -0.2791 H   0  0  0  0  0  0  0  0  0  0  0  0
   -4.0399   -0.4987   -1.2668 H   0  0  0  0  0  0  0  0  0  0  0  0
   -5.0421   -2.1467    0.2915 H   0  0  0  0  0  0  0  0  0  0  0  0
   -3.2645   -2.1913    0.3710 H   0  0  0  0  0  0  0  0  0  0  0  0
   -4.1925   -1.3762    1.6527 H   0  0  0  0  0  0  0  0  0  0  0  0
   -5.4161    0.6998    1.1783 H   0  0  0  0  0  0  0  0  0  0  0  0
   -5.2357    1.5281   -0.3868 H   0  0  0  0  0  0  0  0  0  0  0  0
   -6.4773   -0.3065   -1.5009 H   0  0  0  0  0  0  0  0  0  0  0  0
   -6.6577   -1.1348    0.0643 H   0  0  0  0  0  0  0  0  0  0  0  0
   -8.6962    0.1605   -0.4974 H   0  0  0  0  0  0  0  0  0  0  0  0
   -7.9017    0.8171    0.9538 H   0  0  0  0  0  0  0  0  0  0  0  0
   -7.7213    1.6453   -0.6113 H   0  0  0  0  0  0  0  0  0  0  0  0
  1  2  1  0  0  0  0
  2  3  1  0  0  0  0
  3  4  1  0  0  0  0
  4  5  1  0  0  0  0
  5  6  1  0  0  0  0
  6  7  1  0  0  0  0
  7  8  1  0  0  0  0
  8  9  1  0  0  0  0
  9 10  1  0  0  0  0
 10 11  1  0  0  0  0
 11 12  1  0  0  0  0
 11 13  1  0  0  0  0
 13 14  1  0  0  0  0
 14 15  1  0  0  0  0
  1 16  1  0  0  0  0
  1 17  1  0  0  0  0
  1 18  1  0  0  0  0
  2 19  1  0  0  0  0
  2 20  1  0  0  0  0
  3 21  1  0  0  0  0
  3 22  1  0  0  0  0
  4 23  1  0  0  0  0
  4 24  1  0  0  0  0
  5 25  1  0  0  0  0
  5 26  1  0  0  0  0
  6 27  1  0  0  0  0
  6 28  1  0  0  0  0
  7 29  1  0  0  0  0
  7 30  1  0  0  0  0
  8 31  1  0  0  0  0
  8 32  1  0  0  0  0
  9 33  1  0  0  0  0
  9 34  1  0  0  0  0
 10 35  1  0  0  0  0
 10 36  1  0  0  0  0
 11 37  1  0  0  0  0
 12 38  1  0  0  0  0
 12 39  1  0  0  0  0
 12 40  1  0  0  0  0
 13 41  1  0  0  0  0
 13 42  1  0  0  0  0
 14 43  1  0  0  0  0
 14 44  1  0  0  0  0
 15 45  1  0  0  0  0
 15 46  1  0  0  0  0
 15 47  1  0  0  0  0
M  END
$$$$
