C18H38
APtclcactv06221815563D 0   0.00000     0.00000
 
 56 55  0  0  0  0  0  0  0  0999 V2000
   10.3453    0.3350    0.1417 C   0  0  0  0  0  0  0  0  0  0  0  0
    9.0856   -0.4521   -0.2252 C   0  0  0  0  0  0  0  0  0  0  0  0
    7.8470    0.3642    0.1493 C   0  0  0  0  0  0  0  0  0  0  0  0
    6.5873   -0.4229   -0.2176 C   0  0  0  0  0  0  0  0  0  0  0  0
    5.3487    0.3934    0.1569 C   0  0  0  0  0  0  0  0  0  0  0  0
    4.0890   -0.3937   -0.2100 C   0  0  0  0  0  0  0  0  0  0  0  0
    2.8504    0.4226    0.1645 C   0  0  0  0  0  0  0  0  0  0  0  0
    1.5907   -0.3645   -0.2024 C   0  0  0  0  0  0  0  0  0  0  0  0
    0.3521    0.4519    0.1721 C   0  0  0  0  0  0  0  0  0  0  0  0
   -0.9076   -0.3353   -0.1948 C   0  0  0  0  0  0  0  0  0  0  0  0
   -2.1462    0.4811    0.1797 C   0  0  0  0  0  0  0  0  0  0  0  0
   -3.4059   -0.3060   -0.1872 C   0  0  0  0  0  0  0  0  0  0  0  0
   -4.6445    0.5103    0.1873 C   0  0  0  0  0  0  0  0  0  0  0  0
   -5.9042   -0.2768   -0.1796 C   0  0  0  0  0  0  0  0  0  0  0  0
   -5.9808   -1.5437    0.6748 C   0  0  0  0  0  0  0  0  0  0  0  0
   -7.1394    0.5882    0.0789 C   0  0  0  0  0  0  0  0  0  0  0  0
   -8.3893   -0.1505   -0.4038 C   0  0  0  0  0  0  0  0  0  0  0  0
   -9.6246    0.7145   -0.1453 C   0  0  0  0  0  0  0  0  0  0  0  0
   10.3509    0.5327    1.2136 H   0  0  0  0  0  0  0  0  0  0  0  0
   11.2277   -0.2466   -0.1251 H   0  0  0  0  0  0  0  0  0  0  0  0
   10.3547    1.2796   -0.4021 H   0  0  0  0  0  0  0  0  0  0  0  0
    9.0801   -0.6498   -1.2971 H   0  0  0  0  0  0  0  0  0  0  0  0
    9.0762   -1.3968    0.3185 H   0  0  0  0  0  0  0  0  0  0  0  0
    7.8526    0.5619    1.2212 H   0  0  0  0  0  0  0  0  0  0  0  0
    7.8564    1.3089   -0.3945 H   0  0  0  0  0  0  0  0  0  0  0  0
    6.5818   -0.6206   -1.2895 H   0  0  0  0  0  0  0  0  0  0  0  0
    6.5779   -1.3676    0.3261 H   0  0  0  0  0  0  0  0  0  0  0  0
    5.3543    0.5911    1.2288 H   0  0  0  0  0  0  0  0  0  0  0  0
    5.3581    1.3381   -0.3869 H   0  0  0  0  0  0  0  0  0  0  0  0
    4.0835   -0.5914   -1.2819 H   0  0  0  0  0  0  0  0  0  0  0  0
    4.0796   -1.3383    0.3337 H   0  0  0  0  0  0  0  0  0  0  0  0
    2.8560    0.6203    1.2364 H   0  0  0  0  0  0  0  0  0  0  0  0
    2.8598    1.3673   -0.3793 H   0  0  0  0  0  0  0  0  0  0  0  0
    1.5852   -0.5622   -1.2743 H   0  0  0  0  0  0  0  0  0  0  0  0
    1.5813   -1.3091    0.3413 H   0  0  0  0  0  0  0  0  0  0  0  0
    0.3577    0.6496    1.2440 H   0  0  0  0  0  0  0  0  0  0  0  0
    0.3615    1.3965   -0.3717 H   0  0  0  0  0  0  0  0  0  0  0  0
   -0.9131   -0.5329   -1.2667 H   0  0  0  0  0  0  0  0  0  0  0  0
   -0.9170   -1.2799    0.3489 H   0  0  0  0  0  0  0  0  0  0  0  0
   -2.1406    0.6788    1.2516 H   0  0  0  0  0  0  0  0  0  0  0  0
   -2.1368    1.4257   -0.3641 H   0  0  0  0  0  0  0  0  0  0  0  0
   -3.4114   -0.5037   -1.2591 H   0  0  0  0  0  0  0  0  0  0  0  0
   -3.4152   -1.2507    0.3565 H   0  0  0  0  0  0  0  0  0  0  0  0
   -4.6389    0.7080    1.2592 H   0  0  0  0  0  0  0  0  0  0  0  0
   -4.6351    1.4549   -0.3565 H   0  0  0  0  0  0  0  0  0  0  0  0
   -5.8669   -0.5513   -1.2338 H   0  0  0  0  0  0  0  0  0  0  0  0
   -6.0181   -1.2693    1.7290 H   0  0  0  0  0  0  0  0  0  0  0  0
   -6.8782   -2.1045    0.4134 H   0  0  0  0  0  0  0  0  0  0  0  0
   -5.1008   -2.1600    0.4906 H   0  0  0  0  0  0  0  0  0  0  0  0
   -7.2255    0.7887    1.1468 H   0  0  0  0  0  0  0  0  0  0  0  0
   -7.0428    1.5301   -0.4611 H   0  0  0  0  0  0  0  0  0  0  0  0
   -8.3032   -0.3511   -1.4717 H   0  0  0  0  0  0  0  0  0  0  0  0
   -8.4859   -1.0924    0.1362 H   0  0  0  0  0  0  0  0  0  0  0  0
   -9.7107    0.9150    0.9227 H   0  0  0  0  0  0  0  0  0  0  0  0
   -9.5280    1.6564   -0.6852 H   0  0  0  0  0  0  0  0  0  0  0  0
  -10.5151    0.1883   -0.4891 H   0  0  0  0  0  0  0  0  0  0  0  0
  1  2  1  0  0  0  0
  2  3  1  0  0  0  0
  3  4  1  0  0  0  0
  4  5  1  0  0  0  0
  5  6  1  0  0  0  0
  6  7  1  0  0  0  0
  7  8  1  0  0  0  0
  8  9  1  0  0  0  0
  9 10  1  0  0  0  0
 10 11  1  0  0  0  0
 11 12  1  0  0  0  0
 12 13  1  0  0  0  0
 13 14  1  0  0  0  0
 14 15  1  0  0  0  0
 14 16  1  0  0  0  0
 16 17  1  0  0  0  0
 17 18  1  0  0  0  0
  1 19  1  0  0  0  0
  1 20  1  0  0  0  0
  1 21  1  0  0  0  0
  2 22  1  0  0  0  0
  2 23  1  0  0  0  0
  3 24  1  0  0  0  0
  3 25  1  0  0  0  0
  4 26  1  0  0  0  0
  4 27  1  0  0  0  0
  5 28  1  0  0  0  0
  5 29  1  0  0  0  0
  6 30  1  0  0  0  0
  6 31  1  0  0  0  0
  7 32  1  0  0  0  0
  7 33  1  0  0  0  0
  8 34  1  0  0  0  0
  8 35  1  0  0  0  0
  9 36  1  0  0  0  0
  9 37  1  0  0  0  0
 10 38  1  0  0  0  0
 10 39  1  0  0  0  0
 11 40  1  0  0  0  0
 11 41  1  0  0  0  0
 12 42  1  0  0  0  0
 12 43  1  0  0  0  0
 13 44  1  0  0  0  0
 13 45  1  0  0  0  0
 14 46  1  0  0  0  0
 15 47  1  0  0  0  0
 15 48  1  0  0  0  0
 15 49  1  0  0  0  0
 16 50  1  0  0  0  0
 16 51  1  0  0  0  0
 17 52  1  0  0  0  0
 17 53  1  0  0  0  0
 18 54  1  0  0  0  0
 18 55  1  0  0  0  0
 18 56  1  0  0  0  0
M  END
$$$$
