C20H32
APtclcactv06221815563D 0   0.00000     0.00000
 
 52 55  0  0  0  0  0  0  0  0999 V2000
    3.3955   -0.4883   -1.4465 C   0  0  0  0  0  0  0  0  0  0  0  0
    3.0376   -0.4562    0.0388 C   0  0  0  0  0  0  0  0  0  0  0  0
    3.6191    0.7989    0.6902 C   0  0  0  0  0  0  0  0  0  0  0  0
    2.7836    2.0370    0.3904 C   0  0  0  0  0  0  0  0  0  0  0  0
    1.3421    1.8208    0.8449 C   0  0  0  0  0  0  0  0  0  0  0  0
    0.7176    0.6611    0.0495 C   0  0  0  0  0  0  0  0  0  0  0  0
    1.5540   -0.5922    0.2913 C   0  0  0  0  0  0  0  0  0  0  0  0
    0.9343   -1.7884   -0.4267 C   0  0  0  0  0  0  0  0  0  0  0  0
   -0.4124   -2.0948    0.2466 C   0  0  0  0  0  0  0  0  0  0  0  0
   -1.3271   -0.8924    0.1431 C   0  0  0  0  0  0  0  0  0  0  0  0
   -0.6826    0.4065    0.5883 C   0  0  0  0  0  0  0  0  0  0  0  0
   -1.6356    1.5849    0.4709 C   0  0  0  0  0  0  0  0  0  0  0  0
   -2.4660    1.5714   -0.8080 C   0  0  0  0  0  0  0  0  0  0  0  0
   -3.1041    0.1902   -1.0102 C   0  0  0  0  0  0  0  0  0  0  0  0
   -1.9241   -0.7873   -1.2758 C   0  0  0  0  0  0  0  0  0  0  0  0
   -3.6805   -0.2869    0.3132 C   0  0  0  0  0  0  0  0  0  0  0  0
   -4.8884   -0.0501    0.7671 C   0  0  0  0  0  0  0  0  0  0  0  0
   -2.5975   -1.0916    1.0086 C   0  0  0  0  0  0  0  0  0  0  0  0
    0.6726    1.0616   -1.4206 C   0  0  0  0  0  0  0  0  0  0  0  0
    3.7533   -1.6592    0.7026 C   0  0  0  0  0  0  0  0  0  0  0  0
    4.4716   -0.6219   -1.5581 H   0  0  0  0  0  0  0  0  0  0  0  0
    2.8748   -1.3161   -1.9279 H   0  0  0  0  0  0  0  0  0  0  0  0
    3.0956    0.4501   -1.9129 H   0  0  0  0  0  0  0  0  0  0  0  0
    3.6695    0.6471    1.7724 H   0  0  0  0  0  0  0  0  0  0  0  0
    4.6375    0.9513    0.3185 H   0  0  0  0  0  0  0  0  0  0  0  0
    3.2006    2.8851    0.9541 H   0  0  0  0  0  0  0  0  0  0  0  0
    2.8326    2.2886   -0.6637 H   0  0  0  0  0  0  0  0  0  0  0  0
    1.3252    1.5713    1.9054 H   0  0  0  0  0  0  0  0  0  0  0  0
    0.7652    2.7272    0.6719 H   0  0  0  0  0  0  0  0  0  0  0  0
    1.4455   -0.8161    1.3843 H   0  0  0  0  0  0  0  0  0  0  0  0
    0.7718   -1.5756   -1.4781 H   0  0  0  0  0  0  0  0  0  0  0  0
    1.5740   -2.6651   -0.3334 H   0  0  0  0  0  0  0  0  0  0  0  0
   -0.8770   -2.9504   -0.2430 H   0  0  0  0  0  0  0  0  0  0  0  0
   -0.2428   -2.3286    1.2994 H   0  0  0  0  0  0  0  0  0  0  0  0
   -0.5322    0.2862    1.6968 H   0  0  0  0  0  0  0  0  0  0  0  0
   -2.3154    1.5712    1.3285 H   0  0  0  0  0  0  0  0  0  0  0  0
   -1.0690    2.5164    0.5133 H   0  0  0  0  0  0  0  0  0  0  0  0
   -3.2626    2.3181   -0.7196 H   0  0  0  0  0  0  0  0  0  0  0  0
   -1.8520    1.8248   -1.6666 H   0  0  0  0  0  0  0  0  0  0  0  0
   -3.8401    0.1840   -1.8131 H   0  0  0  0  0  0  0  0  0  0  0  0
   -1.2396   -0.4099   -2.0195 H   0  0  0  0  0  0  0  0  0  0  0  0
   -2.3119   -1.7653   -1.5997 H   0  0  0  0  0  0  0  0  0  0  0  0
   -5.5802    0.5367    0.1809 H   0  0  0  0  0  0  0  0  0  0  0  0
   -5.1911   -0.4419    1.7270 H   0  0  0  0  0  0  0  0  0  0  0  0
   -2.8562   -2.1477    1.0307 H   0  0  0  0  0  0  0  0  0  0  0  0
   -2.4165   -0.7121    2.0107 H   0  0  0  0  0  0  0  0  0  0  0  0
    1.6671    1.3690   -1.7440 H   0  0  0  0  0  0  0  0  0  0  0  0
    0.3424    0.2122   -2.0186 H   0  0  0  0  0  0  0  0  0  0  0  0
   -0.0238    1.8900   -1.5503 H   0  0  0  0  0  0  0  0  0  0  0  0
    4.8301   -1.5631    0.5635 H   0  0  0  0  0  0  0  0  0  0  0  0
    3.5246   -1.6752    1.7682 H   0  0  0  0  0  0  0  0  0  0  0  0
    3.4088   -2.5856    0.2430 H   0  0  0  0  0  0  0  0  0  0  0  0
  1  2  1  0  0  0  0
  2  3  1  0  0  0  0
  3  4  1  0  0  0  0
  4  5  1  0  0  0  0
  5  6  1  0  0  0  0
  6  7  1  0  0  0  0
  2  7  1  0  0  0  0
  7  8  1  0  0  0  0
  8  9  1  0  0  0  0
  9 10  1  0  0  0  0
 10 11  1  0  0  0  0
  6 11  1  0  0  0  0
 11 12  1  0  0  0  0
 12 13  1  0  0  0  0
 13 14  1  0  0  0  0
 14 15  1  0  0  0  0
 10 15  1  0  0  0  0
 14 16  1  0  0  0  0
 16 17  2  0  0  0  0
 16 18  1  0  0  0  0
 10 18  1  0  0  0  0
  6 19  1  0  0  0  0
  2 20  1  0  0  0  0
  1 21  1  0  0  0  0
  1 22  1  0  0  0  0
  1 23  1  0  0  0  0
  3 24  1  0  0  0  0
  3 25  1  0  0  0  0
  4 26  1  0  0  0  0
  4 27  1  0  0  0  0
  5 28  1  0  0  0  0
  5 29  1  0  0  0  0
  7 30  1  0  0  0  0
  8 31  1  0  0  0  0
  8 32  1  0  0  0  0
  9 33  1  0  0  0  0
  9 34  1  0  0  0  0
 11 35  1  0  0  0  0
 12 36  1  0  0  0  0
 12 37  1  0  0  0  0
 13 38  1  0  0  0  0
 13 39  1  0  0  0  0
 14 40  1  0  0  0  0
 15 41  1  0  0  0  0
 15 42  1  0  0  0  0
 17 43  1  0  0  0  0
 17 44  1  0  0  0  0
 18 45  1  0  0  0  0
 18 46  1  0  0  0  0
 19 47  1  0  0  0  0
 19 48  1  0  0  0  0
 19 49  1  0  0  0  0
 20 50  1  0  0  0  0
 20 51  1  0  0  0  0
 20 52  1  0  0  0  0
M  END
$$$$
