C6H12S3
APtclcactv06221815563D 0   0.00000     0.00000
 
 21 21  0  0  0  0  0  0  0  0999 V2000
    3.8413    0.0921   -0.1969 C   0  0  0  0  0  0  0  0  0  0  0  0
    2.5750    0.9161   -0.4385 C   0  0  0  0  0  0  0  0  0  0  0  0
    1.4400    0.3742    0.4328 C   0  0  0  0  0  0  0  0  0  0  0  0
   -0.0131    1.4372    0.2581 S   0  0  0  0  0  0  0  0  0  0  0  0
   -1.3505    0.3814   -0.3717 C   0  0  0  0  0  0  0  0  0  0  0  0
   -1.0080   -1.3008    0.2736 S   0  0  0  0  0  0  0  0  0  0  0  0
    1.0275   -1.3215   -0.0940 S   0  0  0  0  0  0  0  0  0  0  0  0
   -2.7024    0.8790    0.1435 C   0  0  0  0  0  0  0  0  0  0  0  0
   -3.8249    0.0577   -0.4941 C   0  0  0  0  0  0  0  0  0  0  0  0
    4.6499    0.4782   -0.8176 H   0  0  0  0  0  0  0  0  0  0  0  0
    4.1248    0.1611    0.8533 H   0  0  0  0  0  0  0  0  0  0  0  0
    3.6514   -0.9499   -0.4543 H   0  0  0  0  0  0  0  0  0  0  0  0
    2.7649    1.9581   -0.1811 H   0  0  0  0  0  0  0  0  0  0  0  0
    2.2915    0.8471   -1.4887 H   0  0  0  0  0  0  0  0  0  0  0  0
    1.7573    0.3622    1.4755 H   0  0  0  0  0  0  0  0  0  0  0  0
   -1.3424    0.3747   -1.4617 H   0  0  0  0  0  0  0  0  0  0  0  0
   -2.7415    0.7680    1.2272 H   0  0  0  0  0  0  0  0  0  0  0  0
   -2.8269    1.9297   -0.1188 H   0  0  0  0  0  0  0  0  0  0  0  0
   -4.7880    0.4122   -0.1270 H   0  0  0  0  0  0  0  0  0  0  0  0
   -3.7858    0.1688   -1.5777 H   0  0  0  0  0  0  0  0  0  0  0  0
   -3.7004   -0.9929   -0.2318 H   0  0  0  0  0  0  0  0  0  0  0  0
  1  2  1  0  0  0  0
  2  3  1  0  0  0  0
  3  4  1  0  0  0  0
  4  5  1  0  0  0  0
  5  6  1  0  0  0  0
  6  7  1  0  0  0  0
  3  7  1  0  0  0  0
  5  8  1  0  0  0  0
  8  9  1  0  0  0  0
  1 10  1  0  0  0  0
  1 11  1  0  0  0  0
  1 12  1  0  0  0  0
  2 13  1  0  0  0  0
  2 14  1  0  0  0  0
  3 15  1  0  0  0  0
  5 16  1  0  0  0  0
  8 17  1  0  0  0  0
  8 18  1  0  0  0  0
  9 19  1  0  0  0  0
  9 20  1  0  0  0  0
  9 21  1  0  0  0  0
M  END
$$$$
