C10H20O2
APtclcactv06221815563D 0   0.00000     0.00000
 
 32 31  0  0  0  0  0  0  0  0999 V2000
    5.3773   -0.3296   -0.0345 C   0  0  0  0  0  0  0  0  0  0  0  0
    3.9379   -0.6765    0.3512 C   0  0  0  0  0  0  0  0  0  0  0  0
    2.9952    0.4130   -0.1638 C   0  0  0  0  0  0  0  0  0  0  0  0
    1.5559    0.0661    0.2219 C   0  0  0  0  0  0  0  0  0  0  0  0
    0.6132    1.1556   -0.2930 C   0  0  0  0  0  0  0  0  0  0  0  0
   -0.8262    0.8087    0.0926 C   0  0  0  0  0  0  0  0  0  0  0  0
   -1.7534    1.9566   -0.3119 C   0  0  0  0  0  0  0  0  0  0  0  0
   -3.1712    1.6660    0.1842 C   0  0  0  0  0  0  0  0  0  0  0  0
   -1.2317   -0.4055   -0.5927 O   0  0  0  0  0  0  0  0  0  0  0  0
   -2.1315   -1.1842    0.0283 C   0  0  0  0  0  0  0  0  0  0  0  0
   -2.5660   -0.8620    1.1087 O   0  0  0  0  0  0  0  0  0  0  0  0
   -2.5999   -2.4604   -0.6221 C   0  0  0  0  0  0  0  0  0  0  0  0
    5.6516    0.6276    0.4089 H   0  0  0  0  0  0  0  0  0  0  0  0
    6.0489   -1.1058    0.3324 H   0  0  0  0  0  0  0  0  0  0  0  0
    5.4568   -0.2634   -1.1196 H   0  0  0  0  0  0  0  0  0  0  0  0
    3.6636   -1.6337   -0.0923 H   0  0  0  0  0  0  0  0  0  0  0  0
    3.8584   -0.7427    1.4363 H   0  0  0  0  0  0  0  0  0  0  0  0
    3.2696    1.3702    0.2797 H   0  0  0  0  0  0  0  0  0  0  0  0
    3.0747    0.4792   -1.2489 H   0  0  0  0  0  0  0  0  0  0  0  0
    1.2815   -0.8911   -0.2215 H   0  0  0  0  0  0  0  0  0  0  0  0
    1.4763   -0.0001    1.3070 H   0  0  0  0  0  0  0  0  0  0  0  0
    0.8875    2.1128    0.1504 H   0  0  0  0  0  0  0  0  0  0  0  0
    0.6927    1.2218   -1.3781 H   0  0  0  0  0  0  0  0  0  0  0  0
   -0.8867    0.6553    1.1701 H   0  0  0  0  0  0  0  0  0  0  0  0
   -1.3964    2.8858    0.1322 H   0  0  0  0  0  0  0  0  0  0  0  0
   -1.7608    2.0522   -1.3977 H   0  0  0  0  0  0  0  0  0  0  0  0
   -3.8318    2.4837   -0.1040 H   0  0  0  0  0  0  0  0  0  0  0  0
   -3.5283    0.7368   -0.2599 H   0  0  0  0  0  0  0  0  0  0  0  0
   -3.1638    1.5704    1.2700 H   0  0  0  0  0  0  0  0  0  0  0  0
   -2.1017   -2.5821   -1.5840 H   0  0  0  0  0  0  0  0  0  0  0  0
   -2.3585   -3.3062    0.0217 H   0  0  0  0  0  0  0  0  0  0  0  0
   -3.6783   -2.4160   -0.7745 H   0  0  0  0  0  0  0  0  0  0  0  0
  1  2  1  0  0  0  0
  2  3  1  0  0  0  0
  3  4  1  0  0  0  0
  4  5  1  0  0  0  0
  5  6  1  0  0  0  0
  6  7  1  0  0  0  0
  7  8  1  0  0  0  0
  6  9  1  0  0  0  0
  9 10  1  0  0  0  0
 10 11  2  0  0  0  0
 10 12  1  0  0  0  0
  1 13  1  0  0  0  0
  1 14  1  0  0  0  0
  1 15  1  0  0  0  0
  2 16  1  0  0  0  0
  2 17  1  0  0  0  0
  3 18  1  0  0  0  0
  3 19  1  0  0  0  0
  4 20  1  0  0  0  0
  4 21  1  0  0  0  0
  5 22  1  0  0  0  0
  5 23  1  0  0  0  0
  6 24  1  0  0  0  0
  7 25  1  0  0  0  0
  7 26  1  0  0  0  0
  8 27  1  0  0  0  0
  8 28  1  0  0  0  0
  8 29  1  0  0  0  0
 12 30  1  0  0  0  0
 12 31  1  0  0  0  0
 12 32  1  0  0  0  0
M  END
$$$$
