C15H24
APtclcactv06221815563D 0   0.00000     0.00000
 
 39 40  0  0  0  0  0  0  0  0999 V2000
    3.0277    2.6964   -0.1472 C   0  0  0  0  0  0  0  0  0  0  0  0
    2.2295    1.4198   -0.0833 C   0  0  0  0  0  0  0  0  0  0  0  0
    2.8477    0.3342    0.2575 C   0  0  0  0  0  0  0  0  0  0  0  0
    2.1889   -1.0116    0.3697 C   0  0  0  0  0  0  0  0  0  0  0  0
    0.8497   -0.9909   -0.3697 C   0  0  0  0  0  0  0  0  0  0  0  0
    0.0612    0.2354    0.1081 C   0  0  0  0  0  0  0  0  0  0  0  0
    0.7652    1.4879   -0.4132 C   0  0  0  0  0  0  0  0  0  0  0  0
   -1.3573    0.1495   -0.4600 C   0  0  0  0  0  0  0  0  0  0  0  0
   -2.0694   -1.0377    0.1929 C   0  0  0  0  0  0  0  0  0  0  0  0
   -1.2011   -2.2602    0.1433 C   0  0  0  0  0  0  0  0  0  0  0  0
    0.0722   -2.2409   -0.0960 C   0  0  0  0  0  0  0  0  0  0  0  0
    0.8136   -3.5530   -0.0995 C   0  0  0  0  0  0  0  0  0  0  0  0
   -2.1161    1.4405   -0.1460 C   0  0  0  0  0  0  0  0  0  0  0  0
   -3.5332    1.3505   -0.7156 C   0  0  0  0  0  0  0  0  0  0  0  0
   -2.1871    1.6344    1.3700 C   0  0  0  0  0  0  0  0  0  0  0  0
    4.0641    2.4907    0.1204 H   0  0  0  0  0  0  0  0  0  0  0  0
    2.9870    3.1001   -1.1589 H   0  0  0  0  0  0  0  0  0  0  0  0
    2.6094    3.4218    0.5506 H   0  0  0  0  0  0  0  0  0  0  0  0
    3.9036    0.4002    0.4744 H   0  0  0  0  0  0  0  0  0  0  0  0
    2.8355   -1.7701   -0.0715 H   0  0  0  0  0  0  0  0  0  0  0  0
    2.0196   -1.2463    1.4206 H   0  0  0  0  0  0  0  0  0  0  0  0
    1.0297   -0.9100   -1.4417 H   0  0  0  0  0  0  0  0  0  0  0  0
    0.0321    0.2566    1.1975 H   0  0  0  0  0  0  0  0  0  0  0  0
    0.3250    2.3710    0.0500 H   0  0  0  0  0  0  0  0  0  0  0  0
    0.6453    1.5480   -1.4949 H   0  0  0  0  0  0  0  0  0  0  0  0
   -1.3115    0.0010   -1.5389 H   0  0  0  0  0  0  0  0  0  0  0  0
   -2.2936   -0.7966    1.2320 H   0  0  0  0  0  0  0  0  0  0  0  0
   -3.0010   -1.2354   -0.3374 H   0  0  0  0  0  0  0  0  0  0  0  0
   -1.6675   -3.2183    0.3188 H   0  0  0  0  0  0  0  0  0  0  0  0
    0.1175   -4.3642    0.1135 H   0  0  0  0  0  0  0  0  0  0  0  0
    1.2675   -3.7112   -1.0778 H   0  0  0  0  0  0  0  0  0  0  0  0
    1.5920   -3.5325    0.6632 H   0  0  0  0  0  0  0  0  0  0  0  0
   -1.5964    2.2861   -0.5965 H   0  0  0  0  0  0  0  0  0  0  0  0
   -3.4833    1.1120   -1.7781 H   0  0  0  0  0  0  0  0  0  0  0  0
   -4.0858    0.5693   -0.1935 H   0  0  0  0  0  0  0  0  0  0  0  0
   -4.0402    2.3060   -0.5812 H   0  0  0  0  0  0  0  0  0  0  0  0
   -1.1775    1.6985    1.7758 H   0  0  0  0  0  0  0  0  0  0  0  0
   -2.7277    2.5541    1.5937 H   0  0  0  0  0  0  0  0  0  0  0  0
   -2.7068    0.7887    1.8205 H   0  0  0  0  0  0  0  0  0  0  0  0
  1  2  1  0  0  0  0
  2  3  2  0  0  0  0
  3  4  1  0  0  0  0
  4  5  1  0  0  0  0
  5  6  1  0  0  0  0
  6  7  1  0  0  0  0
  2  7  1  0  0  0  0
  6  8  1  0  0  0  0
  8  9  1  0  0  0  0
  9 10  1  0  0  0  0
 10 11  2  0  0  0  0
  5 11  1  0  0  0  0
 11 12  1  0  0  0  0
  8 13  1  0  0  0  0
 13 14  1  0  0  0  0
 13 15  1  0  0  0  0
  1 16  1  0  0  0  0
  1 17  1  0  0  0  0
  1 18  1  0  0  0  0
  3 19  1  0  0  0  0
  4 20  1  0  0  0  0
  4 21  1  0  0  0  0
  5 22  1  0  0  0  0
  6 23  1  0  0  0  0
  7 24  1  0  0  0  0
  7 25  1  0  0  0  0
  8 26  1  0  0  0  0
  9 27  1  0  0  0  0
  9 28  1  0  0  0  0
 10 29  1  0  0  0  0
 12 30  1  0  0  0  0
 12 31  1  0  0  0  0
 12 32  1  0  0  0  0
 13 33  1  0  0  0  0
 14 34  1  0  0  0  0
 14 35  1  0  0  0  0
 14 36  1  0  0  0  0
 15 37  1  0  0  0  0
 15 38  1  0  0  0  0
 15 39  1  0  0  0  0
M  END
$$$$
