C16H34
APtclcactv06221815563D 0   0.00000     0.00000
 
 50 49  0  0  0  0  0  0  0  0999 V2000
    7.2766    1.5425    0.1749 C   0  0  0  0  0  0  0  0  0  0  0  0
    6.1773    0.6329   -0.3774 C   0  0  0  0  0  0  0  0  0  0  0  0
    4.8331    1.0254    0.2388 C   0  0  0  0  0  0  0  0  0  0  0  0
    3.7338    0.1157   -0.3135 C   0  0  0  0  0  0  0  0  0  0  0  0
    2.3895    0.5082    0.3028 C   0  0  0  0  0  0  0  0  0  0  0  0
    1.2903   -0.4014   -0.2495 C   0  0  0  0  0  0  0  0  0  0  0  0
   -0.0540   -0.0090    0.3668 C   0  0  0  0  0  0  0  0  0  0  0  0
   -1.1533   -0.9186   -0.1855 C   0  0  0  0  0  0  0  0  0  0  0  0
   -0.9028   -2.3569    0.2720 C   0  0  0  0  0  0  0  0  0  0  0  0
   -1.9105   -3.2896   -0.4029 C   0  0  0  0  0  0  0  0  0  0  0  0
   -1.7079   -4.7166    0.1105 C   0  0  0  0  0  0  0  0  0  0  0  0
   -2.5134   -0.4479    0.3335 C   0  0  0  0  0  0  0  0  0  0  0  0
   -2.8203    0.9419   -0.2279 C   0  0  0  0  0  0  0  0  0  0  0  0
   -4.2253    1.3673    0.2033 C   0  0  0  0  0  0  0  0  0  0  0  0
   -4.5322    2.7571   -0.3581 C   0  0  0  0  0  0  0  0  0  0  0  0
   -5.9373    3.1824    0.0731 C   0  0  0  0  0  0  0  0  0  0  0  0
    7.3280    1.4338    1.2582 H   0  0  0  0  0  0  0  0  0  0  0  0
    8.2343    1.2629   -0.2642 H   0  0  0  0  0  0  0  0  0  0  0  0
    7.0507    2.5790   -0.0759 H   0  0  0  0  0  0  0  0  0  0  0  0
    6.1259    0.7417   -1.4608 H   0  0  0  0  0  0  0  0  0  0  0  0
    6.4032   -0.4035   -0.1266 H   0  0  0  0  0  0  0  0  0  0  0  0
    4.8844    0.9166    1.3222 H   0  0  0  0  0  0  0  0  0  0  0  0
    4.6071    2.0618   -0.0120 H   0  0  0  0  0  0  0  0  0  0  0  0
    3.6824    0.2245   -1.3968 H   0  0  0  0  0  0  0  0  0  0  0  0
    3.9597   -0.9207   -0.0627 H   0  0  0  0  0  0  0  0  0  0  0  0
    2.4409    0.3994    1.3862 H   0  0  0  0  0  0  0  0  0  0  0  0
    2.1636    1.5446    0.0520 H   0  0  0  0  0  0  0  0  0  0  0  0
    1.2389   -0.2927   -1.3329 H   0  0  0  0  0  0  0  0  0  0  0  0
    1.5162   -1.4378    0.0013 H   0  0  0  0  0  0  0  0  0  0  0  0
   -0.0026   -0.1177    1.4501 H   0  0  0  0  0  0  0  0  0  0  0  0
   -0.2799    1.0275    0.1160 H   0  0  0  0  0  0  0  0  0  0  0  0
   -1.1459   -0.8773   -1.2747 H   0  0  0  0  0  0  0  0  0  0  0  0
    0.1090   -2.6548   -0.0033 H   0  0  0  0  0  0  0  0  0  0  0  0
   -1.0181   -2.4193    1.3541 H   0  0  0  0  0  0  0  0  0  0  0  0
   -2.9231   -2.9601   -0.1702 H   0  0  0  0  0  0  0  0  0  0  0  0
   -1.7601   -3.2671   -1.4823 H   0  0  0  0  0  0  0  0  0  0  0  0
   -0.6953   -5.0462   -0.1223 H   0  0  0  0  0  0  0  0  0  0  0  0
   -1.8583   -4.7392    1.1898 H   0  0  0  0  0  0  0  0  0  0  0  0
   -2.4258   -5.3811   -0.3703 H   0  0  0  0  0  0  0  0  0  0  0  0
   -3.2860   -1.1474    0.0143 H   0  0  0  0  0  0  0  0  0  0  0  0
   -2.4911   -0.4032    1.4223 H   0  0  0  0  0  0  0  0  0  0  0  0
   -2.0912    1.6569    0.1534 H   0  0  0  0  0  0  0  0  0  0  0  0
   -2.7671    0.9141   -1.3162 H   0  0  0  0  0  0  0  0  0  0  0  0
   -4.9544    0.6523   -0.1779 H   0  0  0  0  0  0  0  0  0  0  0  0
   -4.2785    1.3951    1.2916 H   0  0  0  0  0  0  0  0  0  0  0  0
   -3.8032    3.4720    0.0232 H   0  0  0  0  0  0  0  0  0  0  0  0
   -4.4790    2.7292   -1.4464 H   0  0  0  0  0  0  0  0  0  0  0  0
   -6.1559    4.1725   -0.3268 H   0  0  0  0  0  0  0  0  0  0  0  0
   -6.6664    2.4674   -0.3081 H   0  0  0  0  0  0  0  0  0  0  0  0
   -5.9905    3.2103    1.1615 H   0  0  0  0  0  0  0  0  0  0  0  0
  1  2  1  0  0  0  0
  2  3  1  0  0  0  0
  3  4  1  0  0  0  0
  4  5  1  0  0  0  0
  5  6  1  0  0  0  0
  6  7  1  0  0  0  0
  7  8  1  0  0  0  0
  8  9  1  0  0  0  0
  9 10  1  0  0  0  0
 10 11  1  0  0  0  0
  8 12  1  0  0  0  0
 12 13  1  0  0  0  0
 13 14  1  0  0  0  0
 14 15  1  0  0  0  0
 15 16  1  0  0  0  0
  1 17  1  0  0  0  0
  1 18  1  0  0  0  0
  1 19  1  0  0  0  0
  2 20  1  0  0  0  0
  2 21  1  0  0  0  0
  3 22  1  0  0  0  0
  3 23  1  0  0  0  0
  4 24  1  0  0  0  0
  4 25  1  0  0  0  0
  5 26  1  0  0  0  0
  5 27  1  0  0  0  0
  6 28  1  0  0  0  0
  6 29  1  0  0  0  0
  7 30  1  0  0  0  0
  7 31  1  0  0  0  0
  8 32  1  0  0  0  0
  9 33  1  0  0  0  0
  9 34  1  0  0  0  0
 10 35  1  0  0  0  0
 10 36  1  0  0  0  0
 11 37  1  0  0  0  0
 11 38  1  0  0  0  0
 11 39  1  0  0  0  0
 12 40  1  0  0  0  0
 12 41  1  0  0  0  0
 13 42  1  0  0  0  0
 13 43  1  0  0  0  0
 14 44  1  0  0  0  0
 14 45  1  0  0  0  0
 15 46  1  0  0  0  0
 15 47  1  0  0  0  0
 16 48  1  0  0  0  0
 16 49  1  0  0  0  0
 16 50  1  0  0  0  0
M  END
$$$$
