C15H24
APtclcactv06221815563D 0   0.00000     0.00000
 
 39 39  0  0  0  0  0  0  0  0999 V2000
    1.5406    2.5969   -1.1961 C   0  0  0  0  0  0  0  0  0  0  0  0
    1.8033    1.5591   -0.1030 C   0  0  0  0  0  0  0  0  0  0  0  0
    1.7764    2.2420    1.2658 C   0  0  0  0  0  0  0  0  0  0  0  0
    0.7377    0.4947   -0.1544 C   0  0  0  0  0  0  0  0  0  0  0  0
   -0.5276    0.8692   -0.0853 C   0  0  0  0  0  0  0  0  0  0  0  0
   -1.6098   -0.1330   -0.1213 C   0  0  0  0  0  0  0  0  0  0  0  0
   -2.8638    0.1984    0.1673 C   0  0  0  0  0  0  0  0  0  0  0  0
   -3.1811    1.5847    0.6658 C   0  0  0  0  0  0  0  0  0  0  0  0
   -3.9686   -0.8121   -0.0039 C   0  0  0  0  0  0  0  0  0  0  0  0
   -1.2413   -1.5531   -0.4993 C   0  0  0  0  0  0  0  0  0  0  0  0
    0.0770   -1.8864    0.2141 C   0  0  0  0  0  0  0  0  0  0  0  0
    1.1660   -0.9364   -0.2874 C   0  0  0  0  0  0  0  0  0  0  0  0
    1.4628   -1.2448   -1.7563 C   0  0  0  0  0  0  0  0  0  0  0  0
    2.4185   -1.1490    0.5232 C   0  0  0  0  0  0  0  0  0  0  0  0
    2.4681   -2.1100    1.4121 C   0  0  0  0  0  0  0  0  0  0  0  0
    2.2606    3.4102   -1.1056 H   0  0  0  0  0  0  0  0  0  0  0  0
    1.6433    2.1279   -2.1747 H   0  0  0  0  0  0  0  0  0  0  0  0
    0.5306    2.9920   -1.0867 H   0  0  0  0  0  0  0  0  0  0  0  0
    2.7804    1.1030   -0.2624 H   0  0  0  0  0  0  0  0  0  0  0  0
    0.7742    2.6230    1.4621 H   0  0  0  0  0  0  0  0  0  0  0  0
    2.0487    1.5213    2.0369 H   0  0  0  0  0  0  0  0  0  0  0  0
    2.4872    3.0684    1.2736 H   0  0  0  0  0  0  0  0  0  0  0  0
   -0.7717    1.9180   -0.0014 H   0  0  0  0  0  0  0  0  0  0  0  0
   -3.3968    2.2351   -0.1819 H   0  0  0  0  0  0  0  0  0  0  0  0
   -4.0497    1.5445    1.3231 H   0  0  0  0  0  0  0  0  0  0  0  0
   -2.3264    1.9772    1.2167 H   0  0  0  0  0  0  0  0  0  0  0  0
   -3.8202   -1.6348    0.6955 H   0  0  0  0  0  0  0  0  0  0  0  0
   -4.9295   -0.3367    0.1931 H   0  0  0  0  0  0  0  0  0  0  0  0
   -3.9554   -1.1956   -1.0241 H   0  0  0  0  0  0  0  0  0  0  0  0
   -2.0233   -2.2388   -0.1731 H   0  0  0  0  0  0  0  0  0  0  0  0
   -1.1081   -1.6271   -1.5786 H   0  0  0  0  0  0  0  0  0  0  0  0
   -0.0498   -1.7653    1.2899 H   0  0  0  0  0  0  0  0  0  0  0  0
    0.3615   -2.9150   -0.0073 H   0  0  0  0  0  0  0  0  0  0  0  0
    0.5836   -1.0190   -2.3598 H   0  0  0  0  0  0  0  0  0  0  0  0
    2.3011   -0.6351   -2.0934 H   0  0  0  0  0  0  0  0  0  0  0  0
    1.7150   -2.2999   -1.8623 H   0  0  0  0  0  0  0  0  0  0  0  0
    3.2751   -0.5091    0.3713 H   0  0  0  0  0  0  0  0  0  0  0  0
    1.6115   -2.7499    1.5639 H   0  0  0  0  0  0  0  0  0  0  0  0
    3.3657   -2.2624    1.9930 H   0  0  0  0  0  0  0  0  0  0  0  0
  1  2  1  0  0  0  0
  2  3  1  0  0  0  0
  2  4  1  0  0  0  0
  4  5  2  0  0  0  0
  5  6  1  0  0  0  0
  6  7  2  0  0  0  0
  7  8  1  0  0  0  0
  7  9  1  0  0  0  0
  6 10  1  0  0  0  0
 10 11  1  0  0  0  0
 11 12  1  0  0  0  0
  4 12  1  0  0  0  0
 12 13  1  0  0  0  0
 12 14  1  0  0  0  0
 14 15  2  0  0  0  0
  1 16  1  0  0  0  0
  1 17  1  0  0  0  0
  1 18  1  0  0  0  0
  2 19  1  0  0  0  0
  3 20  1  0  0  0  0
  3 21  1  0  0  0  0
  3 22  1  0  0  0  0
  5 23  1  0  0  0  0
  8 24  1  0  0  0  0
  8 25  1  0  0  0  0
  8 26  1  0  0  0  0
  9 27  1  0  0  0  0
  9 28  1  0  0  0  0
  9 29  1  0  0  0  0
 10 30  1  0  0  0  0
 10 31  1  0  0  0  0
 11 32  1  0  0  0  0
 11 33  1  0  0  0  0
 13 34  1  0  0  0  0
 13 35  1  0  0  0  0
 13 36  1  0  0  0  0
 14 37  1  0  0  0  0
 15 38  1  0  0  0  0
 15 39  1  0  0  0  0
M  END
$$$$
