C7H16S
APtclcactv06221815563D 0   0.00000     0.00000
 
 24 23  0  0  0  0  0  0  0  0999 V2000
    4.4390    0.0206    0.2581 C   0  0  0  0  0  0  0  0  0  0  0  0
    3.0990    0.4378   -0.3513 C   0  0  0  0  0  0  0  0  0  0  0  0
    1.9819   -0.4313    0.2298 C   0  0  0  0  0  0  0  0  0  0  0  0
    0.6419   -0.0141   -0.3796 C   0  0  0  0  0  0  0  0  0  0  0  0
   -0.4752   -0.8832    0.2015 C   0  0  0  0  0  0  0  0  0  0  0  0
   -1.8152   -0.4661   -0.4078 C   0  0  0  0  0  0  0  0  0  0  0  0
   -2.9134   -1.4144    0.0774 C   0  0  0  0  0  0  0  0  0  0  0  0
   -2.2105    1.2289    0.1035 S   0  0  0  0  0  0  0  0  0  0  0  0
    5.2348    0.6398   -0.1559 H   0  0  0  0  0  0  0  0  0  0  0  0
    4.4026    0.1510    1.3397 H   0  0  0  0  0  0  0  0  0  0  0  0
    4.6342   -1.0260    0.0247 H   0  0  0  0  0  0  0  0  0  0  0  0
    2.9038    1.4844   -0.1178 H   0  0  0  0  0  0  0  0  0  0  0  0
    3.1354    0.3074   -1.4328 H   0  0  0  0  0  0  0  0  0  0  0  0
    2.1771   -1.4779   -0.0036 H   0  0  0  0  0  0  0  0  0  0  0  0
    1.9455   -0.3009    1.3114 H   0  0  0  0  0  0  0  0  0  0  0  0
    0.4467    1.0325   -0.1461 H   0  0  0  0  0  0  0  0  0  0  0  0
    0.6783   -0.1445   -1.4611 H   0  0  0  0  0  0  0  0  0  0  0  0
   -0.2800   -1.9299   -0.0319 H   0  0  0  0  0  0  0  0  0  0  0  0
   -0.5117   -0.7529    1.2831 H   0  0  0  0  0  0  0  0  0  0  0  0
   -1.7499   -0.5117   -1.4949 H   0  0  0  0  0  0  0  0  0  0  0  0
   -2.9787   -1.3688    1.1645 H   0  0  0  0  0  0  0  0  0  0  0  0
   -3.8680   -1.1173   -0.3567 H   0  0  0  0  0  0  0  0  0  0  0  0
   -2.6759   -2.4329   -0.2299 H   0  0  0  0  0  0  0  0  0  0  0  0
   -2.2588    1.1369    1.4445 H   0  0  0  0  0  0  0  0  0  0  0  0
  1  2  1  0  0  0  0
  2  3  1  0  0  0  0
  3  4  1  0  0  0  0
  4  5  1  0  0  0  0
  5  6  1  0  0  0  0
  6  7  1  0  0  0  0
  6  8  1  0  0  0  0
  1  9  1  0  0  0  0
  1 10  1  0  0  0  0
  1 11  1  0  0  0  0
  2 12  1  0  0  0  0
  2 13  1  0  0  0  0
  3 14  1  0  0  0  0
  3 15  1  0  0  0  0
  4 16  1  0  0  0  0
  4 17  1  0  0  0  0
  5 18  1  0  0  0  0
  5 19  1  0  0  0  0
  6 20  1  0  0  0  0
  7 21  1  0  0  0  0
  7 22  1  0  0  0  0
  7 23  1  0  0  0  0
  8 24  1  0  0  0  0
M  END
$$$$
