C15H24
APtclcactv06221815573D 0   0.00000     0.00000
 
 39 40  0  0  0  0  0  0  0  0999 V2000
    1.5498    2.7889   -0.0082 C   0  0  0  0  0  0  0  0  0  0  0  0
    1.7732    1.3058   -0.1552 C   0  0  0  0  0  0  0  0  0  0  0  0
    2.9870    0.8565   -0.0769 C   0  0  0  0  0  0  0  0  0  0  0  0
    3.3638   -0.5911   -0.1878 C   0  0  0  0  0  0  0  0  0  0  0  0
    2.2099   -1.4045   -0.7804 C   0  0  0  0  0  0  0  0  0  0  0  0
    0.9246   -1.0235   -0.0429 C   0  0  0  0  0  0  0  0  0  0  0  0
    0.5815    0.4274   -0.3779 C   0  0  0  0  0  0  0  0  0  0  0  0
   -0.6058    0.8699    0.4806 C   0  0  0  0  0  0  0  0  0  0  0  0
   -1.7427   -0.1017    0.2404 C   0  0  0  0  0  0  0  0  0  0  0  0
   -2.9393    0.3331   -0.0683 C   0  0  0  0  0  0  0  0  0  0  0  0
   -3.2302    1.8117   -0.0558 C   0  0  0  0  0  0  0  0  0  0  0  0
   -4.0249   -0.6454   -0.4358 C   0  0  0  0  0  0  0  0  0  0  0  0
   -1.4685   -1.5835    0.3636 C   0  0  0  0  0  0  0  0  0  0  0  0
   -0.2293   -1.9311   -0.4665 C   0  0  0  0  0  0  0  0  0  0  0  0
    1.1451   -1.1544    1.4654 C   0  0  0  0  0  0  0  0  0  0  0  0
    2.5064    3.2863    0.1516 H   0  0  0  0  0  0  0  0  0  0  0  0
    1.0848    3.1778   -0.9141 H   0  0  0  0  0  0  0  0  0  0  0  0
    0.8965    2.9752    0.8442 H   0  0  0  0  0  0  0  0  0  0  0  0
    3.7802    1.5728    0.0782 H   0  0  0  0  0  0  0  0  0  0  0  0
    4.2384   -0.6865   -0.8314 H   0  0  0  0  0  0  0  0  0  0  0  0
    3.6038   -0.9769    0.8030 H   0  0  0  0  0  0  0  0  0  0  0  0
    2.1062   -1.1761   -1.8411 H   0  0  0  0  0  0  0  0  0  0  0  0
    2.4061   -2.4688   -0.6507 H   0  0  0  0  0  0  0  0  0  0  0  0
    0.2928    0.4904   -1.4271 H   0  0  0  0  0  0  0  0  0  0  0  0
   -0.3249    0.8556    1.5337 H   0  0  0  0  0  0  0  0  0  0  0  0
   -0.9135    1.8755    0.1940 H   0  0  0  0  0  0  0  0  0  0  0  0
   -3.0227    2.2311   -1.0403 H   0  0  0  0  0  0  0  0  0  0  0  0
   -4.2786    1.9736    0.1945 H   0  0  0  0  0  0  0  0  0  0  0  0
   -2.5996    2.2998    0.6873 H   0  0  0  0  0  0  0  0  0  0  0  0
   -4.2221   -1.3040    0.4101 H   0  0  0  0  0  0  0  0  0  0  0  0
   -4.9337   -0.1006   -0.6916 H   0  0  0  0  0  0  0  0  0  0  0  0
   -3.7042   -1.2393   -1.2917 H   0  0  0  0  0  0  0  0  0  0  0  0
   -1.2888   -1.8356    1.4087 H   0  0  0  0  0  0  0  0  0  0  0  0
   -2.3262   -2.1452   -0.0065 H   0  0  0  0  0  0  0  0  0  0  0  0
   -0.4428   -1.7753   -1.5240 H   0  0  0  0  0  0  0  0  0  0  0  0
    0.0433   -2.9727   -0.2970 H   0  0  0  0  0  0  0  0  0  0  0  0
    1.9519   -0.4894    1.7737 H   0  0  0  0  0  0  0  0  0  0  0  0
    0.2297   -0.8831    1.9913 H   0  0  0  0  0  0  0  0  0  0  0  0
    1.4108   -2.1838    1.7058 H   0  0  0  0  0  0  0  0  0  0  0  0
  1  2  1  0  0  0  0
  2  3  2  0  0  0  0
  3  4  1  0  0  0  0
  4  5  1  0  0  0  0
  5  6  1  0  0  0  0
  6  7  1  0  0  0  0
  2  7  1  0  0  0  0
  7  8  1  0  0  0  0
  8  9  1  0  0  0  0
  9 10  2  0  0  0  0
 10 11  1  0  0  0  0
 10 12  1  0  0  0  0
  9 13  1  0  0  0  0
 13 14  1  0  0  0  0
  6 14  1  0  0  0  0
  6 15  1  0  0  0  0
  1 16  1  0  0  0  0
  1 17  1  0  0  0  0
  1 18  1  0  0  0  0
  3 19  1  0  0  0  0
  4 20  1  0  0  0  0
  4 21  1  0  0  0  0
  5 22  1  0  0  0  0
  5 23  1  0  0  0  0
  7 24  1  0  0  0  0
  8 25  1  0  0  0  0
  8 26  1  0  0  0  0
 11 27  1  0  0  0  0
 11 28  1  0  0  0  0
 11 29  1  0  0  0  0
 12 30  1  0  0  0  0
 12 31  1  0  0  0  0
 12 32  1  0  0  0  0
 13 33  1  0  0  0  0
 13 34  1  0  0  0  0
 14 35  1  0  0  0  0
 14 36  1  0  0  0  0
 15 37  1  0  0  0  0
 15 38  1  0  0  0  0
 15 39  1  0  0  0  0
M  END
$$$$
