C10H16
APtclcactv06231803033D 0   0.00000     0.00000
 
 26 26  0  0  0  0  0  0  0  0999 V2000
    2.8227    1.5306   -0.0654 C   0  0  0  0  0  0  0  0  0  0  0  0
    1.7294    0.4935   -0.0721 C   0  0  0  0  0  0  0  0  0  0  0  0
    0.4754    0.9036   -0.1459 C   0  0  0  0  0  0  0  0  0  0  0  0
   -0.6336   -0.0696   -0.1461 C   0  0  0  0  0  0  0  0  0  0  0  0
   -1.8938    0.3239    0.0035 C   0  0  0  0  0  0  0  0  0  0  0  0
   -2.2014    1.7676    0.3070 C   0  0  0  0  0  0  0  0  0  0  0  0
   -3.0156   -0.6735   -0.1305 C   0  0  0  0  0  0  0  0  0  0  0  0
   -0.2850   -1.5334   -0.3232 C   0  0  0  0  0  0  0  0  0  0  0  0
    0.9654   -1.8092    0.5242 C   0  0  0  0  0  0  0  0  0  0  0  0
    2.1190   -0.9529   -0.0009 C   0  0  0  0  0  0  0  0  0  0  0  0
    2.3805    2.5250   -0.1265 H   0  0  0  0  0  0  0  0  0  0  0  0
    3.3989    1.4452    0.8559 H   0  0  0  0  0  0  0  0  0  0  0  0
    3.4794    1.3718   -0.9208 H   0  0  0  0  0  0  0  0  0  0  0  0
    0.2604    1.9603   -0.2062 H   0  0  0  0  0  0  0  0  0  0  0  0
   -1.9030    2.3881   -0.5379 H   0  0  0  0  0  0  0  0  0  0  0  0
   -3.2712    1.8821    0.4821 H   0  0  0  0  0  0  0  0  0  0  0  0
   -1.6526    2.0767    1.1966 H   0  0  0  0  0  0  0  0  0  0  0  0
   -3.2289   -1.1134    0.8436 H   0  0  0  0  0  0  0  0  0  0  0  0
   -3.9068   -0.1698   -0.5048 H   0  0  0  0  0  0  0  0  0  0  0  0
   -2.7224   -1.4586   -0.8274 H   0  0  0  0  0  0  0  0  0  0  0  0
   -1.1110   -2.1558    0.0207 H   0  0  0  0  0  0  0  0  0  0  0  0
   -0.0751   -1.7405   -1.3726 H   0  0  0  0  0  0  0  0  0  0  0  0
    0.7636   -1.5560    1.5650 H   0  0  0  0  0  0  0  0  0  0  0  0
    1.2315   -2.8636    0.4492 H   0  0  0  0  0  0  0  0  0  0  0  0
    2.3998   -1.3025   -0.9945 H   0  0  0  0  0  0  0  0  0  0  0  0
    2.9737   -1.0562    0.6677 H   0  0  0  0  0  0  0  0  0  0  0  0
  1  2  1  0  0  0  0
  2  3  2  0  0  0  0
  3  4  1  0  0  0  0
  4  5  2  0  0  0  0
  5  6  1  0  0  0  0
  5  7  1  0  0  0  0
  4  8  1  0  0  0  0
  8  9  1  0  0  0  0
  9 10  1  0  0  0  0
  2 10  1  0  0  0  0
  1 11  1  0  0  0  0
  1 12  1  0  0  0  0
  1 13  1  0  0  0  0
  3 14  1  0  0  0  0
  6 15  1  0  0  0  0
  6 16  1  0  0  0  0
  6 17  1  0  0  0  0
  7 18  1  0  0  0  0
  7 19  1  0  0  0  0
  7 20  1  0  0  0  0
  8 21  1  0  0  0  0
  8 22  1  0  0  0  0
  9 23  1  0  0  0  0
  9 24  1  0  0  0  0
 10 25  1  0  0  0  0
 10 26  1  0  0  0  0
M  END
$$$$
