C16H20ClNO4
APtclcactv06211806223D 0   0.00000     0.00000
 
 42 43  0  0  0  0  0  0  0  0999 V2000
    2.6071   -2.5035   -1.3151 C   0  0  0  0  0  0  0  0  0  0  0  0
    1.2940   -1.8838   -0.9116 C   0  0  0  0  0  0  0  0  0  0  0  0
    1.0516   -0.5863   -1.1678 C   0  0  0  0  0  0  0  0  0  0  0  0
   -0.0942    0.0174   -0.8333 O   0  0  0  0  0  0  0  0  0  0  0  0
   -1.0984   -0.6332   -0.2109 C   0  0  0  0  0  0  0  0  0  0  0  0
   -0.9550   -1.9952    0.1063 C   0  0  0  0  0  0  0  0  0  0  0  0
    0.3029   -2.6689   -0.2635 C   0  0  0  0  0  0  0  0  0  0  0  0
    0.4883   -3.8484   -0.0160 O   0  0  0  0  0  0  0  0  0  0  0  0
   -1.9855   -2.6801    0.7508 C   0  0  0  0  0  0  0  0  0  0  0  0
   -3.1377   -2.0217    1.0739 C   0  0  0  0  0  0  0  0  0  0  0  0
   -3.2888   -0.6717    0.7634 C   0  0  0  0  0  0  0  0  0  0  0  0
   -2.2751    0.0216    0.1235 C   0  0  0  0  0  0  0  0  0  0  0  0
   -2.4362    1.3759   -0.1832 N   0  3  0  0  0  0  0  0  0  0  0  0
   -1.6062    1.7176   -0.6441 H   0  0  0  0  0  0  0  0  0  0  0  0
   -2.6572    2.1358    1.0549 C   0  0  0  0  0  0  0  0  0  0  0  0
   -2.8330    3.6182    0.7164 C   0  0  0  0  0  0  0  0  0  0  0  0
   -3.9262    3.7676   -0.1938 O   0  0  0  0  0  0  0  0  0  0  0  0
   -3.7684    3.0261   -1.4067 C   0  0  0  0  0  0  0  0  0  0  0  0
   -3.5942    1.5425   -1.0724 C   0  0  0  0  0  0  0  0  0  0  0  0
   -4.4397   -0.0308    1.0907 O   0  0  0  0  0  0  0  0  0  0  0  0
   -5.4470   -0.8016    1.7490 C   0  0  0  0  0  0  0  0  0  0  0  0
    2.1170    0.2229   -1.8614 C   0  0  0  0  0  0  0  0  0  0  0  0
   13.5575    1.3086    0.7998 Cl  0  5  0  0  0  0  0  0  0  0  0  0
    3.3240   -2.3981   -0.5009 H   0  0  0  0  0  0  0  0  0  0  0  0
    2.4580   -3.5610   -1.5333 H   0  0  0  0  0  0  0  0  0  0  0  0
    2.9890   -1.9996   -2.2030 H   0  0  0  0  0  0  0  0  0  0  0  0
   -1.8728   -3.7265    0.9930 H   0  0  0  0  0  0  0  0  0  0  0  0
   -3.9365   -2.5506    1.5725 H   0  0  0  0  0  0  0  0  0  0  0  0
   -3.5543    1.7675    1.5524 H   0  0  0  0  0  0  0  0  0  0  0  0
   -1.7986    2.0130    1.7150 H   0  0  0  0  0  0  0  0  0  0  0  0
   -3.0399    4.1779    1.6286 H   0  0  0  0  0  0  0  0  0  0  0  0
   -1.9210    3.9970    0.2551 H   0  0  0  0  0  0  0  0  0  0  0  0
   -4.6523    3.1571   -2.0311 H   0  0  0  0  0  0  0  0  0  0  0  0
   -2.8884    3.3846   -1.9407 H   0  0  0  0  0  0  0  0  0  0  0  0
   -3.4313    0.9794   -1.9913 H   0  0  0  0  0  0  0  0  0  0  0  0
   -4.4910    1.1743   -0.5741 H   0  0  0  0  0  0  0  0  0  0  0  0
   -5.7458   -1.6315    1.1086 H   0  0  0  0  0  0  0  0  0  0  0  0
   -5.0514   -1.1908    2.6872 H   0  0  0  0  0  0  0  0  0  0  0  0
   -6.3119   -0.1705    1.9532 H   0  0  0  0  0  0  0  0  0  0  0  0
    1.9739    0.1632   -2.9403 H   0  0  0  0  0  0  0  0  0  0  0  0
    2.0484    1.2630   -1.5428 H   0  0  0  0  0  0  0  0  0  0  0  0
    3.0994   -0.1723   -1.6028 H   0  0  0  0  0  0  0  0  0  0  0  0
  1  2  1  0  0  0  0
  2  3  2  0  0  0  0
  3  4  1  0  0  0  0
  4  5  1  0  0  0  0
  5  6  2  0  0  0  0
  6  7  1  0  0  0  0
  2  7  1  0  0  0  0
  7  8  2  0  0  0  0
  6  9  1  0  0  0  0
  9 10  2  0  0  0  0
 10 11  1  0  0  0  0
 11 12  2  0  0  0  0
  5 12  1  0  0  0  0
 12 13  1  0  0  0  0
 13 14  1  0  0  0  0
 13 15  1  0  0  0  0
 15 16  1  0  0  0  0
 16 17  1  0  0  0  0
 17 18  1  0  0  0  0
 18 19  1  0  0  0  0
 13 19  1  0  0  0  0
 11 20  1  0  0  0  0
 20 21  1  0  0  0  0
  3 22  1  0  0  0  0
  1 24  1  0  0  0  0
  1 25  1  0  0  0  0
  1 26  1  0  0  0  0
  9 27  1  0  0  0  0
 10 28  1  0  0  0  0
 15 29  1  0  0  0  0
 15 30  1  0  0  0  0
 16 31  1  0  0  0  0
 16 32  1  0  0  0  0
 18 33  1  0  0  0  0
 18 34  1  0  0  0  0
 19 35  1  0  0  0  0
 19 36  1  0  0  0  0
 21 37  1  0  0  0  0
 21 38  1  0  0  0  0
 21 39  1  0  0  0  0
 22 40  1  0  0  0  0
 22 41  1  0  0  0  0
 22 42  1  0  0  0  0
M  CHG  2  13   1  23  -1
M  END
$$$$
