C19H13NO5
APtclcactv06281816413D 0   0.00000     0.00000
 
 38 43  0  0  0  0  0  0  0  0999 V2000
    1.6810   -2.4667   -0.6675 C   0  0  0  0  0  0  0  0  0  0  0  0
    0.5119   -2.4579    0.3289 C   0  0  0  0  0  0  0  0  0  0  0  0
   -0.2598   -1.2202    0.1395 N   0  0  0  0  0  0  0  0  0  0  0  0
    0.4153   -0.0285   -0.0492 C   0  0  0  0  0  0  0  0  0  0  0  0
   -0.2368    1.1494   -0.2105 C   0  0  0  0  0  0  0  0  0  0  0  0
   -1.6980    1.1798   -0.1910 C   0  0  0  0  0  0  0  0  0  0  0  0
   -2.3829   -0.0512   -0.0052 C   0  0  0  0  0  0  0  0  0  0  0  0
   -1.6070   -1.2757    0.1576 C   0  0  0  0  0  0  0  0  0  0  0  0
   -2.1734   -2.3433    0.3097 O   0  0  0  0  0  0  0  0  0  0  0  0
   -3.7800   -0.0209    0.0139 C   0  0  0  0  0  0  0  0  0  0  0  0
   -4.4665    1.1907   -0.1459 C   0  0  0  0  0  0  0  0  0  0  0  0
   -3.7884    2.3954   -0.3280 C   0  0  0  0  0  0  0  0  0  0  0  0
   -2.4057    2.3720   -0.3491 C   0  0  0  0  0  0  0  0  0  0  0  0
   -5.7966    0.9471   -0.0883 O   0  0  0  0  0  0  0  0  0  0  0  0
   -5.9237   -0.3643    0.4995 C   0  0  0  0  0  0  0  0  0  0  0  0
   -4.6793   -1.0155    0.1695 O   0  0  0  0  0  0  0  0  0  0  0  0
    1.8971   -0.0496   -0.0805 C   0  0  0  0  0  0  0  0  0  0  0  0
    2.6239    1.1148    0.1911 C   0  0  0  0  0  0  0  0  0  0  0  0
    4.0059    1.0188    0.1461 C   0  0  0  0  0  0  0  0  0  0  0  0
    4.6446   -0.1947   -0.1601 C   0  0  0  0  0  0  0  0  0  0  0  0
    3.9172   -1.3496   -0.4309 C   0  0  0  0  0  0  0  0  0  0  0  0
    2.5397   -1.2545   -0.3856 C   0  0  0  0  0  0  0  0  0  0  0  0
    5.9824   -0.0008   -0.1323 O   0  0  0  0  0  0  0  0  0  0  0  0
    6.1784    1.2403    0.5768 C   0  0  0  0  0  0  0  0  0  0  0  0
    4.9487    1.9642    0.3633 O   0  0  0  0  0  0  0  0  0  0  0  0
    2.2700   -3.3745   -0.5371 H   0  0  0  0  0  0  0  0  0  0  0  0
    1.2974   -2.4182   -1.6866 H   0  0  0  0  0  0  0  0  0  0  0  0
   -0.1296   -3.3202    0.1474 H   0  0  0  0  0  0  0  0  0  0  0  0
    0.8991   -2.4953    1.3471 H   0  0  0  0  0  0  0  0  0  0  0  0
    0.3220    2.0626   -0.3527 H   0  0  0  0  0  0  0  0  0  0  0  0
   -4.3289    3.3224   -0.4505 H   0  0  0  0  0  0  0  0  0  0  0  0
   -1.8629    3.2951   -0.4888 H   0  0  0  0  0  0  0  0  0  0  0  0
   -6.0408   -0.2890    1.5806 H   0  0  0  0  0  0  0  0  0  0  0  0
   -6.7643   -0.9007    0.0594 H   0  0  0  0  0  0  0  0  0  0  0  0
    2.1302    2.0464    0.4249 H   0  0  0  0  0  0  0  0  0  0  0  0
    4.4091   -2.2815   -0.6674 H   0  0  0  0  0  0  0  0  0  0  0  0
    6.3316    1.0529    1.6396 H   0  0  0  0  0  0  0  0  0  0  0  0
    7.0223    1.7896    0.1594 H   0  0  0  0  0  0  0  0  0  0  0  0
  1  2  1  0  0  0  0
  2  3  1  0  0  0  0
  3  4  1  0  0  0  0
  4  5  2  0  0  0  0
  5  6  1  0  0  0  0
  6  7  2  0  0  0  0
  7  8  1  0  0  0  0
  3  8  1  0  0  0  0
  8  9  2  0  0  0  0
  7 10  1  0  0  0  0
 10 11  2  0  0  0  0
 11 12  1  0  0  0  0
 12 13  2  0  0  0  0
  6 13  1  0  0  0  0
 11 14  1  0  0  0  0
 14 15  1  0  0  0  0
 15 16  1  0  0  0  0
 10 16  1  0  0  0  0
  4 17  1  0  0  0  0
 17 18  2  0  0  0  0
 18 19  1  0  0  0  0
 19 20  2  0  0  0  0
 20 21  1  0  0  0  0
 21 22  2  0  0  0  0
 17 22  1  0  0  0  0
  1 22  1  0  0  0  0
 20 23  1  0  0  0  0
 23 24  1  0  0  0  0
 24 25  1  0  0  0  0
 19 25  1  0  0  0  0
  1 26  1  0  0  0  0
  1 27  1  0  0  0  0
  2 28  1  0  0  0  0
  2 29  1  0  0  0  0
  5 30  1  0  0  0  0
 12 31  1  0  0  0  0
 13 32  1  0  0  0  0
 15 33  1  0  0  0  0
 15 34  1  0  0  0  0
 18 35  1  0  0  0  0
 21 36  1  0  0  0  0
 24 37  1  0  0  0  0
 24 38  1  0  0  0  0
M  END
$$$$
