C27H43NO2
APtclcactv06211804363D 0   0.00000     0.00000
 
 73 78  0  0  0  0  0  0  0  0999 V2000
    7.7126   -1.6152    0.1019 C   0  0  0  0  0  0  0  0  0  0  0  0
    6.6109   -0.5921    0.3848 C   0  0  0  0  0  0  0  0  0  0  0  0
    5.9419   -0.1840   -0.9305 C   0  0  0  0  0  0  0  0  0  0  0  0
    4.8115    0.8071   -0.6326 C   0  0  0  0  0  0  0  0  0  0  0  0
    3.8406    0.1903    0.3607 C   0  0  0  0  0  0  0  0  0  0  0  0
    2.6991    1.1997    0.6839 C   0  0  0  0  0  0  0  0  0  0  0  0
    1.8890    1.1164   -0.6004 C   0  0  0  0  0  0  0  0  0  0  0  0
    2.1758   -0.3193   -1.1496 C   0  0  0  0  0  0  0  0  0  0  0  0
    3.1245   -0.9073   -0.2388 O   0  0  0  0  0  0  0  0  0  0  0  0
    0.8380   -1.0963   -1.0701 C   0  0  0  0  0  0  0  0  0  0  0  0
   -0.0499   -0.2300   -0.1650 C   0  0  0  0  0  0  0  0  0  0  0  0
    0.3708    1.1995   -0.5538 C   0  0  0  0  0  0  0  0  0  0  0  0
   -0.2713    2.2225    0.3390 C   0  0  0  0  0  0  0  0  0  0  0  0
   -1.7590    1.9239    0.5735 C   0  0  0  0  0  0  0  0  0  0  0  0
   -2.3153    0.8585   -0.3514 C   0  0  0  0  0  0  0  0  0  0  0  0
   -1.5303   -0.4496   -0.2573 C   0  0  0  0  0  0  0  0  0  0  0  0
   -1.9527   -1.3370   -1.4301 C   0  0  0  0  0  0  0  0  0  0  0  0
   -3.4480   -1.5046   -1.3680 C   0  0  0  0  0  0  0  0  0  0  0  0
   -4.2388   -0.6873   -0.7466 C   0  0  0  0  0  0  0  0  0  0  0  0
   -3.7837    0.5605   -0.0298 C   0  0  0  0  0  0  0  0  0  0  0  0
   -4.0060    0.3669    1.4640 C   0  0  0  0  0  0  0  0  0  0  0  0
   -5.0838   -0.6849    1.7174 C   0  0  0  0  0  0  0  0  0  0  0  0
   -6.2248   -0.6202    0.7102 C   0  0  0  0  0  0  0  0  0  0  0  0
   -5.7274   -0.9856   -0.6936 C   0  0  0  0  0  0  0  0  0  0  0  0
   -7.2483   -1.5452    1.0984 O   0  0  0  0  0  0  0  0  0  0  0  0
   -4.6140    1.7476   -0.5209 C   0  0  0  0  0  0  0  0  0  0  0  0
   -0.0263    1.5004   -2.0209 C   0  0  0  0  0  0  0  0  0  0  0  0
    2.0179    0.7800    1.9775 C   0  0  0  0  0  0  0  0  0  0  0  0
    4.5105   -0.2220    1.5874 N   0  0  0  0  0  0  0  0  0  0  0  0
    5.5651   -1.2110    1.3150 C   0  0  0  0  0  0  0  0  0  0  0  0
    8.4561   -1.1742   -0.5620 H   0  0  0  0  0  0  0  0  0  0  0  0
    8.1884   -1.9052    1.0387 H   0  0  0  0  0  0  0  0  0  0  0  0
    7.2781   -2.4951   -0.3726 H   0  0  0  0  0  0  0  0  0  0  0  0
    7.0452    0.2876    0.8602 H   0  0  0  0  0  0  0  0  0  0  0  0
    6.6771    0.2886   -1.5821 H   0  0  0  0  0  0  0  0  0  0  0  0
    5.5335   -1.0666   -1.4221 H   0  0  0  0  0  0  0  0  0  0  0  0
    5.2351    1.7205   -0.2111 H   0  0  0  0  0  0  0  0  0  0  0  0
    4.2906    1.0491   -1.5594 H   0  0  0  0  0  0  0  0  0  0  0  0
    3.1415    2.2015    0.8060 H   0  0  0  0  0  0  0  0  0  0  0  0
    2.2625    1.8598   -1.3387 H   0  0  0  0  0  0  0  0  0  0  0  0
    2.5674   -0.2829   -2.1662 H   0  0  0  0  0  0  0  0  0  0  0  0
    0.3962   -1.2209   -2.0569 H   0  0  0  0  0  0  0  0  0  0  0  0
    0.9951   -2.0780   -0.6109 H   0  0  0  0  0  0  0  0  0  0  0  0
    0.2356   -0.4483    0.8810 H   0  0  0  0  0  0  0  0  0  0  0  0
    0.2331    2.3278    1.2969 H   0  0  0  0  0  0  0  0  0  0  0  0
   -0.1976    3.2128   -0.1551 H   0  0  0  0  0  0  0  0  0  0  0  0
   -1.8872    1.6012    1.6166 H   0  0  0  0  0  0  0  0  0  0  0  0
   -2.3234    2.8565    0.4532 H   0  0  0  0  0  0  0  0  0  0  0  0
   -2.3282    1.2223   -1.3835 H   0  0  0  0  0  0  0  0  0  0  0  0
   -1.8530   -0.9681    0.6727 H   0  0  0  0  0  0  0  0  0  0  0  0
   -1.6808   -0.8695   -2.3731 H   0  0  0  0  0  0  0  0  0  0  0  0
   -1.4769   -2.3128   -1.3459 H   0  0  0  0  0  0  0  0  0  0  0  0
   -3.8834   -2.3538   -1.8714 H   0  0  0  0  0  0  0  0  0  0  0  0
   -3.0754    0.0425    1.9335 H   0  0  0  0  0  0  0  0  0  0  0  0
   -4.3157    1.3137    1.9110 H   0  0  0  0  0  0  0  0  0  0  0  0
   -4.6275   -1.6768    1.6770 H   0  0  0  0  0  0  0  0  0  0  0  0
   -5.4897   -0.5366    2.7223 H   0  0  0  0  0  0  0  0  0  0  0  0
   -6.6533    0.3832    0.7005 H   0  0  0  0  0  0  0  0  0  0  0  0
   -6.2573   -0.4017   -1.4460 H   0  0  0  0  0  0  0  0  0  0  0  0
   -5.8958   -2.0497   -0.8784 H   0  0  0  0  0  0  0  0  0  0  0  0
   -8.0104   -1.5611    0.5034 H   0  0  0  0  0  0  0  0  0  0  0  0
   -5.6678    1.5661   -0.3097 H   0  0  0  0  0  0  0  0  0  0  0  0
   -4.2915    2.6536   -0.0079 H   0  0  0  0  0  0  0  0  0  0  0  0
   -4.4744    1.8691   -1.5951 H   0  0  0  0  0  0  0  0  0  0  0  0
   -1.1119    1.5604   -2.0985 H   0  0  0  0  0  0  0  0  0  0  0  0
    0.4129    2.4492   -2.3290 H   0  0  0  0  0  0  0  0  0  0  0  0
    0.3405    0.7032   -2.6675 H   0  0  0  0  0  0  0  0  0  0  0  0
    2.7487    0.7693    2.7862 H   0  0  0  0  0  0  0  0  0  0  0  0
    1.2230    1.4868    2.2155 H   0  0  0  0  0  0  0  0  0  0  0  0
    1.5938   -0.2170    1.8579 H   0  0  0  0  0  0  0  0  0  0  0  0
    4.8989    0.5761    2.0743 H   0  0  0  0  0  0  0  0  0  0  0  0
    5.1270   -2.0872    0.8387 H   0  0  0  0  0  0  0  0  0  0  0  0
    6.0389   -1.5024    2.2520 H   0  0  0  0  0  0  0  0  0  0  0  0
  1  2  1  0  0  0  0
  2  3  1  0  0  0  0
  3  4  1  0  0  0  0
  4  5  1  0  0  0  0
  5  6  1  0  0  0  0
  6  7  1  0  0  0  0
  7  8  1  0  0  0  0
  8  9  1  0  0  0  0
  5  9  1  0  0  0  0
  8 10  1  0  0  0  0
 10 11  1  0  0  0  0
 11 12  1  0  0  0  0
  7 12  1  0  0  0  0
 12 13  1  0  0  0  0
 13 14  1  0  0  0  0
 14 15  1  0  0  0  0
 15 16  1  0  0  0  0
 11 16  1  0  0  0  0
 16 17  1  0  0  0  0
 17 18  1  0  0  0  0
 18 19  2  0  0  0  0
 19 20  1  0  0  0  0
 15 20  1  0  0  0  0
 20 21  1  0  0  0  0
 21 22  1  0  0  0  0
 22 23  1  0  0  0  0
 23 24  1  0  0  0  0
 19 24  1  0  0  0  0
 23 25  1  0  0  0  0
 20 26  1  0  0  0  0
 12 27  1  0  0  0  0
  6 28  1  0  0  0  0
  5 29  1  0  0  0  0
 29 30  1  0  0  0  0
  2 30  1  0  0  0  0
  1 31  1  0  0  0  0
  1 32  1  0  0  0  0
  1 33  1  0  0  0  0
  2 34  1  0  0  0  0
  3 35  1  0  0  0  0
  3 36  1  0  0  0  0
  4 37  1  0  0  0  0
  4 38  1  0  0  0  0
  6 39  1  0  0  0  0
  7 40  1  0  0  0  0
  8 41  1  0  0  0  0
 10 42  1  0  0  0  0
 10 43  1  0  0  0  0
 11 44  1  0  0  0  0
 13 45  1  0  0  0  0
 13 46  1  0  0  0  0
 14 47  1  0  0  0  0
 14 48  1  0  0  0  0
 15 49  1  0  0  0  0
 16 50  1  0  0  0  0
 17 51  1  0  0  0  0
 17 52  1  0  0  0  0
 18 53  1  0  0  0  0
 21 54  1  0  0  0  0
 21 55  1  0  0  0  0
 22 56  1  0  0  0  0
 22 57  1  0  0  0  0
 23 58  1  0  0  0  0
 24 59  1  0  0  0  0
 24 60  1  0  0  0  0
 25 61  1  0  0  0  0
 26 62  1  0  0  0  0
 26 63  1  0  0  0  0
 26 64  1  0  0  0  0
 27 65  1  0  0  0  0
 27 66  1  0  0  0  0
 27 67  1  0  0  0  0
 28 68  1  0  0  0  0
 28 69  1  0  0  0  0
 28 70  1  0  0  0  0
 29 71  1  0  0  0  0
 30 72  1  0  0  0  0
 30 73  1  0  0  0  0
M  END
$$$$
