C6H12S3
APtclcactv06231803033D 0   0.00000     0.00000
 
 21 20  0  0  0  0  0  0  0  0999 V2000
    4.5883    1.1003   -0.1681 C   0  0  0  0  0  0  0  0  0  0  0  0
    3.3922    0.4094    0.4899 C   0  0  0  0  0  0  0  0  0  0  0  0
    2.6345   -0.4070   -0.5590 C   0  0  0  0  0  0  0  0  0  0  0  0
    1.2163   -1.2261    0.2211 S   0  0  0  0  0  0  0  0  0  0  0  0
   -0.0473    0.3342    0.6346 S   0  0  0  0  0  0  0  0  0  0  0  0
   -1.3009    0.3547   -0.9873 S   0  0  0  0  0  0  0  0  0  0  0  0
   -2.7180   -0.6254   -0.4201 C   0  0  0  0  0  0  0  0  0  0  0  0
   -3.4746    0.1465    0.6301 C   0  0  0  0  0  0  0  0  0  0  0  0
   -4.7009    0.5429    0.3952 C   0  0  0  0  0  0  0  0  0  0  0  0
    5.1282    1.6820    0.5792 H   0  0  0  0  0  0  0  0  0  0  0  0
    5.2533    0.3486   -0.5933 H   0  0  0  0  0  0  0  0  0  0  0  0
    4.2357    1.7625   -0.9588 H   0  0  0  0  0  0  0  0  0  0  0  0
    3.7449   -0.2528    1.2806 H   0  0  0  0  0  0  0  0  0  0  0  0
    2.7272    1.1611    0.9151 H   0  0  0  0  0  0  0  0  0  0  0  0
    2.2818    0.2552   -1.3497 H   0  0  0  0  0  0  0  0  0  0  0  0
    3.2995   -1.1587   -0.9843 H   0  0  0  0  0  0  0  0  0  0  0  0
   -3.3768   -0.8333   -1.2632 H   0  0  0  0  0  0  0  0  0  0  0  0
   -2.3636   -1.5647    0.0043 H   0  0  0  0  0  0  0  0  0  0  0  0
   -3.0058    0.3728    1.5763 H   0  0  0  0  0  0  0  0  0  0  0  0
   -5.1697    0.3165   -0.5510 H   0  0  0  0  0  0  0  0  0  0  0  0
   -5.2431    1.0961    1.1478 H   0  0  0  0  0  0  0  0  0  0  0  0
  1  2  1  0  0  0  0
  2  3  1  0  0  0  0
  3  4  1  0  0  0  0
  4  5  1  0  0  0  0
  5  6  1  0  0  0  0
  6  7  1  0  0  0  0
  7  8  1  0  0  0  0
  8  9  2  0  0  0  0
  1 10  1  0  0  0  0
  1 11  1  0  0  0  0
  1 12  1  0  0  0  0
  2 13  1  0  0  0  0
  2 14  1  0  0  0  0
  3 15  1  0  0  0  0
  3 16  1  0  0  0  0
  7 17  1  0  0  0  0
  7 18  1  0  0  0  0
  8 19  1  0  0  0  0
  9 20  1  0  0  0  0
  9 21  1  0  0  0  0
M  END
$$$$
