C20H28O3
APtclcactv06281816413D 0   0.00000     0.00000
 
 51 54  0  0  0  0  0  0  0  0999 V2000
    0.7363    1.0894    1.8780 C   0  0  0  0  0  0  0  0  0  0  0  0
    0.3292    1.2778    0.4170 C   0  0  0  0  0  0  0  0  0  0  0  0
    0.8854    2.5901   -0.0765 C   0  0  0  0  0  0  0  0  0  0  0  0
    2.4169    2.5065    0.0120 C   0  0  0  0  0  0  0  0  0  0  0  0
    2.9596    1.3720   -0.8378 C   0  0  0  0  0  0  0  0  0  0  0  0
    2.3092    0.0037   -0.5761 C   0  0  0  0  0  0  0  0  0  0  0  0
    0.8232    0.1267   -0.4824 C   0  0  0  0  0  0  0  0  0  0  0  0
   -0.0249   -1.0447    0.0485 C   0  0  0  0  0  0  0  0  0  0  0  0
   -1.4098   -0.3901    0.0755 C   0  0  0  0  0  0  0  0  0  0  0  0
   -1.1878    1.1113    0.3944 C   0  0  0  0  0  0  0  0  0  0  0  0
   -1.8968    1.9596   -0.6481 C   0  0  0  0  0  0  0  0  0  0  0  0
   -3.3885    1.5830   -0.6477 C   0  0  0  0  0  0  0  0  0  0  0  0
   -3.5382    0.0685   -0.8545 C   0  0  0  0  0  0  0  0  0  0  0  0
   -2.1404   -0.4759   -1.2787 C   0  0  0  0  0  0  0  0  0  0  0  0
   -3.7768   -0.5853    0.5029 C   0  0  0  0  0  0  0  0  0  0  0  0
   -4.9371   -0.7837    1.0785 C   0  0  0  0  0  0  0  0  0  0  0  0
   -2.4124   -0.9712    1.0649 C   0  0  0  0  0  0  0  0  0  0  0  0
   -0.0052   -2.2453   -0.8560 C   0  0  0  0  0  0  0  0  0  0  0  0
    0.3837   -3.3096   -0.4383 O   0  0  0  0  0  0  0  0  0  0  0  0
    2.6711   -0.8651   -1.8123 C   0  0  0  0  0  0  0  0  0  0  0  0
    2.9473   -0.6564    0.6180 C   0  0  0  0  0  0  0  0  0  0  0  0
    2.2763   -0.9394    1.5821 O   0  0  0  0  0  0  0  0  0  0  0  0
    4.2613   -0.9303    0.6110 O   0  0  0  0  0  0  0  0  0  0  0  0
    0.3255    1.9019    2.4773 H   0  0  0  0  0  0  0  0  0  0  0  0
    0.3504    0.1376    2.2428 H   0  0  0  0  0  0  0  0  0  0  0  0
    1.8236    1.0944    1.9557 H   0  0  0  0  0  0  0  0  0  0  0  0
    0.5827    2.7592   -1.1113 H   0  0  0  0  0  0  0  0  0  0  0  0
    0.5213    3.4076    0.5482 H   0  0  0  0  0  0  0  0  0  0  0  0
    2.8286    3.4511   -0.3755 H   0  0  0  0  0  0  0  0  0  0  0  0
    2.7500    2.4095    1.0378 H   0  0  0  0  0  0  0  0  0  0  0  0
    2.8219    1.6236   -1.8946 H   0  0  0  0  0  0  0  0  0  0  0  0
    4.0364    1.2805   -0.6582 H   0  0  0  0  0  0  0  0  0  0  0  0
    0.4474    0.3348   -1.5178 H   0  0  0  0  0  0  0  0  0  0  0  0
    0.2736   -1.3369    1.0571 H   0  0  0  0  0  0  0  0  0  0  0  0
   -1.5772    1.3370    1.3879 H   0  0  0  0  0  0  0  0  0  0  0  0
   -1.8010    3.0183   -0.3772 H   0  0  0  0  0  0  0  0  0  0  0  0
   -1.4644    1.8132   -1.6325 H   0  0  0  0  0  0  0  0  0  0  0  0
   -3.8355    1.8723    0.3045 H   0  0  0  0  0  0  0  0  0  0  0  0
   -3.8953    2.1144   -1.4559 H   0  0  0  0  0  0  0  0  0  0  0  0
   -4.3166   -0.1812   -1.5786 H   0  0  0  0  0  0  0  0  0  0  0  0
   -1.6797    0.1374   -2.0461 H   0  0  0  0  0  0  0  0  0  0  0  0
   -2.2553   -1.5056   -1.6322 H   0  0  0  0  0  0  0  0  0  0  0  0
   -5.8454   -0.4716    0.5845 H   0  0  0  0  0  0  0  0  0  0  0  0
   -4.9851   -1.2592    2.0470 H   0  0  0  0  0  0  0  0  0  0  0  0
   -2.3149   -2.0539    1.1136 H   0  0  0  0  0  0  0  0  0  0  0  0
   -2.2705   -0.5292    2.0499 H   0  0  0  0  0  0  0  0  0  0  0  0
   -0.3389   -2.1561   -1.8792 H   0  0  0  0  0  0  0  0  0  0  0  0
    3.7550   -0.9466   -1.8943 H   0  0  0  0  0  0  0  0  0  0  0  0
    2.2397   -1.8593   -1.6965 H   0  0  0  0  0  0  0  0  0  0  0  0
    2.2727   -0.3988   -2.7133 H   0  0  0  0  0  0  0  0  0  0  0  0
    4.6256   -1.3544    1.4000 H   0  0  0  0  0  0  0  0  0  0  0  0
  1  2  1  0  0  0  0
  2  3  1  0  0  0  0
  3  4  1  0  0  0  0
  4  5  1  0  0  0  0
  5  6  1  0  0  0  0
  6  7  1  0  0  0  0
  2  7  1  0  0  0  0
  7  8  1  0  0  0  0
  8  9  1  0  0  0  0
  9 10  1  0  0  0  0
  2 10  1  0  0  0  0
 10 11  1  0  0  0  0
 11 12  1  0  0  0  0
 12 13  1  0  0  0  0
 13 14  1  0  0  0  0
  9 14  1  0  0  0  0
 13 15  1  0  0  0  0
 15 16  2  0  0  0  0
 15 17  1  0  0  0  0
  9 17  1  0  0  0  0
  8 18  1  0  0  0  0
 18 19  2  0  0  0  0
  6 20  1  0  0  0  0
  6 21  1  0  0  0  0
 21 22  2  0  0  0  0
 21 23  1  0  0  0  0
  1 24  1  0  0  0  0
  1 25  1  0  0  0  0
  1 26  1  0  0  0  0
  3 27  1  0  0  0  0
  3 28  1  0  0  0  0
  4 29  1  0  0  0  0
  4 30  1  0  0  0  0
  5 31  1  0  0  0  0
  5 32  1  0  0  0  0
  7 33  1  0  0  0  0
  8 34  1  0  0  0  0
 10 35  1  0  0  0  0
 11 36  1  0  0  0  0
 11 37  1  0  0  0  0
 12 38  1  0  0  0  0
 12 39  1  0  0  0  0
 13 40  1  0  0  0  0
 14 41  1  0  0  0  0
 14 42  1  0  0  0  0
 16 43  1  0  0  0  0
 16 44  1  0  0  0  0
 17 45  1  0  0  0  0
 17 46  1  0  0  0  0
 18 47  1  0  0  0  0
 20 48  1  0  0  0  0
 20 49  1  0  0  0  0
 20 50  1  0  0  0  0
 23 51  1  0  0  0  0
M  END
$$$$
