C11H19NO
APtclcactv06231803033D 0   0.00000     0.00000
 
 32 32  0  0  0  0  0  0  0  0999 V2000
    5.3808   -0.5886   -0.8975 C   0  0  0  0  0  0  0  0  0  0  0  0
    4.4178   -0.5483    0.2908 C   0  0  0  0  0  0  0  0  0  0  0  0
    3.0111   -0.2063   -0.2041 C   0  0  0  0  0  0  0  0  0  0  0  0
    2.0481   -0.1661    0.9842 C   0  0  0  0  0  0  0  0  0  0  0  0
    0.6625    0.1708    0.4968 C   0  0  0  0  0  0  0  0  0  0  0  0
   -0.2395   -0.6903    0.1205 N   0  0  0  0  0  0  0  0  0  0  0  0
   -1.3472   -0.0218   -0.2465 C   0  0  0  0  0  0  0  0  0  0  0  0
   -1.1041    1.2895   -0.0857 C   0  0  0  0  0  0  0  0  0  0  0  0
    0.1535    1.4049    0.3844 O   0  0  0  0  0  0  0  0  0  0  0  0
   -2.0597    2.4189   -0.3724 C   0  0  0  0  0  0  0  0  0  0  0  0
   -2.6297   -0.6335   -0.7485 C   0  0  0  0  0  0  0  0  0  0  0  0
   -3.5578   -0.9152    0.4348 C   0  0  0  0  0  0  0  0  0  0  0  0
   -4.8599   -1.5362   -0.0749 C   0  0  0  0  0  0  0  0  0  0  0  0
    6.3830   -0.8323   -0.5449 H   0  0  0  0  0  0  0  0  0  0  0  0
    5.0507   -1.3474   -1.6070 H   0  0  0  0  0  0  0  0  0  0  0  0
    5.3946    0.3852   -1.3871 H   0  0  0  0  0  0  0  0  0  0  0  0
    4.4040   -1.5221    0.7804 H   0  0  0  0  0  0  0  0  0  0  0  0
    4.7479    0.2104    1.0003 H   0  0  0  0  0  0  0  0  0  0  0  0
    3.0249    0.7674   -0.6937 H   0  0  0  0  0  0  0  0  0  0  0  0
    2.6810   -0.9651   -0.9136 H   0  0  0  0  0  0  0  0  0  0  0  0
    2.0343   -1.1398    1.4738 H   0  0  0  0  0  0  0  0  0  0  0  0
    2.3782    0.5927    1.6938 H   0  0  0  0  0  0  0  0  0  0  0  0
   -2.6420    2.6382    0.5225 H   0  0  0  0  0  0  0  0  0  0  0  0
   -1.4973    3.3051   -0.6662 H   0  0  0  0  0  0  0  0  0  0  0  0
   -2.7312    2.1302   -1.1811 H   0  0  0  0  0  0  0  0  0  0  0  0
   -3.1171    0.0577   -1.4361 H   0  0  0  0  0  0  0  0  0  0  0  0
   -2.4087   -1.5665   -1.2670 H   0  0  0  0  0  0  0  0  0  0  0  0
   -3.0703   -1.6063    1.1224 H   0  0  0  0  0  0  0  0  0  0  0  0
   -3.7788    0.0178    0.9533 H   0  0  0  0  0  0  0  0  0  0  0  0
   -5.5211   -1.7369    0.7681 H   0  0  0  0  0  0  0  0  0  0  0  0
   -5.3473   -0.8450   -0.7624 H   0  0  0  0  0  0  0  0  0  0  0  0
   -4.6389   -2.4692   -0.5934 H   0  0  0  0  0  0  0  0  0  0  0  0
  1  2  1  0  0  0  0
  2  3  1  0  0  0  0
  3  4  1  0  0  0  0
  4  5  1  0  0  0  0
  5  6  2  0  0  0  0
  6  7  1  0  0  0  0
  7  8  2  0  0  0  0
  8  9  1  0  0  0  0
  5  9  1  0  0  0  0
  8 10  1  0  0  0  0
  7 11  1  0  0  0  0
 11 12  1  0  0  0  0
 12 13  1  0  0  0  0
  1 14  1  0  0  0  0
  1 15  1  0  0  0  0
  1 16  1  0  0  0  0
  2 17  1  0  0  0  0
  2 18  1  0  0  0  0
  3 19  1  0  0  0  0
  3 20  1  0  0  0  0
  4 21  1  0  0  0  0
  4 22  1  0  0  0  0
 10 23  1  0  0  0  0
 10 24  1  0  0  0  0
 10 25  1  0  0  0  0
 11 26  1  0  0  0  0
 11 27  1  0  0  0  0
 12 28  1  0  0  0  0
 12 29  1  0  0  0  0
 13 30  1  0  0  0  0
 13 31  1  0  0  0  0
 13 32  1  0  0  0  0
M  END
$$$$
