C9H15NO
APtclcactv06231803033D 0   0.00000     0.00000
 
 26 26  0  0  0  0  0  0  0  0999 V2000
    3.8296   -1.0887    0.1346 C   0  0  0  0  0  0  0  0  0  0  0  0
    2.3542   -0.9682    0.5213 C   0  0  0  0  0  0  0  0  0  0  0  0
    1.5589   -0.4211   -0.6658 C   0  0  0  0  0  0  0  0  0  0  0  0
    0.1057   -0.3024   -0.2850 C   0  0  0  0  0  0  0  0  0  0  0  0
   -0.4902    0.7685    0.2649 C   0  0  0  0  0  0  0  0  0  0  0  0
   -1.7876    0.4650    0.4472 N   0  0  0  0  0  0  0  0  0  0  0  0
   -1.9952   -0.7503    0.0270 C   0  0  0  0  0  0  0  0  0  0  0  0
   -0.8416   -1.2486   -0.4374 O   0  0  0  0  0  0  0  0  0  0  0  0
   -3.3166   -1.4743    0.0533 C   0  0  0  0  0  0  0  0  0  0  0  0
    0.1752    2.0747    0.6146 C   0  0  0  0  0  0  0  0  0  0  0  0
    0.0969    3.0236   -0.5830 C   0  0  0  0  0  0  0  0  0  0  0  0
    4.3962   -1.4784    0.9803 H   0  0  0  0  0  0  0  0  0  0  0  0
    3.9289   -1.7670   -0.7128 H   0  0  0  0  0  0  0  0  0  0  0  0
    4.2149   -0.1065   -0.1391 H   0  0  0  0  0  0  0  0  0  0  0  0
    1.9689   -1.9504    0.7950 H   0  0  0  0  0  0  0  0  0  0  0  0
    2.2549   -0.2899    1.3687 H   0  0  0  0  0  0  0  0  0  0  0  0
    1.9442    0.5611   -0.9395 H   0  0  0  0  0  0  0  0  0  0  0  0
    1.6582   -1.0994   -1.5132 H   0  0  0  0  0  0  0  0  0  0  0  0
   -3.8516   -1.2881   -0.8779 H   0  0  0  0  0  0  0  0  0  0  0  0
   -3.1424   -2.5445    0.1645 H   0  0  0  0  0  0  0  0  0  0  0  0
   -3.9117   -1.1140    0.8925 H   0  0  0  0  0  0  0  0  0  0  0  0
   -0.3326    2.5241    1.4680 H   0  0  0  0  0  0  0  0  0  0  0  0
    1.2200    1.8940    0.8673 H   0  0  0  0  0  0  0  0  0  0  0  0
    0.5782    3.9683   -0.3301 H   0  0  0  0  0  0  0  0  0  0  0  0
    0.6046    2.5742   -1.4364 H   0  0  0  0  0  0  0  0  0  0  0  0
   -0.9479    3.2043   -0.8357 H   0  0  0  0  0  0  0  0  0  0  0  0
  1  2  1  0  0  0  0
  2  3  1  0  0  0  0
  3  4  1  0  0  0  0
  4  5  2  0  0  0  0
  5  6  1  0  0  0  0
  6  7  2  0  0  0  0
  7  8  1  0  0  0  0
  4  8  1  0  0  0  0
  7  9  1  0  0  0  0
  5 10  1  0  0  0  0
 10 11  1  0  0  0  0
  1 12  1  0  0  0  0
  1 13  1  0  0  0  0
  1 14  1  0  0  0  0
  2 15  1  0  0  0  0
  2 16  1  0  0  0  0
  3 17  1  0  0  0  0
  3 18  1  0  0  0  0
  9 19  1  0  0  0  0
  9 20  1  0  0  0  0
  9 21  1  0  0  0  0
 10 22  1  0  0  0  0
 10 23  1  0  0  0  0
 11 24  1  0  0  0  0
 11 25  1  0  0  0  0
 11 26  1  0  0  0  0
M  END
$$$$
