C7H11NO
APtclcactv06231803033D 0   0.00000     0.00000
 
 20 20  0  0  0  0  0  0  0  0999 V2000
    2.6155    1.1337   -0.7133 C   0  0  0  0  0  0  0  0  0  0  0  0
    1.9258    0.7407    0.5947 C   0  0  0  0  0  0  0  0  0  0  0  0
    0.5271    0.2626    0.3011 C   0  0  0  0  0  0  0  0  0  0  0  0
    0.1547   -1.0006    0.0363 C   0  0  0  0  0  0  0  0  0  0  0  0
   -1.1745   -0.9999   -0.1680 N   0  0  0  0  0  0  0  0  0  0  0  0
   -1.6167    0.2181   -0.0359 C   0  0  0  0  0  0  0  0  0  0  0  0
   -0.5860    1.0210    0.2606 O   0  0  0  0  0  0  0  0  0  0  0  0
   -3.0522    0.6518   -0.1858 C   0  0  0  0  0  0  0  0  0  0  0  0
    1.0627   -2.2019   -0.0215 C   0  0  0  0  0  0  0  0  0  0  0  0
    3.6272    1.4795   -0.5009 H   0  0  0  0  0  0  0  0  0  0  0  0
    2.6586    0.2689   -1.3754 H   0  0  0  0  0  0  0  0  0  0  0  0
    2.0521    1.9327   -1.1953 H   0  0  0  0  0  0  0  0  0  0  0  0
    2.4892   -0.0583    1.0767 H   0  0  0  0  0  0  0  0  0  0  0  0
    1.8827    1.6054    1.2568 H   0  0  0  0  0  0  0  0  0  0  0  0
   -3.5526    0.5919    0.7807 H   0  0  0  0  0  0  0  0  0  0  0  0
   -3.0854    1.6789   -0.5491 H   0  0  0  0  0  0  0  0  0  0  0  0
   -3.5568   -0.0018   -0.8973 H   0  0  0  0  0  0  0  0  0  0  0  0
    1.1275   -2.6563    0.9672 H   0  0  0  0  0  0  0  0  0  0  0  0
    0.6611   -2.9272   -0.7291 H   0  0  0  0  0  0  0  0  0  0  0  0
    2.0564   -1.8911   -0.3443 H   0  0  0  0  0  0  0  0  0  0  0  0
  1  2  1  0  0  0  0
  2  3  1  0  0  0  0
  3  4  2  0  0  0  0
  4  5  1  0  0  0  0
  5  6  2  0  0  0  0
  6  7  1  0  0  0  0
  3  7  1  0  0  0  0
  6  8  1  0  0  0  0
  4  9  1  0  0  0  0
  1 10  1  0  0  0  0
  1 11  1  0  0  0  0
  1 12  1  0  0  0  0
  2 13  1  0  0  0  0
  2 14  1  0  0  0  0
  8 15  1  0  0  0  0
  8 16  1  0  0  0  0
  8 17  1  0  0  0  0
  9 18  1  0  0  0  0
  9 19  1  0  0  0  0
  9 20  1  0  0  0  0
M  END
$$$$
