C11H19NO
APtclcactv06231803033D 0   0.00000     0.00000
 
 32 32  0  0  0  0  0  0  0  0999 V2000
    5.3387   -0.0052   -0.7822 C   0  0  0  0  0  0  0  0  0  0  0  0
    4.3408   -0.0084    0.3776 C   0  0  0  0  0  0  0  0  0  0  0  0
    2.9147   -0.0084   -0.1766 C   0  0  0  0  0  0  0  0  0  0  0  0
    1.9169   -0.0116    0.9832 C   0  0  0  0  0  0  0  0  0  0  0  0
    0.5122   -0.0116    0.4374 C   0  0  0  0  0  0  0  0  0  0  0  0
   -0.1941   -1.0704    0.1604 N   0  0  0  0  0  0  0  0  0  0  0  0
   -1.3939   -0.6790   -0.3040 C   0  0  0  0  0  0  0  0  0  0  0  0
   -1.4115    0.6642   -0.3071 C   0  0  0  0  0  0  0  0  0  0  0  0
   -0.2180    1.0775    0.1626 O   0  0  0  0  0  0  0  0  0  0  0  0
   -2.5532    1.5435   -0.7480 C   0  0  0  0  0  0  0  0  0  0  0  0
   -3.4618    1.8372    0.4474 C   0  0  0  0  0  0  0  0  0  0  0  0
   -2.5161   -1.5841   -0.7428 C   0  0  0  0  0  0  0  0  0  0  0  0
   -3.4182   -1.8946    0.4533 C   0  0  0  0  0  0  0  0  0  0  0  0
    6.3547   -0.0052   -0.3874 H   0  0  0  0  0  0  0  0  0  0  0  0
    5.1868   -0.8940   -1.3946 H   0  0  0  0  0  0  0  0  0  0  0  0
    5.1854    0.8860   -1.3909 H   0  0  0  0  0  0  0  0  0  0  0  0
    4.4941   -0.8996    0.9863 H   0  0  0  0  0  0  0  0  0  0  0  0
    4.4927    0.8804    0.9900 H   0  0  0  0  0  0  0  0  0  0  0  0
    2.7615    0.8828   -0.7852 H   0  0  0  0  0  0  0  0  0  0  0  0
    2.7629   -0.8972   -0.7890 H   0  0  0  0  0  0  0  0  0  0  0  0
    2.0701   -0.9028    1.5919 H   0  0  0  0  0  0  0  0  0  0  0  0
    2.0687    0.8772    1.5957 H   0  0  0  0  0  0  0  0  0  0  0  0
   -2.1591    2.4796   -1.1435 H   0  0  0  0  0  0  0  0  0  0  0  0
   -3.1258    1.0340   -1.5231 H   0  0  0  0  0  0  0  0  0  0  0  0
   -4.2876    2.4732    0.1285 H   0  0  0  0  0  0  0  0  0  0  0  0
   -3.8560    0.9011    0.8429 H   0  0  0  0  0  0  0  0  0  0  0  0
   -2.8892    2.3467    1.2225 H   0  0  0  0  0  0  0  0  0  0  0  0
   -3.0996   -1.0893   -1.5192 H   0  0  0  0  0  0  0  0  0  0  0  0
   -2.1016   -2.5124   -1.1359 H   0  0  0  0  0  0  0  0  0  0  0  0
   -2.8347   -2.3894    1.2297 H   0  0  0  0  0  0  0  0  0  0  0  0
   -3.8327   -0.9663    0.8464 H   0  0  0  0  0  0  0  0  0  0  0  0
   -4.2299   -2.5493    0.1360 H   0  0  0  0  0  0  0  0  0  0  0  0
  1  2  1  0  0  0  0
  2  3  1  0  0  0  0
  3  4  1  0  0  0  0
  4  5  1  0  0  0  0
  5  6  2  0  0  0  0
  6  7  1  0  0  0  0
  7  8  2  0  0  0  0
  8  9  1  0  0  0  0
  5  9  1  0  0  0  0
  8 10  1  0  0  0  0
 10 11  1  0  0  0  0
  7 12  1  0  0  0  0
 12 13  1  0  0  0  0
  1 14  1  0  0  0  0
  1 15  1  0  0  0  0
  1 16  1  0  0  0  0
  2 17  1  0  0  0  0
  2 18  1  0  0  0  0
  3 19  1  0  0  0  0
  3 20  1  0  0  0  0
  4 21  1  0  0  0  0
  4 22  1  0  0  0  0
 10 23  1  0  0  0  0
 10 24  1  0  0  0  0
 11 25  1  0  0  0  0
 11 26  1  0  0  0  0
 11 27  1  0  0  0  0
 12 28  1  0  0  0  0
 12 29  1  0  0  0  0
 13 30  1  0  0  0  0
 13 31  1  0  0  0  0
 13 32  1  0  0  0  0
M  END
$$$$
