C11H19NO
APtclcactv06231803033D 0   0.00000     0.00000
 
 32 32  0  0  0  0  0  0  0  0999 V2000
    5.9588   -0.2197    0.2548 C   0  0  0  0  0  0  0  0  0  0  0  0
    4.5318   -0.0407    0.7767 C   0  0  0  0  0  0  0  0  0  0  0  0
    3.5456   -0.1472   -0.3883 C   0  0  0  0  0  0  0  0  0  0  0  0
    2.1186    0.0318    0.1336 C   0  0  0  0  0  0  0  0  0  0  0  0
    1.1324   -0.0747   -1.0314 C   0  0  0  0  0  0  0  0  0  0  0  0
   -0.2732    0.1016   -0.5173 C   0  0  0  0  0  0  0  0  0  0  0  0
   -0.9076    1.2347   -0.4166 N   0  0  0  0  0  0  0  0  0  0  0  0
   -2.1349    0.9991    0.0799 C   0  0  0  0  0  0  0  0  0  0  0  0
   -2.2444   -0.3238    0.2859 C   0  0  0  0  0  0  0  0  0  0  0  0
   -1.0783   -0.8820   -0.0941 O   0  0  0  0  0  0  0  0  0  0  0  0
   -3.4470   -1.0479    0.8340 C   0  0  0  0  0  0  0  0  0  0  0  0
   -4.3641   -1.4592   -0.3195 C   0  0  0  0  0  0  0  0  0  0  0  0
   -3.1960    2.0330    0.3562 C   0  0  0  0  0  0  0  0  0  0  0  0
    6.6614   -0.1439    1.0847 H   0  0  0  0  0  0  0  0  0  0  0  0
    6.0542   -1.1993   -0.2136 H   0  0  0  0  0  0  0  0  0  0  0  0
    6.1776    0.5565   -0.4785 H   0  0  0  0  0  0  0  0  0  0  0  0
    4.3130   -0.8170    1.5099 H   0  0  0  0  0  0  0  0  0  0  0  0
    4.4364    0.9389    1.2451 H   0  0  0  0  0  0  0  0  0  0  0  0
    3.7643    0.6290   -1.1216 H   0  0  0  0  0  0  0  0  0  0  0  0
    3.6410   -1.1268   -0.8567 H   0  0  0  0  0  0  0  0  0  0  0  0
    1.8998   -0.7445    0.8669 H   0  0  0  0  0  0  0  0  0  0  0  0
    2.0232    1.0113    0.6020 H   0  0  0  0  0  0  0  0  0  0  0  0
    1.3511    0.7015   -1.7646 H   0  0  0  0  0  0  0  0  0  0  0  0
    1.2278   -1.0543   -1.4998 H   0  0  0  0  0  0  0  0  0  0  0  0
   -3.1209   -1.9370    1.3737 H   0  0  0  0  0  0  0  0  0  0  0  0
   -3.9894   -0.3896    1.5125 H   0  0  0  0  0  0  0  0  0  0  0  0
   -4.6902   -0.5701   -0.8592 H   0  0  0  0  0  0  0  0  0  0  0  0
   -3.8217   -2.1176   -0.9980 H   0  0  0  0  0  0  0  0  0  0  0  0
   -5.2339   -1.9830    0.0770 H   0  0  0  0  0  0  0  0  0  0  0  0
   -3.8154    2.1641   -0.5310 H   0  0  0  0  0  0  0  0  0  0  0  0
   -3.8180    1.7019    1.1879 H   0  0  0  0  0  0  0  0  0  0  0  0
   -2.7221    2.9807    0.6118 H   0  0  0  0  0  0  0  0  0  0  0  0
  1  2  1  0  0  0  0
  2  3  1  0  0  0  0
  3  4  1  0  0  0  0
  4  5  1  0  0  0  0
  5  6  1  0  0  0  0
  6  7  2  0  0  0  0
  7  8  1  0  0  0  0
  8  9  2  0  0  0  0
  9 10  1  0  0  0  0
  6 10  1  0  0  0  0
  9 11  1  0  0  0  0
 11 12  1  0  0  0  0
  8 13  1  0  0  0  0
  1 14  1  0  0  0  0
  1 15  1  0  0  0  0
  1 16  1  0  0  0  0
  2 17  1  0  0  0  0
  2 18  1  0  0  0  0
  3 19  1  0  0  0  0
  3 20  1  0  0  0  0
  4 21  1  0  0  0  0
  4 22  1  0  0  0  0
  5 23  1  0  0  0  0
  5 24  1  0  0  0  0
 11 25  1  0  0  0  0
 11 26  1  0  0  0  0
 12 27  1  0  0  0  0
 12 28  1  0  0  0  0
 12 29  1  0  0  0  0
 13 30  1  0  0  0  0
 13 31  1  0  0  0  0
 13 32  1  0  0  0  0
M  END
$$$$
