C10H14O
APtclcactv06231803033D 0   0.00000     0.00000
 
 25 25  0  0  0  0  0  0  0  0999 V2000
   -2.9614    0.7916    1.1585 C   0  0  0  0  0  0  0  0  0  0  0  0
   -2.5722   -0.2829    0.1412 C   0  0  0  0  0  0  0  0  0  0  0  0
   -3.2230    0.0318   -1.2073 C   0  0  0  0  0  0  0  0  0  0  0  0
   -1.0737   -0.3054   -0.0173 C   0  0  0  0  0  0  0  0  0  0  0  0
   -0.3935   -1.4191    0.2652 C   0  0  0  0  0  0  0  0  0  0  0  0
    1.0606   -1.4404    0.1152 C   0  0  0  0  0  0  0  0  0  0  0  0
    1.7466   -0.2687    0.0778 C   0  0  0  0  0  0  0  0  0  0  0  0
    1.0068    1.0382    0.1939 C   0  0  0  0  0  0  0  0  0  0  0  0
   -0.3543    0.9258   -0.4988 C   0  0  0  0  0  0  0  0  0  0  0  0
    3.1468   -0.2757   -0.0689 C   0  0  0  0  0  0  0  0  0  0  0  0
    3.7592    0.7728   -0.1022 O   0  0  0  0  0  0  0  0  0  0  0  0
   -2.6185    1.7651    0.8079 H   0  0  0  0  0  0  0  0  0  0  0  0
   -4.0452    0.8079    1.2731 H   0  0  0  0  0  0  0  0  0  0  0  0
   -2.4978    0.5674    2.1191 H   0  0  0  0  0  0  0  0  0  0  0  0
   -2.9151   -1.2564    0.4918 H   0  0  0  0  0  0  0  0  0  0  0  0
   -2.8800    1.0052   -1.5578 H   0  0  0  0  0  0  0  0  0  0  0  0
   -2.9457   -0.7337   -1.9320 H   0  0  0  0  0  0  0  0  0  0  0  0
   -4.3068    0.0480   -1.0926 H   0  0  0  0  0  0  0  0  0  0  0  0
   -0.9160   -2.3016    0.6040 H   0  0  0  0  0  0  0  0  0  0  0  0
    1.5856   -2.3809    0.0350 H   0  0  0  0  0  0  0  0  0  0  0  0
    0.8623    1.2802    1.2469 H   0  0  0  0  0  0  0  0  0  0  0  0
    1.5893    1.8276   -0.2812 H   0  0  0  0  0  0  0  0  0  0  0  0
   -0.2073    0.8680   -1.5773 H   0  0  0  0  0  0  0  0  0  0  0  0
   -0.9532    1.8057   -0.2640 H   0  0  0  0  0  0  0  0  0  0  0  0
    3.6764   -1.2133   -0.1518 H   0  0  0  0  0  0  0  0  0  0  0  0
  1  2  1  0  0  0  0
  2  3  1  0  0  0  0
  2  4  1  0  0  0  0
  4  5  2  0  0  0  0
  5  6  1  0  0  0  0
  6  7  2  0  0  0  0
  7  8  1  0  0  0  0
  8  9  1  0  0  0  0
  4  9  1  0  0  0  0
  7 10  1  0  0  0  0
 10 11  2  0  0  0  0
  1 12  1  0  0  0  0
  1 13  1  0  0  0  0
  1 14  1  0  0  0  0
  2 15  1  0  0  0  0
  3 16  1  0  0  0  0
  3 17  1  0  0  0  0
  3 18  1  0  0  0  0
  5 19  1  0  0  0  0
  6 20  1  0  0  0  0
  8 21  1  0  0  0  0
  8 22  1  0  0  0  0
  9 23  1  0  0  0  0
  9 24  1  0  0  0  0
 10 25  1  0  0  0  0
M  END
$$$$
