C3H6O
APtclcactv06201810133D 0   0.00000     0.00000
 
 10  9  0  0  0  0  0  0  0  0999 V2000
    1.7550    0.3141   -0.1732 C   0  0  0  0  0  0  0  0  0  0  0  0
    0.5668   -0.6063    0.1132 C   0  0  0  0  0  0  0  0  0  0  0  0
   -0.6623    0.2260    0.3728 C   0  0  0  0  0  0  0  0  0  0  0  0
   -1.6640    0.0424   -0.2763 O   0  0  0  0  0  0  0  0  0  0  0  0
    1.9291    0.9609    0.6867 H   0  0  0  0  0  0  0  0  0  0  0  0
    2.6440   -0.2879   -0.3609 H   0  0  0  0  0  0  0  0  0  0  0  0
    1.5383    0.9251   -1.0494 H   0  0  0  0  0  0  0  0  0  0  0  0
    0.3927   -1.2531   -0.7467 H   0  0  0  0  0  0  0  0  0  0  0  0
    0.7836   -1.2173    0.9895 H   0  0  0  0  0  0  0  0  0  0  0  0
   -0.6474    0.9868    1.1392 H   0  0  0  0  0  0  0  0  0  0  0  0
  1  2  1  0  0  0  0
  2  3  1  0  0  0  0
  3  4  2  0  0  0  0
  1  5  1  0  0  0  0
  1  6  1  0  0  0  0
  1  7  1  0  0  0  0
  2  8  1  0  0  0  0
  2  9  1  0  0  0  0
  3 10  1  0  0  0  0
M  END
$$$$
