C10H16O
APtclcactv06231803033D 0   0.00000     0.00000
 
 27 27  0  0  0  0  0  0  0  0999 V2000
    4.0289    0.1622    0.2009 C   0  0  0  0  0  0  0  0  0  0  0  0
    2.5301    0.0701    0.0733 C   0  0  0  0  0  0  0  0  0  0  0  0
    1.8737    1.1588   -0.1706 C   0  0  0  0  0  0  0  0  0  0  0  0
    0.3815    1.2266   -0.3143 C   0  0  0  0  0  0  0  0  0  0  0  0
   -0.1887   -0.1726   -0.5571 C   0  0  0  0  0  0  0  0  0  0  0  0
    0.3919   -1.1228    0.4978 C   0  0  0  0  0  0  0  0  0  0  0  0
    1.8921   -1.2790    0.2308 C   0  0  0  0  0  0  0  0  0  0  0  0
   -1.6903   -0.1360   -0.4343 C   0  0  0  0  0  0  0  0  0  0  0  0
   -2.4393   -0.4791   -1.4528 C   0  0  0  0  0  0  0  0  0  0  0  0
   -2.3302    0.2954    0.8601 C   0  0  0  0  0  0  0  0  0  0  0  0
   -3.7522    0.2468    0.7279 O   0  0  0  0  0  0  0  0  0  0  0  0
    4.3428    1.1963    0.0587 H   0  0  0  0  0  0  0  0  0  0  0  0
    4.3306   -0.1760    1.1922 H   0  0  0  0  0  0  0  0  0  0  0  0
    4.4973   -0.4670   -0.5559 H   0  0  0  0  0  0  0  0  0  0  0  0
    2.4348    2.0754   -0.2768 H   0  0  0  0  0  0  0  0  0  0  0  0
   -0.0509    1.6398    0.5969 H   0  0  0  0  0  0  0  0  0  0  0  0
    0.1285    1.8709   -1.1563 H   0  0  0  0  0  0  0  0  0  0  0  0
    0.0923   -0.5150   -1.5530 H   0  0  0  0  0  0  0  0  0  0  0  0
    0.2346   -0.7060    1.4926 H   0  0  0  0  0  0  0  0  0  0  0  0
   -0.0956   -2.0949    0.4233 H   0  0  0  0  0  0  0  0  0  0  0  0
    2.0385   -1.8626   -0.6781 H   0  0  0  0  0  0  0  0  0  0  0  0
    2.3563   -1.7978    1.0695 H   0  0  0  0  0  0  0  0  0  0  0  0
   -3.5154   -0.4529   -1.3648 H   0  0  0  0  0  0  0  0  0  0  0  0
   -1.9807   -0.7882   -2.3805 H   0  0  0  0  0  0  0  0  0  0  0  0
   -2.0167   -0.3741    1.6611 H   0  0  0  0  0  0  0  0  0  0  0  0
   -2.0218    1.3138    1.0962 H   0  0  0  0  0  0  0  0  0  0  0  0
   -4.2307    0.5123    1.5252 H   0  0  0  0  0  0  0  0  0  0  0  0
  1  2  1  0  0  0  0
  2  3  2  0  0  0  0
  3  4  1  0  0  0  0
  4  5  1  0  0  0  0
  5  6  1  0  0  0  0
  6  7  1  0  0  0  0
  2  7  1  0  0  0  0
  5  8  1  0  0  0  0
  8  9  2  0  0  0  0
  8 10  1  0  0  0  0
 10 11  1  0  0  0  0
  1 12  1  0  0  0  0
  1 13  1  0  0  0  0
  1 14  1  0  0  0  0
  3 15  1  0  0  0  0
  4 16  1  0  0  0  0
  4 17  1  0  0  0  0
  5 18  1  0  0  0  0
  6 19  1  0  0  0  0
  6 20  1  0  0  0  0
  7 21  1  0  0  0  0
  7 22  1  0  0  0  0
  9 23  1  0  0  0  0
  9 24  1  0  0  0  0
 10 25  1  0  0  0  0
 10 26  1  0  0  0  0
 11 27  1  0  0  0  0
M  END
$$$$
