C10H16O
APtclcactv06231803033D 0   0.00000     0.00000
 
 27 27  0  0  0  0  0  0  0  0999 V2000
    2.9427    0.0000    1.4502 C   0  0  0  0  0  0  0  0  0  0  0  0
    2.6099    0.0000   -0.0196 C   0  0  0  0  0  0  0  0  0  0  0  0
    3.5718   -0.0000   -0.9089 C   0  0  0  0  0  0  0  0  0  0  0  0
    1.1706   -0.0000   -0.4663 C   0  0  0  0  0  0  0  0  0  0  0  0
    0.4698   -1.2492    0.0714 C   0  0  0  0  0  0  0  0  0  0  0  0
   -0.9915   -1.2492   -0.3821 C   0  0  0  0  0  0  0  0  0  0  0  0
   -1.6923    0.0000    0.1556 C   0  0  0  0  0  0  0  0  0  0  0  0
   -0.9915    1.2492   -0.3821 C   0  0  0  0  0  0  0  0  0  0  0  0
    0.4698    1.2492    0.0714 C   0  0  0  0  0  0  0  0  0  0  0  0
   -3.1316   -0.0000   -0.2911 C   0  0  0  0  0  0  0  0  0  0  0  0
   -4.0183    0.0000    0.5287 O   0  0  0  0  0  0  0  0  0  0  0  0
    3.0230    1.0277    1.8046 H   0  0  0  0  0  0  0  0  0  0  0  0
    2.1550   -0.5138    2.0011 H   0  0  0  0  0  0  0  0  0  0  0  0
    3.8910   -0.5138    1.6080 H   0  0  0  0  0  0  0  0  0  0  0  0
    4.6032   -0.0000   -0.5888 H   0  0  0  0  0  0  0  0  0  0  0  0
    3.3333   -0.0000   -1.9623 H   0  0  0  0  0  0  0  0  0  0  0  0
    1.1282   -0.0000   -1.5554 H   0  0  0  0  0  0  0  0  0  0  0  0
    0.9691   -2.1392   -0.3116 H   0  0  0  0  0  0  0  0  0  0  0  0
    0.5122   -1.2492    1.1606 H   0  0  0  0  0  0  0  0  0  0  0  0
   -1.0339   -1.2492   -1.4713 H   0  0  0  0  0  0  0  0  0  0  0  0
   -1.4908   -2.1392    0.0010 H   0  0  0  0  0  0  0  0  0  0  0  0
   -1.6499    0.0000    1.2448 H   0  0  0  0  0  0  0  0  0  0  0  0
   -1.0339    1.2492   -1.4713 H   0  0  0  0  0  0  0  0  0  0  0  0
   -1.4908    2.1392    0.0010 H   0  0  0  0  0  0  0  0  0  0  0  0
    0.5122    1.2492    1.1606 H   0  0  0  0  0  0  0  0  0  0  0  0
    0.9691    2.1392   -0.3116 H   0  0  0  0  0  0  0  0  0  0  0  0
   -3.3701   -0.0000   -1.3444 H   0  0  0  0  0  0  0  0  0  0  0  0
  1  2  1  0  0  0  0
  2  3  2  0  0  0  0
  2  4  1  0  0  0  0
  4  5  1  0  0  0  0
  5  6  1  0  0  0  0
  6  7  1  0  0  0  0
  7  8  1  0  0  0  0
  8  9  1  0  0  0  0
  4  9  1  0  0  0  0
  7 10  1  0  0  0  0
 10 11  2  0  0  0  0
  1 12  1  0  0  0  0
  1 13  1  0  0  0  0
  1 14  1  0  0  0  0
  3 15  1  0  0  0  0
  3 16  1  0  0  0  0
  4 17  1  0  0  0  0
  5 18  1  0  0  0  0
  5 19  1  0  0  0  0
  6 20  1  0  0  0  0
  6 21  1  0  0  0  0
  7 22  1  0  0  0  0
  8 23  1  0  0  0  0
  8 24  1  0  0  0  0
  9 25  1  0  0  0  0
  9 26  1  0  0  0  0
 10 27  1  0  0  0  0
M  END
$$$$
