C10H8O5
APtclcactv06281813443D 0   0.00000     0.00000
 
 23 24  0  0  0  0  0  0  0  0999 V2000
    3.5655    2.0651    0.0049 C   0  0  0  0  0  0  0  0  0  0  0  0
    3.2551    0.6703   -0.0088 O   0  0  0  0  0  0  0  0  0  0  0  0
    1.9380    0.3307   -0.0094 C   0  0  0  0  0  0  0  0  0  0  0  0
    1.5667   -1.0153   -0.0224 C   0  0  0  0  0  0  0  0  0  0  0  0
    0.2272   -1.3755   -0.0235 C   0  0  0  0  0  0  0  0  0  0  0  0
   -0.7559   -0.3917   -0.0113 C   0  0  0  0  0  0  0  0  0  0  0  0
   -0.3806    0.9637    0.0023 C   0  0  0  0  0  0  0  0  0  0  0  0
    0.9742    1.3170    0.0086 C   0  0  0  0  0  0  0  0  0  0  0  0
   -1.4258    1.9893    0.0151 C   0  0  0  0  0  0  0  0  0  0  0  0
   -2.7227    1.5847    0.0133 C   0  0  0  0  0  0  0  0  0  0  0  0
   -3.0277    0.2082   -0.0005 C   0  0  0  0  0  0  0  0  0  0  0  0
   -4.1946   -0.1412   -0.0020 O   0  0  0  0  0  0  0  0  0  0  0  0
   -2.0654   -0.7268   -0.0127 O   0  0  0  0  0  0  0  0  0  0  0  0
   -0.1246   -2.6900   -0.0372 O   0  0  0  0  0  0  0  0  0  0  0  0
    2.5248   -1.9794   -0.0344 O   0  0  0  0  0  0  0  0  0  0  0  0
    4.6475    2.1967    0.0038 H   0  0  0  0  0  0  0  0  0  0  0  0
    3.1408    2.5405   -0.8793 H   0  0  0  0  0  0  0  0  0  0  0  0
    3.1448    2.5222    0.9005 H   0  0  0  0  0  0  0  0  0  0  0  0
    1.2633    2.3576    0.0194 H   0  0  0  0  0  0  0  0  0  0  0  0
   -1.1725    3.0391    0.0260 H   0  0  0  0  0  0  0  0  0  0  0  0
   -3.5179    2.3154    0.0229 H   0  0  0  0  0  0  0  0  0  0  0  0
   -0.2245   -3.0796    0.8422 H   0  0  0  0  0  0  0  0  0  0  0  0
    2.8040   -2.2675    0.8454 H   0  0  0  0  0  0  0  0  0  0  0  0
  1  2  1  0  0  0  0
  2  3  1  0  0  0  0
  3  4  2  0  0  0  0
  4  5  1  0  0  0  0
  5  6  2  0  0  0  0
  6  7  1  0  0  0  0
  7  8  2  0  0  0  0
  3  8  1  0  0  0  0
  7  9  1  0  0  0  0
  9 10  2  0  0  0  0
 10 11  1  0  0  0  0
 11 12  2  0  0  0  0
 11 13  1  0  0  0  0
  6 13  1  0  0  0  0
  5 14  1  0  0  0  0
  4 15  1  0  0  0  0
  1 16  1  0  0  0  0
  1 17  1  0  0  0  0
  1 18  1  0  0  0  0
  8 19  1  0  0  0  0
  9 20  1  0  0  0  0
 10 21  1  0  0  0  0
 14 22  1  0  0  0  0
 15 23  1  0  0  0  0
M  END
$$$$
