C14H12O3
APtclcactv06281816413D 0   0.00000     0.00000
 
 29 30  0  0  0  0  0  0  0  0999 V2000
    5.4682    1.2997   -0.0011 C   0  0  0  0  0  0  0  0  0  0  0  0
    4.1070    1.7348   -0.0013 O   0  0  0  0  0  0  0  0  0  0  0  0
    3.1538    0.7724   -0.0009 C   0  0  0  0  0  0  0  0  0  0  0  0
    3.5054   -0.5690   -0.0003 C   0  0  0  0  0  0  0  0  0  0  0  0
    2.4991   -1.5395    0.0001 C   0  0  0  0  0  0  0  0  0  0  0  0
    2.7981   -2.7224    0.0011 O   0  0  0  0  0  0  0  0  0  0  0  0
    1.2038   -1.1781   -0.0001 O   0  0  0  0  0  0  0  0  0  0  0  0
    0.8403    0.1192   -0.0007 C   0  0  0  0  0  0  0  0  0  0  0  0
    1.7910    1.1158    0.0048 C   0  0  0  0  0  0  0  0  0  0  0  0
   -0.5791    0.4731   -0.0010 C   0  0  0  0  0  0  0  0  0  0  0  0
   -1.5160   -0.4970   -0.0006 C   0  0  0  0  0  0  0  0  0  0  0  0
   -2.9442   -0.1409   -0.0009 C   0  0  0  0  0  0  0  0  0  0  0  0
   -3.9186   -1.1440   -0.0005 C   0  0  0  0  0  0  0  0  0  0  0  0
   -5.2545   -0.8023   -0.0002 C   0  0  0  0  0  0  0  0  0  0  0  0
   -5.6320    0.5292   -0.0008 C   0  0  0  0  0  0  0  0  0  0  0  0
   -4.6736    1.5277   -0.0017 C   0  0  0  0  0  0  0  0  0  0  0  0
   -3.3336    1.2022    0.0044 C   0  0  0  0  0  0  0  0  0  0  0  0
    5.6578    0.7001    0.8892 H   0  0  0  0  0  0  0  0  0  0  0  0
    5.6578    0.6993   -0.8908 H   0  0  0  0  0  0  0  0  0  0  0  0
    6.1272    2.1680   -0.0015 H   0  0  0  0  0  0  0  0  0  0  0  0
    4.5453   -0.8608   -0.0004 H   0  0  0  0  0  0  0  0  0  0  0  0
    1.4915    2.1534    0.0046 H   0  0  0  0  0  0  0  0  0  0  0  0
   -0.8768    1.5113   -0.0015 H   0  0  0  0  0  0  0  0  0  0  0  0
   -1.2183   -1.5352   -0.0001 H   0  0  0  0  0  0  0  0  0  0  0  0
   -3.6256   -2.1834   -0.0007 H   0  0  0  0  0  0  0  0  0  0  0  0
   -6.0082   -1.5758    0.0001 H   0  0  0  0  0  0  0  0  0  0  0  0
   -6.6799    0.7905   -0.0010 H   0  0  0  0  0  0  0  0  0  0  0  0
   -4.9759    2.5645   -0.0028 H   0  0  0  0  0  0  0  0  0  0  0  0
   -2.5869    1.9824    0.0040 H   0  0  0  0  0  0  0  0  0  0  0  0
  1  2  1  0  0  0  0
  2  3  1  0  0  0  0
  3  4  2  0  0  0  0
  4  5  1  0  0  0  0
  5  6  2  0  0  0  0
  5  7  1  0  0  0  0
  7  8  1  0  0  0  0
  8  9  2  0  0  0  0
  3  9  1  0  0  0  0
  8 10  1  0  0  0  0
 10 11  2  0  0  0  0
 11 12  1  0  0  0  0
 12 13  2  0  0  0  0
 13 14  1  0  0  0  0
 14 15  2  0  0  0  0
 15 16  1  0  0  0  0
 16 17  2  0  0  0  0
 12 17  1  0  0  0  0
  1 18  1  0  0  0  0
  1 19  1  0  0  0  0
  1 20  1  0  0  0  0
  4 21  1  0  0  0  0
  9 22  1  0  0  0  0
 10 23  1  0  0  0  0
 11 24  1  0  0  0  0
 13 25  1  0  0  0  0
 14 26  1  0  0  0  0
 15 27  1  0  0  0  0
 16 28  1  0  0  0  0
 17 29  1  0  0  0  0
M  END
$$$$
