C5H4N4O
APtclcactv06281816413D 0   0.00000     0.00000
 
 14 15  0  0  0  0  0  0  0  0999 V2000
   -2.4141    0.4968    0.0012 C   0  0  0  0  0  0  0  0  0  0  0  0
   -2.0522   -0.7558    0.0114 N   0  0  0  0  0  0  0  0  0  0  0  0
   -0.7087   -0.8422    0.0052 C   0  0  0  0  0  0  0  0  0  0  0  0
   -0.2163    0.4742   -0.0101 C   0  0  0  0  0  0  0  0  0  0  0  0
   -1.3235    1.2961   -0.0123 N   0  0  0  0  0  0  0  0  0  0  0  0
    1.1637    0.6712   -0.0189 C   0  0  0  0  0  0  0  0  0  0  0  0
    1.9573   -0.3943   -0.0124 N   0  0  0  0  0  0  0  0  0  0  0  0
    1.4585   -1.6174    0.0020 C   0  0  0  0  0  0  0  0  0  0  0  0
    0.1653   -1.8529    0.0103 N   0  0  0  0  0  0  0  0  0  0  0  0
    1.6844    1.9224   -0.0341 O   0  0  0  0  0  0  0  0  0  0  0  0
   -3.4363    0.8453   -0.0010 H   0  0  0  0  0  0  0  0  0  0  0  0
   -1.3206    2.2660   -0.0221 H   0  0  0  0  0  0  0  0  0  0  0  0
    2.1391   -2.4559    0.0068 H   0  0  0  0  0  0  0  0  0  0  0  0
    1.8398    2.2944    0.8448 H   0  0  0  0  0  0  0  0  0  0  0  0
  1  2  2  0  0  0  0
  2  3  1  0  0  0  0
  3  4  2  0  0  0  0
  4  5  1  0  0  0  0
  1  5  1  0  0  0  0
  4  6  1  0  0  0  0
  6  7  2  0  0  0  0
  7  8  1  0  0  0  0
  8  9  2  0  0  0  0
  3  9  1  0  0  0  0
  6 10  1  0  0  0  0
  1 11  1  0  0  0  0
  5 12  1  0  0  0  0
  8 13  1  0  0  0  0
 10 14  1  0  0  0  0
M  END
$$$$
