C6H11NO4
APtclcactv06211804303D 0   0.00000     0.00000
 
 22 21  0  0  0  0  0  0  0  0999 V2000
    4.4059   -0.8302    0.5503 C   0  0  0  0  0  0  0  0  0  0  0  0
    3.2078   -0.1001    0.0003 C   0  0  0  0  0  0  0  0  0  0  0  0
    3.3622    0.8574   -0.7203 O   0  0  0  0  0  0  0  0  0  0  0  0
    1.9691   -0.5135    0.3110 O   0  0  0  0  0  0  0  0  0  0  0  0
    0.8624    0.2373   -0.2546 C   0  0  0  0  0  0  0  0  0  0  0  0
   -0.4601   -0.3776    0.2078 C   0  0  0  0  0  0  0  0  0  0  0  0
   -1.6263    0.4135   -0.3882 C   0  0  0  0  0  0  0  0  0  0  0  0
   -2.9254   -0.2634   -0.0342 C   0  0  0  0  0  0  0  0  0  0  0  0
   -3.5961    0.1565    0.8789 O   0  0  0  0  0  0  0  0  0  0  0  0
   -3.3373   -1.3326   -0.7333 O   0  0  0  0  0  0  0  0  0  0  0  0
   -1.6210    1.7781    0.1558 N   0  0  0  0  0  0  0  0  0  0  0  0
    5.3181   -0.3533    0.1917 H   0  0  0  0  0  0  0  0  0  0  0  0
    4.3828   -0.7974    1.6396 H   0  0  0  0  0  0  0  0  0  0  0  0
    4.3834   -1.8679    0.2175 H   0  0  0  0  0  0  0  0  0  0  0  0
    0.9178    1.2734    0.0795 H   0  0  0  0  0  0  0  0  0  0  0  0
    0.9184    0.2029   -1.3426 H   0  0  0  0  0  0  0  0  0  0  0  0
   -0.5155   -1.4137   -0.1263 H   0  0  0  0  0  0  0  0  0  0  0  0
   -0.5161   -0.3432    1.2958 H   0  0  0  0  0  0  0  0  0  0  0  0
   -1.5214    0.4541   -1.4723 H   0  0  0  0  0  0  0  0  0  0  0  0
   -4.1770   -1.7329   -0.4692 H   0  0  0  0  0  0  0  0  0  0  0  0
   -1.7171    1.7673    1.1601 H   0  0  0  0  0  0  0  0  0  0  0  0
   -0.7882    2.2750   -0.1225 H   0  0  0  0  0  0  0  0  0  0  0  0
  1  2  1  0  0  0  0
  2  3  2  0  0  0  0
  2  4  1  0  0  0  0
  4  5  1  0  0  0  0
  5  6  1  0  0  0  0
  6  7  1  0  0  0  0
  7  8  1  0  0  0  0
  8  9  2  0  0  0  0
  8 10  1  0  0  0  0
  7 11  1  0  0  0  0
  1 12  1  0  0  0  0
  1 13  1  0  0  0  0
  1 14  1  0  0  0  0
  5 15  1  0  0  0  0
  5 16  1  0  0  0  0
  6 17  1  0  0  0  0
  6 18  1  0  0  0  0
  7 19  1  0  0  0  0
 10 20  1  0  0  0  0
 11 21  1  0  0  0  0
 11 22  1  0  0  0  0
M  END
$$$$
