C16H12O7
APtclcactv06281816423D 0   0.00000     0.00000
 
 35 37  0  0  0  0  0  0  0  0999 V2000
    0.9124    3.0179   -1.2509 C   0  0  0  0  0  0  0  0  0  0  0  0
    0.8908    2.1972   -0.0813 O   0  0  0  0  0  0  0  0  0  0  0  0
   -0.0334    1.1990   -0.0439 C   0  0  0  0  0  0  0  0  0  0  0  0
    0.3629   -0.1046   -0.0544 C   0  0  0  0  0  0  0  0  0  0  0  0
   -0.5119   -1.1245   -0.0184 O   0  0  0  0  0  0  0  0  0  0  0  0
   -1.8463   -0.9291    0.0310 C   0  0  0  0  0  0  0  0  0  0  0  0
   -2.7195   -2.0053    0.0678 C   0  0  0  0  0  0  0  0  0  0  0  0
   -4.0876   -1.7877    0.1188 C   0  0  0  0  0  0  0  0  0  0  0  0
   -4.5999   -0.4950    0.1330 C   0  0  0  0  0  0  0  0  0  0  0  0
   -3.7454    0.5912    0.0964 C   0  0  0  0  0  0  0  0  0  0  0  0
   -2.3616    0.3791    0.0458 C   0  0  0  0  0  0  0  0  0  0  0  0
   -1.4173    1.5073    0.0122 C   0  0  0  0  0  0  0  0  0  0  0  0
   -1.8095    2.6632    0.0273 O   0  0  0  0  0  0  0  0  0  0  0  0
   -4.2435    1.8536    0.1093 O   0  0  0  0  0  0  0  0  0  0  0  0
   -4.9357   -2.8472    0.1546 O   0  0  0  0  0  0  0  0  0  0  0  0
    1.8049   -0.4078   -0.1078 C   0  0  0  0  0  0  0  0  0  0  0  0
    2.6914    0.2503    0.7493 C   0  0  0  0  0  0  0  0  0  0  0  0
    4.0417   -0.0376    0.6951 C   0  0  0  0  0  0  0  0  0  0  0  0
    4.5171   -0.9819   -0.2130 C   0  0  0  0  0  0  0  0  0  0  0  0
    3.6371   -1.6356   -1.0642 C   0  0  0  0  0  0  0  0  0  0  0  0
    2.2880   -1.3582   -1.0116 C   0  0  0  0  0  0  0  0  0  0  0  0
    5.8455   -1.2630   -0.2655 O   0  0  0  0  0  0  0  0  0  0  0  0
    4.9071    0.6009    1.5275 O   0  0  0  0  0  0  0  0  0  0  0  0
    1.6341    3.8236   -1.1162 H   0  0  0  0  0  0  0  0  0  0  0  0
    1.1979    2.4148   -2.1128 H   0  0  0  0  0  0  0  0  0  0  0  0
   -0.0783    3.4414   -1.4160 H   0  0  0  0  0  0  0  0  0  0  0  0
   -2.3335   -3.0139    0.0565 H   0  0  0  0  0  0  0  0  0  0  0  0
   -5.6679   -0.3392    0.1724 H   0  0  0  0  0  0  0  0  0  0  0  0
   -4.3550    2.2234    0.9958 H   0  0  0  0  0  0  0  0  0  0  0  0
   -5.1480   -3.1509    1.0478 H   0  0  0  0  0  0  0  0  0  0  0  0
    2.3219    0.9824    1.4521 H   0  0  0  0  0  0  0  0  0  0  0  0
    4.0098   -2.3667   -1.7664 H   0  0  0  0  0  0  0  0  0  0  0  0
    1.6054   -1.8684   -1.6752 H   0  0  0  0  0  0  0  0  0  0  0  0
    6.1193   -1.9802    0.3226 H   0  0  0  0  0  0  0  0  0  0  0  0
    5.0460    0.1499    2.3716 H   0  0  0  0  0  0  0  0  0  0  0  0
  1  2  1  0  0  0  0
  2  3  1  0  0  0  0
  3  4  2  0  0  0  0
  4  5  1  0  0  0  0
  5  6  1  0  0  0  0
  6  7  2  0  0  0  0
  7  8  1  0  0  0  0
  8  9  2  0  0  0  0
  9 10  1  0  0  0  0
 10 11  2  0  0  0  0
  6 11  1  0  0  0  0
 11 12  1  0  0  0  0
  3 12  1  0  0  0  0
 12 13  2  0  0  0  0
 10 14  1  0  0  0  0
  8 15  1  0  0  0  0
  4 16  1  0  0  0  0
 16 17  2  0  0  0  0
 17 18  1  0  0  0  0
 18 19  2  0  0  0  0
 19 20  1  0  0  0  0
 20 21  2  0  0  0  0
 16 21  1  0  0  0  0
 19 22  1  0  0  0  0
 18 23  1  0  0  0  0
  1 24  1  0  0  0  0
  1 25  1  0  0  0  0
  1 26  1  0  0  0  0
  7 27  1  0  0  0  0
  9 28  1  0  0  0  0
 14 29  1  0  0  0  0
 15 30  1  0  0  0  0
 17 31  1  0  0  0  0
 20 32  1  0  0  0  0
 21 33  1  0  0  0  0
 22 34  1  0  0  0  0
 23 35  1  0  0  0  0
M  END
$$$$
