C19H24O6
APtclcactv06281816423D 0   0.00000     0.00000
 
 49 53  0  0  0  0  0  0  0  0999 V2000
    2.9482    1.6921   -0.5481 C   0  0  0  0  0  0  0  0  0  0  0  0
    2.3988    0.3320   -0.1131 C   0  0  0  0  0  0  0  0  0  0  0  0
    3.4616   -0.7882   -0.1269 C   0  0  0  0  0  0  0  0  0  0  0  0
    2.9181   -2.0521    0.5374 C   0  0  0  0  0  0  0  0  0  0  0  0
    1.5557   -2.4521   -0.0535 C   0  0  0  0  0  0  0  0  0  0  0  0
    0.6591   -1.2330    0.0031 C   0  0  0  0  0  0  0  0  0  0  0  0
    1.2540   -0.1863   -1.0143 C   0  0  0  0  0  0  0  0  0  0  0  0
    0.1137    0.8385   -1.1657 C   0  0  0  0  0  0  0  0  0  0  0  0
   -1.1578    0.1073   -0.7543 C   0  0  0  0  0  0  0  0  0  0  0  0
   -0.7581   -1.3533   -0.4832 C   0  0  0  0  0  0  0  0  0  0  0  0
   -1.7427   -2.1691    0.2637 C   0  0  0  0  0  0  0  0  0  0  0  0
   -2.7893   -1.4492    1.0836 C   0  0  0  0  0  0  0  0  0  0  0  0
   -3.0984   -0.0430    0.5779 C   0  0  0  0  0  0  0  0  0  0  0  0
   -1.7380    0.7098    0.5448 C   0  0  0  0  0  0  0  0  0  0  0  0
   -3.5561   -0.0719   -0.8685 C   0  0  0  0  0  0  0  0  0  0  0  0
   -4.7844   -0.2405   -1.2914 C   0  0  0  0  0  0  0  0  0  0  0  0
   -2.3199    0.1318   -1.7385 C   0  0  0  0  0  0  0  0  0  0  0  0
   -4.0407    0.6179    1.4249 O   0  0  0  0  0  0  0  0  0  0  0  0
    0.3514    2.0187   -0.2592 C   0  0  0  0  0  0  0  0  0  0  0  0
    0.2099    1.9014    0.9350 O   0  0  0  0  0  0  0  0  0  0  0  0
    0.7202    3.2002   -0.7785 O   0  0  0  0  0  0  0  0  0  0  0  0
    0.7675   -0.5681    1.2890 O   0  0  0  0  0  0  0  0  0  0  0  0
    1.7847    0.3463    1.2794 C   0  0  0  0  0  0  0  0  0  0  0  0
    2.1216    1.0343    2.2138 O   0  0  0  0  0  0  0  0  0  0  0  0
    3.8185   -1.0825   -1.4789 O   0  0  0  0  0  0  0  0  0  0  0  0
    2.9107    1.7684   -1.6348 H   0  0  0  0  0  0  0  0  0  0  0  0
    2.3449    2.4856   -0.1071 H   0  0  0  0  0  0  0  0  0  0  0  0
    3.9805    1.7912   -0.2123 H   0  0  0  0  0  0  0  0  0  0  0  0
    4.3466   -0.4507    0.4126 H   0  0  0  0  0  0  0  0  0  0  0  0
    3.6258   -2.8672    0.3863 H   0  0  0  0  0  0  0  0  0  0  0  0
    2.8047   -1.8729    1.6065 H   0  0  0  0  0  0  0  0  0  0  0  0
    1.6805   -2.7721   -1.0880 H   0  0  0  0  0  0  0  0  0  0  0  0
    1.1199   -3.2597    0.5346 H   0  0  0  0  0  0  0  0  0  0  0  0
    1.5965   -0.6184   -1.9545 H   0  0  0  0  0  0  0  0  0  0  0  0
    0.0395    1.1682   -2.2020 H   0  0  0  0  0  0  0  0  0  0  0  0
   -0.6890   -1.8167   -1.4674 H   0  0  0  0  0  0  0  0  0  0  0  0
   -2.2625   -2.8021   -0.4555 H   0  0  0  0  0  0  0  0  0  0  0  0
   -1.1885   -2.8247    0.9354 H   0  0  0  0  0  0  0  0  0  0  0  0
   -3.7082   -2.0353    1.0686 H   0  0  0  0  0  0  0  0  0  0  0  0
   -2.4393   -1.3805    2.1136 H   0  0  0  0  0  0  0  0  0  0  0  0
   -1.1230    0.4607    1.4096 H   0  0  0  0  0  0  0  0  0  0  0  0
   -1.8800    1.7869    0.4565 H   0  0  0  0  0  0  0  0  0  0  0  0
   -5.5863   -0.3765   -0.5808 H   0  0  0  0  0  0  0  0  0  0  0  0
   -4.9952   -0.2435   -2.3506 H   0  0  0  0  0  0  0  0  0  0  0  0
   -2.3672    1.0940   -2.2483 H   0  0  0  0  0  0  0  0  0  0  0  0
   -2.2246   -0.6789   -2.4608 H   0  0  0  0  0  0  0  0  0  0  0  0
   -4.8882    0.1590    1.5037 H   0  0  0  0  0  0  0  0  0  0  0  0
    0.9299    3.9080   -0.1539 H   0  0  0  0  0  0  0  0  0  0  0  0
    4.4837   -1.7788   -1.5674 H   0  0  0  0  0  0  0  0  0  0  0  0
  1  2  1  0  0  0  0
  2  3  1  0  0  0  0
  3  4  1  0  0  0  0
  4  5  1  0  0  0  0
  5  6  1  0  0  0  0
  6  7  1  0  0  0  0
  2  7  1  0  0  0  0
  7  8  1  0  0  0  0
  8  9  1  0  0  0  0
  9 10  1  0  0  0  0
  6 10  1  0  0  0  0
 10 11  1  0  0  0  0
 11 12  1  0  0  0  0
 12 13  1  0  0  0  0
 13 14  1  0  0  0  0
  9 14  1  0  0  0  0
 13 15  1  0  0  0  0
 15 16  2  0  0  0  0
 15 17  1  0  0  0  0
  9 17  1  0  0  0  0
 13 18  1  0  0  0  0
  8 19  1  0  0  0  0
 19 20  2  0  0  0  0
 19 21  1  0  0  0  0
  6 22  1  0  0  0  0
 22 23  1  0  0  0  0
  2 23  1  0  0  0  0
 23 24  2  0  0  0  0
  3 25  1  0  0  0  0
  1 26  1  0  0  0  0
  1 27  1  0  0  0  0
  1 28  1  0  0  0  0
  3 29  1  0  0  0  0
  4 30  1  0  0  0  0
  4 31  1  0  0  0  0
  5 32  1  0  0  0  0
  5 33  1  0  0  0  0
  7 34  1  0  0  0  0
  8 35  1  0  0  0  0
 10 36  1  0  0  0  0
 11 37  1  0  0  0  0
 11 38  1  0  0  0  0
 12 39  1  0  0  0  0
 12 40  1  0  0  0  0
 14 41  1  0  0  0  0
 14 42  1  0  0  0  0
 16 43  1  0  0  0  0
 16 44  1  0  0  0  0
 17 45  1  0  0  0  0
 17 46  1  0  0  0  0
 18 47  1  0  0  0  0
 21 48  1  0  0  0  0
 25 49  1  0  0  0  0
M  END
$$$$
