C40H56O2
APtclcactv06281816433D 0   0.00000     0.00000
 
 98 99  0  0  0  0  0  0  0  0999 V2000
  -10.5590   -0.8755   -2.0256 C   0  0  0  0  0  0  0  0  0  0  0  0
  -11.6486   -0.6468   -1.0100 C   0  0  0  0  0  0  0  0  0  0  0  0
  -11.4151    0.2046   -0.0252 C   0  0  0  0  0  0  0  0  0  0  0  0
  -12.4132    0.5316    1.0472 C   0  0  0  0  0  0  0  0  0  0  0  0
  -13.5116   -0.5327    1.0865 C   0  0  0  0  0  0  0  0  0  0  0  0
  -14.0392   -0.7414   -0.3382 C   0  0  0  0  0  0  0  0  0  0  0  0
  -12.9400   -1.3936   -1.1765 C   0  0  0  0  0  0  0  0  0  0  0  0
  -15.1876   -1.5913   -0.3051 O   0  0  0  0  0  0  0  0  0  0  0  0
  -11.7044    0.5793    2.4023 C   0  0  0  0  0  0  0  0  0  0  0  0
  -13.0399    1.8969    0.7575 C   0  0  0  0  0  0  0  0  0  0  0  0
  -10.1507    0.8439    0.0205 C   0  0  0  0  0  0  0  0  0  0  0  0
   -9.0142    0.0998    0.0675 C   0  0  0  0  0  0  0  0  0  0  0  0
   -7.7591    0.7287   -0.0029 C   0  0  0  0  0  0  0  0  0  0  0  0
   -6.6176   -0.0187    0.0444 C   0  0  0  0  0  0  0  0  0  0  0  0
   -5.3662    0.6083   -0.0258 C   0  0  0  0  0  0  0  0  0  0  0  0
   -4.2145   -0.1458    0.0219 C   0  0  0  0  0  0  0  0  0  0  0  0
   -2.9648    0.4804   -0.0482 C   0  0  0  0  0  0  0  0  0  0  0  0
   -1.8121   -0.2743   -0.0005 C   0  0  0  0  0  0  0  0  0  0  0  0
   -0.5631    0.3514   -0.0705 C   0  0  0  0  0  0  0  0  0  0  0  0
    0.5899   -0.4034   -0.0228 C   0  0  0  0  0  0  0  0  0  0  0  0
    1.8390    0.2223   -0.0928 C   0  0  0  0  0  0  0  0  0  0  0  0
    2.9917   -0.5324   -0.0451 C   0  0  0  0  0  0  0  0  0  0  0  0
    2.9061   -2.0315    0.0824 C   0  0  0  0  0  0  0  0  0  0  0  0
    4.2414    0.0937   -0.1152 C   0  0  0  0  0  0  0  0  0  0  0  0
    5.3931   -0.6603   -0.0675 C   0  0  0  0  0  0  0  0  0  0  0  0
    6.6445   -0.0333   -0.1377 C   0  0  0  0  0  0  0  0  0  0  0  0
    7.7860   -0.7807   -0.0905 C   0  0  0  0  0  0  0  0  0  0  0  0
    7.7004   -2.2798    0.0371 C   0  0  0  0  0  0  0  0  0  0  0  0
    9.0411   -0.1518   -0.1608 C   0  0  0  0  0  0  0  0  0  0  0  0
   10.1776   -0.8959   -0.1138 C   0  0  0  0  0  0  0  0  0  0  0  0
   11.4433   -0.2578   -0.1207 C   0  0  0  0  0  0  0  0  0  0  0  0
   11.7269    0.5552   -1.1246 C   0  0  0  0  0  0  0  0  0  0  0  0
   13.0304    1.2868   -1.2612 C   0  0  0  0  0  0  0  0  0  0  0  0
   13.7684    1.3023    0.0790 C   0  0  0  0  0  0  0  0  0  0  0  0
   13.8086   -0.1283    0.6299 C   0  0  0  0  0  0  0  0  0  0  0  0
   12.3840   -0.5381    1.0150 C   0  0  0  0  0  0  0  0  0  0  0  0
   11.9470    0.2484    2.2525 C   0  0  0  0  0  0  0  0  0  0  0  0
   12.3548   -2.0346    1.3321 C   0  0  0  0  0  0  0  0  0  0  0  0
   15.1014    1.7805   -0.1125 O   0  0  0  0  0  0  0  0  0  0  0  0
   10.6825    0.7581   -2.1920 C   0  0  0  0  0  0  0  0  0  0  0  0
   -2.8792    1.9795   -0.1758 C   0  0  0  0  0  0  0  0  0  0  0  0
   -7.6735    2.2278   -0.1304 C   0  0  0  0  0  0  0  0  0  0  0  0
   -9.8751   -1.6408   -1.6587 H   0  0  0  0  0  0  0  0  0  0  0  0
  -11.0018   -1.2044   -2.9657 H   0  0  0  0  0  0  0  0  0  0  0  0
  -10.0120    0.0534   -2.1869 H   0  0  0  0  0  0  0  0  0  0  0  0
  -13.1012   -1.4686    1.4657 H   0  0  0  0  0  0  0  0  0  0  0  0
  -14.3234   -0.1975    1.7321 H   0  0  0  0  0  0  0  0  0  0  0  0
  -14.3052    0.2213   -0.7748 H   0  0  0  0  0  0  0  0  0  0  0  0
  -13.2338   -1.3866   -2.2261 H   0  0  0  0  0  0  0  0  0  0  0  0
  -12.7995   -2.4239   -0.8495 H   0  0  0  0  0  0  0  0  0  0  0  0
  -15.5732   -1.7655   -1.1747 H   0  0  0  0  0  0  0  0  0  0  0  0
  -10.9931    1.4051    2.4115 H   0  0  0  0  0  0  0  0  0  0  0  0
  -12.4408    0.7253    3.1926 H   0  0  0  0  0  0  0  0  0  0  0  0
  -11.1744   -0.3586    2.5684 H   0  0  0  0  0  0  0  0  0  0  0  0
  -13.5409    1.8688   -0.2102 H   0  0  0  0  0  0  0  0  0  0  0  0
  -13.7651    2.1363    1.5352 H   0  0  0  0  0  0  0  0  0  0  0  0
  -12.2603    2.6585    0.7409 H   0  0  0  0  0  0  0  0  0  0  0  0
  -10.0905    1.9222    0.0179 H   0  0  0  0  0  0  0  0  0  0  0  0
   -9.0756   -0.9745    0.1589 H   0  0  0  0  0  0  0  0  0  0  0  0
   -6.6789   -1.0931    0.1358 H   0  0  0  0  0  0  0  0  0  0  0  0
   -5.3048    1.6826   -0.1172 H   0  0  0  0  0  0  0  0  0  0  0  0
   -4.2759   -1.2201    0.1133 H   0  0  0  0  0  0  0  0  0  0  0  0
   -1.8734   -1.3487    0.0909 H   0  0  0  0  0  0  0  0  0  0  0  0
   -0.5017    1.4258   -0.1619 H   0  0  0  0  0  0  0  0  0  0  0  0
    0.5286   -1.4778    0.0686 H   0  0  0  0  0  0  0  0  0  0  0  0
    1.9003    1.2967   -0.1843 H   0  0  0  0  0  0  0  0  0  0  0  0
    2.8713   -2.4793   -0.9107 H   0  0  0  0  0  0  0  0  0  0  0  0
    3.7810   -2.4012    0.6172 H   0  0  0  0  0  0  0  0  0  0  0  0
    2.0041   -2.2984    0.6331 H   0  0  0  0  0  0  0  0  0  0  0  0
    4.3028    1.1681   -0.2066 H   0  0  0  0  0  0  0  0  0  0  0  0
    5.3317   -1.7346    0.0239 H   0  0  0  0  0  0  0  0  0  0  0  0
    6.7058    1.0410   -0.2291 H   0  0  0  0  0  0  0  0  0  0  0  0
    7.6656   -2.7276   -0.9561 H   0  0  0  0  0  0  0  0  0  0  0  0
    8.5753   -2.6495    0.5719 H   0  0  0  0  0  0  0  0  0  0  0  0
    6.7983   -2.5467    0.5878 H   0  0  0  0  0  0  0  0  0  0  0  0
    9.1025    0.9225   -0.2523 H   0  0  0  0  0  0  0  0  0  0  0  0
   10.1163   -1.9733   -0.0712 H   0  0  0  0  0  0  0  0  0  0  0  0
   13.6482    0.7881   -2.0081 H   0  0  0  0  0  0  0  0  0  0  0  0
   12.8382    2.3113   -1.5797 H   0  0  0  0  0  0  0  0  0  0  0  0
   13.2413    1.9498    0.7798 H   0  0  0  0  0  0  0  0  0  0  0  0
   14.1939   -0.8040   -0.1337 H   0  0  0  0  0  0  0  0  0  0  0  0
   14.4494   -0.1636    1.5109 H   0  0  0  0  0  0  0  0  0  0  0  0
   11.9722    1.3156    2.0324 H   0  0  0  0  0  0  0  0  0  0  0  0
   10.9332   -0.0419    2.5282 H   0  0  0  0  0  0  0  0  0  0  0  0
   12.6243    0.0317    3.0786 H   0  0  0  0  0  0  0  0  0  0  0  0
   12.9785   -2.2336    2.2036 H   0  0  0  0  0  0  0  0  0  0  0  0
   11.3300   -2.3418    1.5409 H   0  0  0  0  0  0  0  0  0  0  0  0
   12.7350   -2.5945    0.4777 H   0  0  0  0  0  0  0  0  0  0  0  0
   15.1498    2.6762   -0.4737 H   0  0  0  0  0  0  0  0  0  0  0  0
   10.0437    1.5984   -1.9201 H   0  0  0  0  0  0  0  0  0  0  0  0
   11.1713    0.9662   -3.1437 H   0  0  0  0  0  0  0  0  0  0  0  0
   10.0771   -0.1437   -2.2840 H   0  0  0  0  0  0  0  0  0  0  0  0
   -2.8444    2.4273    0.8174 H   0  0  0  0  0  0  0  0  0  0  0  0
   -1.9772    2.2464   -0.7264 H   0  0  0  0  0  0  0  0  0  0  0  0
   -3.7541    2.3492   -0.7105 H   0  0  0  0  0  0  0  0  0  0  0  0
   -7.6387    2.6756    0.8627 H   0  0  0  0  0  0  0  0  0  0  0  0
   -6.7714    2.4947   -0.6811 H   0  0  0  0  0  0  0  0  0  0  0  0
   -8.5484    2.5975   -0.6652 H   0  0  0  0  0  0  0  0  0  0  0  0
  1  2  1  0  0  0  0
  2  3  2  0  0  0  0
  3  4  1  0  0  0  0
  4  5  1  0  0  0  0
  5  6  1  0  0  0  0
  6  7  1  0  0  0  0
  2  7  1  0  0  0  0
  6  8  1  0  0  0  0
  4  9  1  0  0  0  0
  4 10  1  0  0  0  0
  3 11  1  0  0  0  0
 11 12  2  0  0  0  0
 12 13  1  0  0  0  0
 13 14  2  0  0  0  0
 14 15  1  0  0  0  0
 15 16  2  0  0  0  0
 16 17  1  0  0  0  0
 17 18  2  0  0  0  0
 18 19  1  0  0  0  0
 19 20  2  0  0  0  0
 20 21  1  0  0  0  0
 21 22  2  0  0  0  0
 22 23  1  0  0  0  0
 22 24  1  0  0  0  0
 24 25  2  0  0  0  0
 25 26  1  0  0  0  0
 26 27  2  0  0  0  0
 27 28  1  0  0  0  0
 27 29  1  0  0  0  0
 29 30  2  0  0  0  0
 30 31  1  0  0  0  0
 31 32  2  0  0  0  0
 32 33  1  0  0  0  0
 33 34  1  0  0  0  0
 34 35  1  0  0  0  0
 35 36  1  0  0  0  0
 31 36  1  0  0  0  0
 36 37  1  0  0  0  0
 36 38  1  0  0  0  0
 34 39  1  0  0  0  0
 32 40  1  0  0  0  0
 17 41  1  0  0  0  0
 13 42  1  0  0  0  0
  1 43  1  0  0  0  0
  1 44  1  0  0  0  0
  1 45  1  0  0  0  0
  5 46  1  0  0  0  0
  5 47  1  0  0  0  0
  6 48  1  0  0  0  0
  7 49  1  0  0  0  0
  7 50  1  0  0  0  0
  8 51  1  0  0  0  0
  9 52  1  0  0  0  0
  9 53  1  0  0  0  0
  9 54  1  0  0  0  0
 10 55  1  0  0  0  0
 10 56  1  0  0  0  0
 10 57  1  0  0  0  0
 11 58  1  0  0  0  0
 12 59  1  0  0  0  0
 14 60  1  0  0  0  0
 15 61  1  0  0  0  0
 16 62  1  0  0  0  0
 18 63  1  0  0  0  0
 19 64  1  0  0  0  0
 20 65  1  0  0  0  0
 21 66  1  0  0  0  0
 23 67  1  0  0  0  0
 23 68  1  0  0  0  0
 23 69  1  0  0  0  0
 24 70  1  0  0  0  0
 25 71  1  0  0  0  0
 26 72  1  0  0  0  0
 28 73  1  0  0  0  0
 28 74  1  0  0  0  0
 28 75  1  0  0  0  0
 29 76  1  0  0  0  0
 30 77  1  0  0  0  0
 33 78  1  0  0  0  0
 33 79  1  0  0  0  0
 34 80  1  0  0  0  0
 35 81  1  0  0  0  0
 35 82  1  0  0  0  0
 37 83  1  0  0  0  0
 37 84  1  0  0  0  0
 37 85  1  0  0  0  0
 38 86  1  0  0  0  0
 38 87  1  0  0  0  0
 38 88  1  0  0  0  0
 39 89  1  0  0  0  0
 40 90  1  0  0  0  0
 40 91  1  0  0  0  0
 40 92  1  0  0  0  0
 41 93  1  0  0  0  0
 41 94  1  0  0  0  0
 41 95  1  0  0  0  0
 42 96  1  0  0  0  0
 42 97  1  0  0  0  0
 42 98  1  0  0  0  0
M  END
$$$$
