C18H28O3
APtclcactv06281816423D 0   0.00000     0.00000
 
 49 49  0  0  0  0  0  0  0  0999 V2000
    8.5720   -0.4763   -0.3320 C   0  0  0  0  0  0  0  0  0  0  0  0
    7.6176   -1.6481   -0.0938 C   0  0  0  0  0  0  0  0  0  0  0  0
    6.3830   -1.1543    0.6155 C   0  0  0  0  0  0  0  0  0  0  0  0
    5.1988   -1.3799    0.1030 C   0  0  0  0  0  0  0  0  0  0  0  0
    3.9642   -0.8861    0.8123 C   0  0  0  0  0  0  0  0  0  0  0  0
    3.1384   -0.0222   -0.1430 C   0  0  0  0  0  0  0  0  0  0  0  0
    1.8111    0.3925    0.5163 C   0  0  0  0  0  0  0  0  0  0  0  0
    1.8437    1.8990    0.5781 C   0  0  0  0  0  0  0  0  0  0  0  0
    2.9723    2.3610    0.0594 C   0  0  0  0  0  0  0  0  0  0  0  0
    3.8424    1.2902   -0.4139 C   0  0  0  0  0  0  0  0  0  0  0  0
    4.9319    1.4265   -0.9302 O   0  0  0  0  0  0  0  0  0  0  0  0
    0.6288   -0.0767   -0.3338 C   0  0  0  0  0  0  0  0  0  0  0  0
   -0.6794    0.2335    0.3965 C   0  0  0  0  0  0  0  0  0  0  0  0
   -1.8618   -0.2357   -0.4536 C   0  0  0  0  0  0  0  0  0  0  0  0
   -3.1699    0.0745    0.2767 C   0  0  0  0  0  0  0  0  0  0  0  0
   -4.3523   -0.3947   -0.5734 C   0  0  0  0  0  0  0  0  0  0  0  0
   -5.6605   -0.0846    0.1569 C   0  0  0  0  0  0  0  0  0  0  0  0
   -6.8428   -0.5538   -0.6932 C   0  0  0  0  0  0  0  0  0  0  0  0
   -8.1313   -0.2483    0.0262 C   0  0  0  0  0  0  0  0  0  0  0  0
   -8.1065    0.2896    1.1079 O   0  0  0  0  0  0  0  0  0  0  0  0
   -9.3066   -0.5736   -0.5347 O   0  0  0  0  0  0  0  0  0  0  0  0
    9.4650   -0.8335   -0.8450 H   0  0  0  0  0  0  0  0  0  0  0  0
    8.0771    0.2764   -0.9456 H   0  0  0  0  0  0  0  0  0  0  0  0
    8.8540   -0.0370    0.6249 H   0  0  0  0  0  0  0  0  0  0  0  0
    7.3356   -2.0874   -1.0506 H   0  0  0  0  0  0  0  0  0  0  0  0
    8.1125   -2.4009    0.5198 H   0  0  0  0  0  0  0  0  0  0  0  0
    6.4747   -0.6143    1.5463 H   0  0  0  0  0  0  0  0  0  0  0  0
    5.1071   -1.9199   -0.8278 H   0  0  0  0  0  0  0  0  0  0  0  0
    3.3679   -1.7378    1.1395 H   0  0  0  0  0  0  0  0  0  0  0  0
    4.2559   -0.2925    1.6787 H   0  0  0  0  0  0  0  0  0  0  0  0
    2.9513   -0.5568   -1.0744 H   0  0  0  0  0  0  0  0  0  0  0  0
    1.7429   -0.0246    1.5210 H   0  0  0  0  0  0  0  0  0  0  0  0
    1.0569    2.5153    0.9874 H   0  0  0  0  0  0  0  0  0  0  0  0
    3.2196    3.4103   -0.0055 H   0  0  0  0  0  0  0  0  0  0  0  0
    0.6417    0.4424   -1.2922 H   0  0  0  0  0  0  0  0  0  0  0  0
    0.7054   -1.1510   -0.5014 H   0  0  0  0  0  0  0  0  0  0  0  0
   -0.6923   -0.2856    1.3549 H   0  0  0  0  0  0  0  0  0  0  0  0
   -0.7561    1.3078    0.5641 H   0  0  0  0  0  0  0  0  0  0  0  0
   -1.8488    0.2833   -1.4120 H   0  0  0  0  0  0  0  0  0  0  0  0
   -1.7851   -1.3100   -0.6212 H   0  0  0  0  0  0  0  0  0  0  0  0
   -3.1829   -0.4446    1.2351 H   0  0  0  0  0  0  0  0  0  0  0  0
   -3.2466    1.1488    0.4443 H   0  0  0  0  0  0  0  0  0  0  0  0
   -4.3394    0.1243   -1.5318 H   0  0  0  0  0  0  0  0  0  0  0  0
   -4.2757   -1.4691   -0.7410 H   0  0  0  0  0  0  0  0  0  0  0  0
   -5.6734   -0.6036    1.1153 H   0  0  0  0  0  0  0  0  0  0  0  0
   -5.7371    0.9897    0.3245 H   0  0  0  0  0  0  0  0  0  0  0  0
   -6.8299   -0.0347   -1.6516 H   0  0  0  0  0  0  0  0  0  0  0  0
   -6.7662   -1.6281   -0.8608 H   0  0  0  0  0  0  0  0  0  0  0  0
  -10.1061   -0.3578   -0.0354 H   0  0  0  0  0  0  0  0  0  0  0  0
  1  2  1  0  0  0  0
  2  3  1  0  0  0  0
  3  4  2  0  0  0  0
  4  5  1  0  0  0  0
  5  6  1  0  0  0  0
  6  7  1  0  0  0  0
  7  8  1  0  0  0  0
  8  9  2  0  0  0  0
  9 10  1  0  0  0  0
  6 10  1  0  0  0  0
 10 11  2  0  0  0  0
  7 12  1  0  0  0  0
 12 13  1  0  0  0  0
 13 14  1  0  0  0  0
 14 15  1  0  0  0  0
 15 16  1  0  0  0  0
 16 17  1  0  0  0  0
 17 18  1  0  0  0  0
 18 19  1  0  0  0  0
 19 20  2  0  0  0  0
 19 21  1  0  0  0  0
  1 22  1  0  0  0  0
  1 23  1  0  0  0  0
  1 24  1  0  0  0  0
  2 25  1  0  0  0  0
  2 26  1  0  0  0  0
  3 27  1  0  0  0  0
  4 28  1  0  0  0  0
  5 29  1  0  0  0  0
  5 30  1  0  0  0  0
  6 31  1  0  0  0  0
  7 32  1  0  0  0  0
  8 33  1  0  0  0  0
  9 34  1  0  0  0  0
 12 35  1  0  0  0  0
 12 36  1  0  0  0  0
 13 37  1  0  0  0  0
 13 38  1  0  0  0  0
 14 39  1  0  0  0  0
 14 40  1  0  0  0  0
 15 41  1  0  0  0  0
 15 42  1  0  0  0  0
 16 43  1  0  0  0  0
 16 44  1  0  0  0  0
 17 45  1  0  0  0  0
 17 46  1  0  0  0  0
 18 47  1  0  0  0  0
 18 48  1  0  0  0  0
 21 49  1  0  0  0  0
M  END
$$$$
