C28H44O
APtclcactv06281816433D 0   0.00000     0.00000
 
 73 75  0  0  0  0  0  0  0  0999 V2000
    5.3912    3.7862    0.8136 C   0  0  0  0  0  0  0  0  0  0  0  0
    5.3673    2.3845    0.2008 C   0  0  0  0  0  0  0  0  0  0  0  0
    6.3466    1.4819    0.9540 C   0  0  0  0  0  0  0  0  0  0  0  0
    3.9551    1.8055    0.3071 C   0  0  0  0  0  0  0  0  0  0  0  0
    2.9758    2.7082   -0.4460 C   0  0  0  0  0  0  0  0  0  0  0  0
    3.9315    0.4249   -0.2965 C   0  0  0  0  0  0  0  0  0  0  0  0
    3.5933   -0.6055    0.4383 C   0  0  0  0  0  0  0  0  0  0  0  0
    3.5697   -1.9862   -0.1652 C   0  0  0  0  0  0  0  0  0  0  0  0
    4.5490   -2.8888    0.5879 C   0  0  0  0  0  0  0  0  0  0  0  0
    2.1575   -2.5652   -0.0590 C   0  0  0  0  0  0  0  0  0  0  0  0
    1.6555   -2.4956    1.4070 C   0  0  0  0  0  0  0  0  0  0  0  0
    0.4499   -1.5136    1.4097 C   0  0  0  0  0  0  0  0  0  0  0  0
    0.7182   -0.6458    0.1780 C   0  0  0  0  0  0  0  0  0  0  0  0
    1.1771   -1.7157   -0.8528 C   0  0  0  0  0  0  0  0  0  0  0  0
    1.6860   -0.9852   -2.0736 C   0  0  0  0  0  0  0  0  0  0  0  0
    0.4806   -0.3030   -2.7419 C   0  0  0  0  0  0  0  0  0  0  0  0
   -0.2129    0.6758   -1.7963 C   0  0  0  0  0  0  0  0  0  0  0  0
   -0.4693    0.0273   -0.4434 C   0  0  0  0  0  0  0  0  0  0  0  0
   -1.6641    0.0556    0.1470 C   0  0  0  0  0  0  0  0  0  0  0  0
   -2.7886    0.7282   -0.5075 C   0  0  0  0  0  0  0  0  0  0  0  0
   -3.9978    0.7568    0.0900 C   0  0  0  0  0  0  0  0  0  0  0  0
   -5.1862    1.4423   -0.5542 C   0  0  0  0  0  0  0  0  0  0  0  0
   -6.3937    0.5040   -0.4605 C   0  0  0  0  0  0  0  0  0  0  0  0
   -6.6659    0.1544    1.0031 C   0  0  0  0  0  0  0  0  0  0  0  0
   -5.5066   -0.6763    1.5627 C   0  0  0  0  0  0  0  0  0  0  0  0
   -4.2291    0.1160    1.4014 C   0  0  0  0  0  0  0  0  0  0  0  0
   -3.3525    0.2386    2.3980 C   0  0  0  0  0  0  0  0  0  0  0  0
   -7.5412    1.1496   -1.0160 O   0  0  0  0  0  0  0  0  0  0  0  0
   -0.0238   -2.5738   -1.2557 C   0  0  0  0  0  0  0  0  0  0  0  0
    6.3973    4.1987    0.7379 H   0  0  0  0  0  0  0  0  0  0  0  0
    4.6936    4.4293    0.2771 H   0  0  0  0  0  0  0  0  0  0  0  0
    5.0999    3.7293    1.8624 H   0  0  0  0  0  0  0  0  0  0  0  0
    5.6587    2.4415   -0.8479 H   0  0  0  0  0  0  0  0  0  0  0  0
    6.0552    1.4249    2.0028 H   0  0  0  0  0  0  0  0  0  0  0  0
    6.3295    0.4833    0.5174 H   0  0  0  0  0  0  0  0  0  0  0  0
    7.3527    1.8944    0.8783 H   0  0  0  0  0  0  0  0  0  0  0  0
    3.6637    1.7486    1.3559 H   0  0  0  0  0  0  0  0  0  0  0  0
    1.9697    2.2957   -0.3703 H   0  0  0  0  0  0  0  0  0  0  0  0
    2.9929    3.7068   -0.0095 H   0  0  0  0  0  0  0  0  0  0  0  0
    3.2672    2.7651   -1.4948 H   0  0  0  0  0  0  0  0  0  0  0  0
    4.1934    0.2849   -1.3349 H   0  0  0  0  0  0  0  0  0  0  0  0
    3.3314   -0.4656    1.4767 H   0  0  0  0  0  0  0  0  0  0  0  0
    3.8611   -1.9292   -1.2140 H   0  0  0  0  0  0  0  0  0  0  0  0
    4.4624   -3.9095    0.2153 H   0  0  0  0  0  0  0  0  0  0  0  0
    5.5666   -2.5304    0.4324 H   0  0  0  0  0  0  0  0  0  0  0  0
    4.3156   -2.8696    1.6524 H   0  0  0  0  0  0  0  0  0  0  0  0
    2.1434   -3.5951   -0.4155 H   0  0  0  0  0  0  0  0  0  0  0  0
    1.3350   -3.4827    1.7402 H   0  0  0  0  0  0  0  0  0  0  0  0
    2.4463   -2.1193    2.0559 H   0  0  0  0  0  0  0  0  0  0  0  0
   -0.4899   -2.0554    1.3032 H   0  0  0  0  0  0  0  0  0  0  0  0
    0.4472   -0.9078    2.3158 H   0  0  0  0  0  0  0  0  0  0  0  0
    1.5156    0.0703    0.3767 H   0  0  0  0  0  0  0  0  0  0  0  0
    2.4184   -0.2344   -1.7769 H   0  0  0  0  0  0  0  0  0  0  0  0
    2.1409   -1.6937   -2.7658 H   0  0  0  0  0  0  0  0  0  0  0  0
    0.8227    0.2377   -3.6244 H   0  0  0  0  0  0  0  0  0  0  0  0
   -0.2340   -1.0664   -3.0496 H   0  0  0  0  0  0  0  0  0  0  0  0
    0.4201    1.5526   -1.6599 H   0  0  0  0  0  0  0  0  0  0  0  0
   -1.1630    0.9841   -2.2325 H   0  0  0  0  0  0  0  0  0  0  0  0
   -1.8029   -0.4175    1.1079 H   0  0  0  0  0  0  0  0  0  0  0  0
   -2.6498    1.2012   -1.4684 H   0  0  0  0  0  0  0  0  0  0  0  0
   -5.4025    2.3726   -0.0290 H   0  0  0  0  0  0  0  0  0  0  0  0
   -4.9656    1.6534   -1.6005 H   0  0  0  0  0  0  0  0  0  0  0  0
   -6.1872   -0.4091   -1.0187 H   0  0  0  0  0  0  0  0  0  0  0  0
   -6.7666    1.0724    1.5822 H   0  0  0  0  0  0  0  0  0  0  0  0
   -7.5898   -0.4198    1.0727 H   0  0  0  0  0  0  0  0  0  0  0  0
   -5.6807   -0.8853    2.6182 H   0  0  0  0  0  0  0  0  0  0  0  0
   -5.4261   -1.6128    1.0108 H   0  0  0  0  0  0  0  0  0  0  0  0
   -3.5467   -0.2344    3.3493 H   0  0  0  0  0  0  0  0  0  0  0  0
   -2.4479    0.8109    2.2541 H   0  0  0  0  0  0  0  0  0  0  0  0
   -7.4422    1.3961   -1.9458 H   0  0  0  0  0  0  0  0  0  0  0  0
   -0.8346   -1.9283   -1.5936 H   0  0  0  0  0  0  0  0  0  0  0  0
    0.2650   -3.2469   -2.0629 H   0  0  0  0  0  0  0  0  0  0  0  0
   -0.3575   -3.1574   -0.3978 H   0  0  0  0  0  0  0  0  0  0  0  0
  1  2  1  0  0  0  0
  2  3  1  0  0  0  0
  2  4  1  0  0  0  0
  4  5  1  0  0  0  0
  4  6  1  0  0  0  0
  6  7  2  0  0  0  0
  7  8  1  0  0  0  0
  8  9  1  0  0  0  0
  8 10  1  0  0  0  0
 10 11  1  0  0  0  0
 11 12  1  0  0  0  0
 12 13  1  0  0  0  0
 13 14  1  0  0  0  0
 10 14  1  0  0  0  0
 14 15  1  0  0  0  0
 15 16  1  0  0  0  0
 16 17  1  0  0  0  0
 17 18  1  0  0  0  0
 13 18  1  0  0  0  0
 18 19  2  0  0  0  0
 19 20  1  0  0  0  0
 20 21  2  0  0  0  0
 21 22  1  0  0  0  0
 22 23  1  0  0  0  0
 23 24  1  0  0  0  0
 24 25  1  0  0  0  0
 25 26  1  0  0  0  0
 21 26  1  0  0  0  0
 26 27  2  0  0  0  0
 23 28  1  0  0  0  0
 14 29  1  0  0  0  0
  1 30  1  0  0  0  0
  1 31  1  0  0  0  0
  1 32  1  0  0  0  0
  2 33  1  0  0  0  0
  3 34  1  0  0  0  0
  3 35  1  0  0  0  0
  3 36  1  0  0  0  0
  4 37  1  0  0  0  0
  5 38  1  0  0  0  0
  5 39  1  0  0  0  0
  5 40  1  0  0  0  0
  6 41  1  0  0  0  0
  7 42  1  0  0  0  0
  8 43  1  0  0  0  0
  9 44  1  0  0  0  0
  9 45  1  0  0  0  0
  9 46  1  0  0  0  0
 10 47  1  0  0  0  0
 11 48  1  0  0  0  0
 11 49  1  0  0  0  0
 12 50  1  0  0  0  0
 12 51  1  0  0  0  0
 13 52  1  0  0  0  0
 15 53  1  0  0  0  0
 15 54  1  0  0  0  0
 16 55  1  0  0  0  0
 16 56  1  0  0  0  0
 17 57  1  0  0  0  0
 17 58  1  0  0  0  0
 19 59  1  0  0  0  0
 20 60  1  0  0  0  0
 22 61  1  0  0  0  0
 22 62  1  0  0  0  0
 23 63  1  0  0  0  0
 24 64  1  0  0  0  0
 24 65  1  0  0  0  0
 25 66  1  0  0  0  0
 25 67  1  0  0  0  0
 27 68  1  0  0  0  0
 27 69  1  0  0  0  0
 28 70  1  0  0  0  0
 29 71  1  0  0  0  0
 29 72  1  0  0  0  0
 29 73  1  0  0  0  0
M  END
$$$$
