C9H6O4
APtclcactv06281816423D 0   0.00000     0.00000
 
 19 20  0  0  0  0  0  0  0  0999 V2000
   -0.8979   -1.9999    0.0040 C   0  0  0  0  0  0  0  0  0  0  0  0
   -2.1380   -1.4292   -0.0081 C   0  0  0  0  0  0  0  0  0  0  0  0
   -2.2779   -0.0440   -0.0224 C   0  0  0  0  0  0  0  0  0  0  0  0
   -1.1585    0.7776   -0.0241 C   0  0  0  0  0  0  0  0  0  0  0  0
    0.1116    0.2116   -0.0114 C   0  0  0  0  0  0  0  0  0  0  0  0
    0.2430   -1.1888    0.0025 C   0  0  0  0  0  0  0  0  0  0  0  0
    1.5849   -1.7752    0.0159 C   0  0  0  0  0  0  0  0  0  0  0  0
    2.6525   -0.9354    0.0141 C   0  0  0  0  0  0  0  0  0  0  0  0
    2.4475    0.4598   -0.0002 C   0  0  0  0  0  0  0  0  0  0  0  0
    3.4135    1.2016   -0.0016 O   0  0  0  0  0  0  0  0  0  0  0  0
    1.2151    0.9909   -0.0124 O   0  0  0  0  0  0  0  0  0  0  0  0
   -1.3037    2.1305   -0.0386 O   0  0  0  0  0  0  0  0  0  0  0  0
   -3.5193    0.5081   -0.0352 O   0  0  0  0  0  0  0  0  0  0  0  0
   -0.7972   -3.0751    0.0192 H   0  0  0  0  0  0  0  0  0  0  0  0
   -3.0170   -2.0568   -0.0069 H   0  0  0  0  0  0  0  0  0  0  0  0
    1.7220   -2.8464    0.0271 H   0  0  0  0  0  0  0  0  0  0  0  0
    3.6558   -1.3351    0.0241 H   0  0  0  0  0  0  0  0  0  0  0  0
   -1.3509    2.5305    0.8406 H   0  0  0  0  0  0  0  0  0  0  0  0
   -3.8839    0.6765    0.8444 H   0  0  0  0  0  0  0  0  0  0  0  0
  1  2  2  0  0  0  0
  2  3  1  0  0  0  0
  3  4  2  0  0  0  0
  4  5  1  0  0  0  0
  5  6  2  0  0  0  0
  1  6  1  0  0  0  0
  6  7  1  0  0  0  0
  7  8  2  0  0  0  0
  8  9  1  0  0  0  0
  9 10  2  0  0  0  0
  9 11  1  0  0  0  0
  5 11  1  0  0  0  0
  4 12  1  0  0  0  0
  3 13  1  0  0  0  0
  1 14  1  0  0  0  0
  2 15  1  0  0  0  0
  7 16  1  0  0  0  0
  8 17  1  0  0  0  0
 12 18  1  0  0  0  0
 13 19  1  0  0  0  0
M  END
$$$$
