C18H16O7
APtclcactv06291800233D 0   0.00000     0.00000
 
 41 43  0  0  0  0  0  0  0  0999 V2000
    6.2864   -2.1405   -0.8869 C   0  0  0  0  0  0  0  0  0  0  0  0
    5.8479   -1.1204    0.0126 O   0  0  0  0  0  0  0  0  0  0  0  0
    4.5210   -0.8274    0.0135 C   0  0  0  0  0  0  0  0  0  0  0  0
    4.0273    0.1576    0.8670 C   0  0  0  0  0  0  0  0  0  0  0  0
    2.6784    0.4570    0.8694 C   0  0  0  0  0  0  0  0  0  0  0  0
    1.8118   -0.2300    0.0145 C   0  0  0  0  0  0  0  0  0  0  0  0
    2.3141   -1.2165   -0.8387 C   0  0  0  0  0  0  0  0  0  0  0  0
    3.6618   -1.5058   -0.8396 C   0  0  0  0  0  0  0  0  0  0  0  0
    0.3713    0.0850    0.0131 C   0  0  0  0  0  0  0  0  0  0  0  0
   -0.0147    1.3906   -0.0396 C   0  0  0  0  0  0  0  0  0  0  0  0
   -1.3972    1.7103   -0.0422 C   0  0  0  0  0  0  0  0  0  0  0  0
   -1.7803    2.8683   -0.0890 O   0  0  0  0  0  0  0  0  0  0  0  0
   -2.3511    0.5911    0.0132 C   0  0  0  0  0  0  0  0  0  0  0  0
   -3.7341    0.8142    0.0142 C   0  0  0  0  0  0  0  0  0  0  0  0
   -4.5978   -0.2642    0.0667 C   0  0  0  0  0  0  0  0  0  0  0  0
   -4.0954   -1.5598    0.1185 C   0  0  0  0  0  0  0  0  0  0  0  0
   -2.7281   -1.7883    0.1183 C   0  0  0  0  0  0  0  0  0  0  0  0
   -1.8459   -0.7202    0.0652 C   0  0  0  0  0  0  0  0  0  0  0  0
   -0.5123   -0.9267    0.0583 O   0  0  0  0  0  0  0  0  0  0  0  0
   -4.9525   -2.6114    0.1703 O   0  0  0  0  0  0  0  0  0  0  0  0
   -6.3495   -2.3105    0.1681 C   0  0  0  0  0  0  0  0  0  0  0  0
   -4.2225    2.0794   -0.0355 O   0  0  0  0  0  0  0  0  0  0  0  0
    0.9182    2.3803   -0.0889 O   0  0  0  0  0  0  0  0  0  0  0  0
    0.9708    3.1634   -1.2830 C   0  0  0  0  0  0  0  0  0  0  0  0
    4.8731    0.8237    1.6978 O   0  0  0  0  0  0  0  0  0  0  0  0
    5.7800   -3.0762   -0.6499 H   0  0  0  0  0  0  0  0  0  0  0  0
    6.0502   -1.8486   -1.9102 H   0  0  0  0  0  0  0  0  0  0  0  0
    7.3634   -2.2748   -0.7868 H   0  0  0  0  0  0  0  0  0  0  0  0
    2.2945    1.2198    1.5306 H   0  0  0  0  0  0  0  0  0  0  0  0
    1.6470   -1.7493   -1.5002 H   0  0  0  0  0  0  0  0  0  0  0  0
    4.0487   -2.2681   -1.4996 H   0  0  0  0  0  0  0  0  0  0  0  0
   -5.6652   -0.0999    0.0678 H   0  0  0  0  0  0  0  0  0  0  0  0
   -2.3499   -2.7990    0.1592 H   0  0  0  0  0  0  0  0  0  0  0  0
   -6.5897   -1.6939    1.0342 H   0  0  0  0  0  0  0  0  0  0  0  0
   -6.6033   -1.7704   -0.7440 H   0  0  0  0  0  0  0  0  0  0  0  0
   -6.9209   -3.2376    0.2123 H   0  0  0  0  0  0  0  0  0  0  0  0
   -4.3707    2.4088   -0.9325 H   0  0  0  0  0  0  0  0  0  0  0  0
    1.0856    2.5052   -2.1443 H   0  0  0  0  0  0  0  0  0  0  0  0
    0.0485    3.7355   -1.3833 H   0  0  0  0  0  0  0  0  0  0  0  0
    1.8185    3.8467   -1.2324 H   0  0  0  0  0  0  0  0  0  0  0  0
    5.2522    1.6257    1.3127 H   0  0  0  0  0  0  0  0  0  0  0  0
  1  2  1  0  0  0  0
  2  3  1  0  0  0  0
  3  4  2  0  0  0  0
  4  5  1  0  0  0  0
  5  6  2  0  0  0  0
  6  7  1  0  0  0  0
  7  8  2  0  0  0  0
  3  8  1  0  0  0  0
  6  9  1  0  0  0  0
  9 10  2  0  0  0  0
 10 11  1  0  0  0  0
 11 12  2  0  0  0  0
 11 13  1  0  0  0  0
 13 14  2  0  0  0  0
 14 15  1  0  0  0  0
 15 16  2  0  0  0  0
 16 17  1  0  0  0  0
 17 18  2  0  0  0  0
 13 18  1  0  0  0  0
 18 19  1  0  0  0  0
  9 19  1  0  0  0  0
 16 20  1  0  0  0  0
 20 21  1  0  0  0  0
 14 22  1  0  0  0  0
 10 23  1  0  0  0  0
 23 24  1  0  0  0  0
  4 25  1  0  0  0  0
  1 26  1  0  0  0  0
  1 27  1  0  0  0  0
  1 28  1  0  0  0  0
  5 29  1  0  0  0  0
  7 30  1  0  0  0  0
  8 31  1  0  0  0  0
 15 32  1  0  0  0  0
 17 33  1  0  0  0  0
 21 34  1  0  0  0  0
 21 35  1  0  0  0  0
 21 36  1  0  0  0  0
 22 37  1  0  0  0  0
 24 38  1  0  0  0  0
 24 39  1  0  0  0  0
 24 40  1  0  0  0  0
 25 41  1  0  0  0  0
M  END
$$$$
