C15H10O6
APtclcactv06281816423D 0   0.00000     0.00000
 
 31 33  0  0  0  0  0  0  0  0999 V2000
   -2.7159   -1.4833   -0.0117 C   0  0  0  0  0  0  0  0  0  0  0  0
   -4.0896   -1.3733   -0.0190 C   0  0  0  0  0  0  0  0  0  0  0  0
   -4.6889   -0.1212   -0.0243 C   0  0  0  0  0  0  0  0  0  0  0  0
   -3.9041    1.0308   -0.0223 C   0  0  0  0  0  0  0  0  0  0  0  0
   -2.5263    0.9281   -0.0150 C   0  0  0  0  0  0  0  0  0  0  0  0
   -1.9228   -0.3326   -0.0097 C   0  0  0  0  0  0  0  0  0  0  0  0
   -0.4523   -0.4482   -0.0014 C   0  0  0  0  0  0  0  0  0  0  0  0
    0.1063   -1.6884    0.0037 C   0  0  0  0  0  0  0  0  0  0  0  0
    1.5152   -1.8191    0.0117 C   0  0  0  0  0  0  0  0  0  0  0  0
    2.0503   -2.9159    0.0160 O   0  0  0  0  0  0  0  0  0  0  0  0
    2.3108   -0.5797    0.0139 C   0  0  0  0  0  0  0  0  0  0  0  0
    3.7106   -0.6141    0.0211 C   0  0  0  0  0  0  0  0  0  0  0  0
    4.4210    0.5724    0.0226 C   0  0  0  0  0  0  0  0  0  0  0  0
    3.7484    1.7892    0.0170 C   0  0  0  0  0  0  0  0  0  0  0  0
    2.3625    1.8306    0.0099 C   0  0  0  0  0  0  0  0  0  0  0  0
    1.6333    0.6521    0.0083 C   0  0  0  0  0  0  0  0  0  0  0  0
    0.2836    0.6746   -0.0046 O   0  0  0  0  0  0  0  0  0  0  0  0
    4.4555    2.9480    0.0190 O   0  0  0  0  0  0  0  0  0  0  0  0
    4.3651   -1.8029    0.0271 O   0  0  0  0  0  0  0  0  0  0  0  0
   -4.4946    2.2558   -0.0280 O   0  0  0  0  0  0  0  0  0  0  0  0
   -6.0434   -0.0183   -0.0319 O   0  0  0  0  0  0  0  0  0  0  0  0
   -2.2523   -2.4587   -0.0031 H   0  0  0  0  0  0  0  0  0  0  0  0
   -4.7013   -2.2633   -0.0209 H   0  0  0  0  0  0  0  0  0  0  0  0
   -1.9171    1.8198   -0.0139 H   0  0  0  0  0  0  0  0  0  0  0  0
   -0.5213   -2.5674    0.0021 H   0  0  0  0  0  0  0  0  0  0  0  0
    5.5008    0.5537    0.0285 H   0  0  0  0  0  0  0  0  0  0  0  0
    1.8510    2.7817    0.0055 H   0  0  0  0  0  0  0  0  0  0  0  0
    4.6652    3.2824   -0.8638 H   0  0  0  0  0  0  0  0  0  0  0  0
    4.5593   -2.1494   -0.8546 H   0  0  0  0  0  0  0  0  0  0  0  0
   -4.6702    2.6119    0.8537 H   0  0  0  0  0  0  0  0  0  0  0  0
   -6.4405    0.0130    0.8492 H   0  0  0  0  0  0  0  0  0  0  0  0
  1  2  2  0  0  0  0
  2  3  1  0  0  0  0
  3  4  2  0  0  0  0
  4  5  1  0  0  0  0
  5  6  2  0  0  0  0
  1  6  1  0  0  0  0
  6  7  1  0  0  0  0
  7  8  2  0  0  0  0
  8  9  1  0  0  0  0
  9 10  2  0  0  0  0
  9 11  1  0  0  0  0
 11 12  2  0  0  0  0
 12 13  1  0  0  0  0
 13 14  2  0  0  0  0
 14 15  1  0  0  0  0
 15 16  2  0  0  0  0
 11 16  1  0  0  0  0
 16 17  1  0  0  0  0
  7 17  1  0  0  0  0
 14 18  1  0  0  0  0
 12 19  1  0  0  0  0
  4 20  1  0  0  0  0
  3 21  1  0  0  0  0
  1 22  1  0  0  0  0
  2 23  1  0  0  0  0
  5 24  1  0  0  0  0
  8 25  1  0  0  0  0
 13 26  1  0  0  0  0
 15 27  1  0  0  0  0
 18 28  1  0  0  0  0
 19 29  1  0  0  0  0
 20 30  1  0  0  0  0
 21 31  1  0  0  0  0
M  END
$$$$
