C18H16O8
APtclcactv06281816433D 0   0.00000     0.00000
 
 42 44  0  0  0  0  0  0  0  0999 V2000
    3.6276    3.8159   -0.3051 C   0  0  0  0  0  0  0  0  0  0  0  0
    4.2174    2.5154   -0.2516 O   0  0  0  0  0  0  0  0  0  0  0  0
    3.3695    1.4547   -0.2166 C   0  0  0  0  0  0  0  0  0  0  0  0
    3.8844    0.1607   -0.1639 C   0  0  0  0  0  0  0  0  0  0  0  0
    3.0271   -0.9271   -0.1279 C   0  0  0  0  0  0  0  0  0  0  0  0
    1.6431   -0.7147   -0.1451 C   0  0  0  0  0  0  0  0  0  0  0  0
    1.1277    0.5927   -0.1983 C   0  0  0  0  0  0  0  0  0  0  0  0
    2.0006    1.6695   -0.2280 C   0  0  0  0  0  0  0  0  0  0  0  0
   -0.2082    0.7877   -0.2153 O   0  0  0  0  0  0  0  0  0  0  0  0
   -1.0835   -0.2316   -0.1831 C   0  0  0  0  0  0  0  0  0  0  0  0
   -0.6870   -1.5342   -0.1304 C   0  0  0  0  0  0  0  0  0  0  0  0
    0.6977   -1.8421   -0.1087 C   0  0  0  0  0  0  0  0  0  0  0  0
    1.0898   -2.9972   -0.0618 O   0  0  0  0  0  0  0  0  0  0  0  0
   -1.6120   -2.5320   -0.0984 O   0  0  0  0  0  0  0  0  0  0  0  0
   -1.6814   -3.3142    1.0955 C   0  0  0  0  0  0  0  0  0  0  0  0
   -2.5265    0.0710   -0.2050 C   0  0  0  0  0  0  0  0  0  0  0  0
   -3.0507    1.0476    0.6466 C   0  0  0  0  0  0  0  0  0  0  0  0
   -4.4036    1.3274    0.6216 C   0  0  0  0  0  0  0  0  0  0  0  0
   -5.2422    0.6363   -0.2510 C   0  0  0  0  0  0  0  0  0  0  0  0
   -4.7222   -0.3338   -1.0964 C   0  0  0  0  0  0  0  0  0  0  0  0
   -3.3727   -0.6141   -1.0815 C   0  0  0  0  0  0  0  0  0  0  0  0
   -6.5724    0.9126   -0.2738 O   0  0  0  0  0  0  0  0  0  0  0  0
   -4.9169    2.2770    1.4488 O   0  0  0  0  0  0  0  0  0  0  0  0
    3.5253   -2.1898   -0.0769 O   0  0  0  0  0  0  0  0  0  0  0  0
    5.2318   -0.0348   -0.1481 O   0  0  0  0  0  0  0  0  0  0  0  0
    5.8659   -0.0791    1.1317 C   0  0  0  0  0  0  0  0  0  0  0  0
    4.4137    4.5707   -0.3289 H   0  0  0  0  0  0  0  0  0  0  0  0
    3.0154    3.9006   -1.2030 H   0  0  0  0  0  0  0  0  0  0  0  0
    3.0039    3.9685    0.5756 H   0  0  0  0  0  0  0  0  0  0  0  0
    1.6131    2.6768   -0.2686 H   0  0  0  0  0  0  0  0  0  0  0  0
   -2.0031   -2.6840    1.9246 H   0  0  0  0  0  0  0  0  0  0  0  0
   -2.3961   -4.1255    0.9572 H   0  0  0  0  0  0  0  0  0  0  0  0
   -0.6980   -3.7298    1.3152 H   0  0  0  0  0  0  0  0  0  0  0  0
   -2.3998    1.5819    1.3228 H   0  0  0  0  0  0  0  0  0  0  0  0
   -5.3757   -0.8672   -1.7708 H   0  0  0  0  0  0  0  0  0  0  0  0
   -2.9706   -1.3692   -1.7407 H   0  0  0  0  0  0  0  0  0  0  0  0
   -6.8192    1.6070   -0.8999 H   0  0  0  0  0  0  0  0  0  0  0  0
   -4.9268    3.1661    1.0687 H   0  0  0  0  0  0  0  0  0  0  0  0
    3.6640   -2.5219    0.8206 H   0  0  0  0  0  0  0  0  0  0  0  0
    5.4446   -0.8959    1.7178 H   0  0  0  0  0  0  0  0  0  0  0  0
    6.9361   -0.2397    1.0015 H   0  0  0  0  0  0  0  0  0  0  0  0
    5.7007    0.8644    1.6520 H   0  0  0  0  0  0  0  0  0  0  0  0
  1  2  1  0  0  0  0
  2  3  1  0  0  0  0
  3  4  2  0  0  0  0
  4  5  1  0  0  0  0
  5  6  2  0  0  0  0
  6  7  1  0  0  0  0
  7  8  2  0  0  0  0
  3  8  1  0  0  0  0
  7  9  1  0  0  0  0
  9 10  1  0  0  0  0
 10 11  2  0  0  0  0
 11 12  1  0  0  0  0
  6 12  1  0  0  0  0
 12 13  2  0  0  0  0
 11 14  1  0  0  0  0
 14 15  1  0  0  0  0
 10 16  1  0  0  0  0
 16 17  2  0  0  0  0
 17 18  1  0  0  0  0
 18 19  2  0  0  0  0
 19 20  1  0  0  0  0
 20 21  2  0  0  0  0
 16 21  1  0  0  0  0
 19 22  1  0  0  0  0
 18 23  1  0  0  0  0
  5 24  1  0  0  0  0
  4 25  1  0  0  0  0
 25 26  1  0  0  0  0
  1 27  1  0  0  0  0
  1 28  1  0  0  0  0
  1 29  1  0  0  0  0
  8 30  1  0  0  0  0
 15 31  1  0  0  0  0
 15 32  1  0  0  0  0
 15 33  1  0  0  0  0
 17 34  1  0  0  0  0
 20 35  1  0  0  0  0
 21 36  1  0  0  0  0
 22 37  1  0  0  0  0
 23 38  1  0  0  0  0
 24 39  1  0  0  0  0
 26 40  1  0  0  0  0
 26 41  1  0  0  0  0
 26 42  1  0  0  0  0
M  END
$$$$
