C16H12O5
APtclcactv06281802483D 0   0.00000     0.00000
 
 33 35  0  0  0  0  0  0  0  0999 V2000
    6.7689    0.3997   -0.0107 C   0  0  0  0  0  0  0  0  0  0  0  0
    5.9116   -0.7436   -0.0069 O   0  0  0  0  0  0  0  0  0  0  0  0
    4.5741   -0.5111   -0.0041 C   0  0  0  0  0  0  0  0  0  0  0  0
    3.6851   -1.5793   -0.0003 C   0  0  0  0  0  0  0  0  0  0  0  0
    2.3274   -1.3480    0.0030 C   0  0  0  0  0  0  0  0  0  0  0  0
    1.8441   -0.0365    0.0026 C   0  0  0  0  0  0  0  0  0  0  0  0
    2.7417    1.0349   -0.0012 C   0  0  0  0  0  0  0  0  0  0  0  0
    4.0978    0.7945    0.0008 C   0  0  0  0  0  0  0  0  0  0  0  0
    0.3908    0.2162    0.0056 C   0  0  0  0  0  0  0  0  0  0  0  0
   -0.0494    1.5032    0.0051 C   0  0  0  0  0  0  0  0  0  0  0  0
   -1.4399    1.7650    0.0080 C   0  0  0  0  0  0  0  0  0  0  0  0
   -1.8701    2.9071    0.0073 O   0  0  0  0  0  0  0  0  0  0  0  0
   -2.3479    0.6055    0.0114 C   0  0  0  0  0  0  0  0  0  0  0  0
   -3.7384    0.7707    0.0138 C   0  0  0  0  0  0  0  0  0  0  0  0
   -4.5566   -0.3442    0.0165 C   0  0  0  0  0  0  0  0  0  0  0  0
   -4.0008   -1.6186    0.0172 C   0  0  0  0  0  0  0  0  0  0  0  0
   -2.6248   -1.7894    0.0152 C   0  0  0  0  0  0  0  0  0  0  0  0
   -1.7886   -0.6842    0.0116 C   0  0  0  0  0  0  0  0  0  0  0  0
   -0.4468   -0.8330    0.0033 O   0  0  0  0  0  0  0  0  0  0  0  0
   -4.8131   -2.7062    0.0203 O   0  0  0  0  0  0  0  0  0  0  0  0
   -4.2789    2.0155    0.0140 O   0  0  0  0  0  0  0  0  0  0  0  0
    7.8090    0.0739   -0.0126 H   0  0  0  0  0  0  0  0  0  0  0  0
    6.5736    0.9972   -0.9011 H   0  0  0  0  0  0  0  0  0  0  0  0
    6.5778    1.0000    0.8788 H   0  0  0  0  0  0  0  0  0  0  0  0
    4.0595   -2.5924   -0.0004 H   0  0  0  0  0  0  0  0  0  0  0  0
    1.6373   -2.1787    0.0055 H   0  0  0  0  0  0  0  0  0  0  0  0
    2.3724    2.0498   -0.0019 H   0  0  0  0  0  0  0  0  0  0  0  0
    4.7921    1.6217   -0.0017 H   0  0  0  0  0  0  0  0  0  0  0  0
    0.6576    2.3196    0.0029 H   0  0  0  0  0  0  0  0  0  0  0  0
   -5.6300   -0.2246    0.0183 H   0  0  0  0  0  0  0  0  0  0  0  0
   -2.2044   -2.7842    0.0165 H   0  0  0  0  0  0  0  0  0  0  0  0
   -5.0502   -3.0226   -0.8622 H   0  0  0  0  0  0  0  0  0  0  0  0
   -4.4372    2.3757   -0.8694 H   0  0  0  0  0  0  0  0  0  0  0  0
  1  2  1  0  0  0  0
  2  3  1  0  0  0  0
  3  4  2  0  0  0  0
  4  5  1  0  0  0  0
  5  6  2  0  0  0  0
  6  7  1  0  0  0  0
  7  8  2  0  0  0  0
  3  8  1  0  0  0  0
  6  9  1  0  0  0  0
  9 10  2  0  0  0  0
 10 11  1  0  0  0  0
 11 12  2  0  0  0  0
 11 13  1  0  0  0  0
 13 14  2  0  0  0  0
 14 15  1  0  0  0  0
 15 16  2  0  0  0  0
 16 17  1  0  0  0  0
 17 18  2  0  0  0  0
 13 18  1  0  0  0  0
 18 19  1  0  0  0  0
  9 19  1  0  0  0  0
 16 20  1  0  0  0  0
 14 21  1  0  0  0  0
  1 22  1  0  0  0  0
  1 23  1  0  0  0  0
  1 24  1  0  0  0  0
  4 25  1  0  0  0  0
  5 26  1  0  0  0  0
  7 27  1  0  0  0  0
  8 28  1  0  0  0  0
 10 29  1  0  0  0  0
 15 30  1  0  0  0  0
 17 31  1  0  0  0  0
 20 32  1  0  0  0  0
 21 33  1  0  0  0  0
M  END
$$$$
