C21H20O11
APtclcactv06281816423D 0   0.00000     0.00000
 
 52 55  0  0  0  0  0  0  0  0999 V2000
    1.1616   -3.2024    2.0583 C   0  0  0  0  0  0  0  0  0  0  0  0
    2.1165   -2.0191    1.8883 C   0  0  0  0  0  0  0  0  0  0  0  0
    3.4207   -2.5033    1.2493 C   0  0  0  0  0  0  0  0  0  0  0  0
    3.1203   -3.0621   -0.1449 C   0  0  0  0  0  0  0  0  0  0  0  0
    2.4312   -1.9784   -0.9798 C   0  0  0  0  0  0  0  0  0  0  0  0
    1.1652   -1.5145   -0.2546 C   0  0  0  0  0  0  0  0  0  0  0  0
    1.5115   -1.0356    1.0465 O   0  0  0  0  0  0  0  0  0  0  0  0
    0.5468   -0.4640   -1.0002 O   0  0  0  0  0  0  0  0  0  0  0  0
   -0.7086   -0.0961   -0.6248 C   0  0  0  0  0  0  0  0  0  0  0  0
   -0.9349    1.1435   -0.1063 C   0  0  0  0  0  0  0  0  0  0  0  0
   -2.1563    1.5523    0.2780 O   0  0  0  0  0  0  0  0  0  0  0  0
   -3.2462    0.7630    0.1772 C   0  0  0  0  0  0  0  0  0  0  0  0
   -4.4912    1.2183    0.5830 C   0  0  0  0  0  0  0  0  0  0  0  0
   -5.6012    0.3952    0.4725 C   0  0  0  0  0  0  0  0  0  0  0  0
   -5.4818   -0.8907   -0.0432 C   0  0  0  0  0  0  0  0  0  0  0  0
   -4.2488   -1.3632   -0.4528 C   0  0  0  0  0  0  0  0  0  0  0  0
   -3.1228   -0.5367   -0.3452 C   0  0  0  0  0  0  0  0  0  0  0  0
   -1.7934   -0.9982   -0.7756 C   0  0  0  0  0  0  0  0  0  0  0  0
   -1.6295   -2.1152   -1.2399 O   0  0  0  0  0  0  0  0  0  0  0  0
   -4.1301   -2.6182   -0.9555 O   0  0  0  0  0  0  0  0  0  0  0  0
   -6.8167    0.8488    0.8722 O   0  0  0  0  0  0  0  0  0  0  0  0
    0.2024    2.0707    0.0390 C   0  0  0  0  0  0  0  0  0  0  0  0
    1.0824    2.2727   -1.0281 C   0  0  0  0  0  0  0  0  0  0  0  0
    2.1465    3.1426   -0.8864 C   0  0  0  0  0  0  0  0  0  0  0  0
    2.3408    3.8159    0.3183 C   0  0  0  0  0  0  0  0  0  0  0  0
    1.4672    3.6156    1.3780 C   0  0  0  0  0  0  0  0  0  0  0  0
    0.3999    2.7540    1.2421 C   0  0  0  0  0  0  0  0  0  0  0  0
    3.3884    4.6703    0.4558 O   0  0  0  0  0  0  0  0  0  0  0  0
    3.0047    3.3416   -1.9226 O   0  0  0  0  0  0  0  0  0  0  0  0
    3.3175   -0.8704   -1.1493 O   0  0  0  0  0  0  0  0  0  0  0  0
    4.3415   -3.4490   -0.7782 O   0  0  0  0  0  0  0  0  0  0  0  0
    4.3333   -1.4092    1.1387 O   0  0  0  0  0  0  0  0  0  0  0  0
    1.6437   -3.9753    2.6569 H   0  0  0  0  0  0  0  0  0  0  0  0
    0.2538   -2.8675    2.5602 H   0  0  0  0  0  0  0  0  0  0  0  0
    0.9070   -3.6074    1.0789 H   0  0  0  0  0  0  0  0  0  0  0  0
    2.3302   -1.5814    2.8635 H   0  0  0  0  0  0  0  0  0  0  0  0
    3.8612   -3.2851    1.8679 H   0  0  0  0  0  0  0  0  0  0  0  0
    2.4635   -3.9276   -0.0571 H   0  0  0  0  0  0  0  0  0  0  0  0
    2.1639   -2.3849   -1.9552 H   0  0  0  0  0  0  0  0  0  0  0  0
    0.4724   -2.3509   -0.1615 H   0  0  0  0  0  0  0  0  0  0  0  0
   -4.5963    2.2148    0.9858 H   0  0  0  0  0  0  0  0  0  0  0  0
   -6.3544   -1.5221   -0.1235 H   0  0  0  0  0  0  0  0  0  0  0  0
   -4.2465   -2.6705   -1.9141 H   0  0  0  0  0  0  0  0  0  0  0  0
   -7.3195    1.2925    0.1755 H   0  0  0  0  0  0  0  0  0  0  0  0
    0.9312    1.7498   -1.9609 H   0  0  0  0  0  0  0  0  0  0  0  0
    1.6215    4.1394    2.3097 H   0  0  0  0  0  0  0  0  0  0  0  0
   -0.2784    2.6000    2.0683 H   0  0  0  0  0  0  0  0  0  0  0  0
    3.1677    5.5950    0.2786 H   0  0  0  0  0  0  0  0  0  0  0  0
    2.7483    4.0635   -2.5125 H   0  0  0  0  0  0  0  0  0  0  0  0
    2.9455   -0.1452   -1.6697 H   0  0  0  0  0  0  0  0  0  0  0  0
    4.2258   -3.8126   -1.6667 H   0  0  0  0  0  0  0  0  0  0  0  0
    4.5645   -1.0028    1.9852 H   0  0  0  0  0  0  0  0  0  0  0  0
  1  2  1  0  0  0  0
  2  3  1  0  0  0  0
  3  4  1  0  0  0  0
  4  5  1  0  0  0  0
  5  6  1  0  0  0  0
  6  7  1  0  0  0  0
  2  7  1  0  0  0  0
  6  8  1  0  0  0  0
  8  9  1  0  0  0  0
  9 10  2  0  0  0  0
 10 11  1  0  0  0  0
 11 12  1  0  0  0  0
 12 13  2  0  0  0  0
 13 14  1  0  0  0  0
 14 15  2  0  0  0  0
 15 16  1  0  0  0  0
 16 17  2  0  0  0  0
 12 17  1  0  0  0  0
 17 18  1  0  0  0  0
  9 18  1  0  0  0  0
 18 19  2  0  0  0  0
 16 20  1  0  0  0  0
 14 21  1  0  0  0  0
 10 22  1  0  0  0  0
 22 23  2  0  0  0  0
 23 24  1  0  0  0  0
 24 25  2  0  0  0  0
 25 26  1  0  0  0  0
 26 27  2  0  0  0  0
 22 27  1  0  0  0  0
 25 28  1  0  0  0  0
 24 29  1  0  0  0  0
  5 30  1  0  0  0  0
  4 31  1  0  0  0  0
  3 32  1  0  0  0  0
  1 33  1  0  0  0  0
  1 34  1  0  0  0  0
  1 35  1  0  0  0  0
  2 36  1  0  0  0  0
  3 37  1  0  0  0  0
  4 38  1  0  0  0  0
  5 39  1  0  0  0  0
  6 40  1  0  0  0  0
 13 41  1  0  0  0  0
 15 42  1  0  0  0  0
 20 43  1  0  0  0  0
 21 44  1  0  0  0  0
 23 45  1  0  0  0  0
 26 46  1  0  0  0  0
 27 47  1  0  0  0  0
 28 48  1  0  0  0  0
 29 49  1  0  0  0  0
 30 50  1  0  0  0  0
 31 51  1  0  0  0  0
 32 52  1  0  0  0  0
M  END
$$$$
