C11H14O4
APtclcactv06281816423D 0   0.00000     0.00000
 
 29 29  0  0  0  0  0  0  0  0999 V2000
    2.6550    3.1273   -0.0557 C   0  0  0  0  0  0  0  0  0  0  0  0
    2.9228    1.7237   -0.0735 O   0  0  0  0  0  0  0  0  0  0  0  0
    1.8500    0.8897   -0.0181 C   0  0  0  0  0  0  0  0  0  0  0  0
    0.5707    1.4126    0.0517 C   0  0  0  0  0  0  0  0  0  0  0  0
   -0.5297    0.5563    0.1085 C   0  0  0  0  0  0  0  0  0  0  0  0
   -0.3370   -0.8257    0.0949 C   0  0  0  0  0  0  0  0  0  0  0  0
    0.9443   -1.3439    0.0250 C   0  0  0  0  0  0  0  0  0  0  0  0
    2.0393   -0.4883   -0.0373 C   0  0  0  0  0  0  0  0  0  0  0  0
    3.2980   -1.0000   -0.1064 O   0  0  0  0  0  0  0  0  0  0  0  0
    1.1327   -2.6907    0.0116 O   0  0  0  0  0  0  0  0  0  0  0  0
   -0.0365   -3.5100    0.0722 C   0  0  0  0  0  0  0  0  0  0  0  0
   -1.8968    1.1122    0.1836 C   0  0  0  0  0  0  0  0  0  0  0  0
   -2.9417    0.2975    0.2376 C   0  0  0  0  0  0  0  0  0  0  0  0
   -4.3359    0.8644    0.3141 C   0  0  0  0  0  0  0  0  0  0  0  0
   -5.1857    0.1635   -0.5961 O   0  0  0  0  0  0  0  0  0  0  0  0
    3.5949    3.6772   -0.1047 H   0  0  0  0  0  0  0  0  0  0  0  0
    2.0353    3.3898   -0.9132 H   0  0  0  0  0  0  0  0  0  0  0  0
    2.1305    3.3855    0.8642 H   0  0  0  0  0  0  0  0  0  0  0  0
    0.4240    2.4825    0.0625 H   0  0  0  0  0  0  0  0  0  0  0  0
   -1.1870   -1.4904    0.1391 H   0  0  0  0  0  0  0  0  0  0  0  0
    3.6128   -1.1494   -1.0085 H   0  0  0  0  0  0  0  0  0  0  0  0
    0.2544   -4.5603    0.0541 H   0  0  0  0  0  0  0  0  0  0  0  0
   -0.5804   -3.2995    0.9931 H   0  0  0  0  0  0  0  0  0  0  0  0
   -0.6755   -3.2951   -0.7843 H   0  0  0  0  0  0  0  0  0  0  0  0
   -2.0450    2.1819    0.1945 H   0  0  0  0  0  0  0  0  0  0  0  0
   -2.7935   -0.7722    0.2267 H   0  0  0  0  0  0  0  0  0  0  0  0
   -4.7187    0.7519    1.3285 H   0  0  0  0  0  0  0  0  0  0  0  0
   -4.3134    1.9215    0.0494 H   0  0  0  0  0  0  0  0  0  0  0  0
   -6.1008    0.4762   -0.6001 H   0  0  0  0  0  0  0  0  0  0  0  0
  1  2  1  0  0  0  0
  2  3  1  0  0  0  0
  3  4  2  0  0  0  0
  4  5  1  0  0  0  0
  5  6  2  0  0  0  0
  6  7  1  0  0  0  0
  7  8  2  0  0  0  0
  3  8  1  0  0  0  0
  8  9  1  0  0  0  0
  7 10  1  0  0  0  0
 10 11  1  0  0  0  0
  5 12  1  0  0  0  0
 12 13  2  0  0  0  0
 13 14  1  0  0  0  0
 14 15  1  0  0  0  0
  1 16  1  0  0  0  0
  1 17  1  0  0  0  0
  1 18  1  0  0  0  0
  4 19  1  0  0  0  0
  6 20  1  0  0  0  0
  9 21  1  0  0  0  0
 11 22  1  0  0  0  0
 11 23  1  0  0  0  0
 11 24  1  0  0  0  0
 12 25  1  0  0  0  0
 13 26  1  0  0  0  0
 14 27  1  0  0  0  0
 14 28  1  0  0  0  0
 15 29  1  0  0  0  0
M  END
$$$$
