C13H20O3
APtclcactv06281816423D 0   0.00000     0.00000
 
 36 36  0  0  0  0  0  0  0  0999 V2000
    0.1936    2.6200    0.1316 C   0  0  0  0  0  0  0  0  0  0  0  0
    0.9922    1.3505   -0.0149 C   0  0  0  0  0  0  0  0  0  0  0  0
    2.3083    1.4102    0.1474 C   0  0  0  0  0  0  0  0  0  0  0  0
    3.1314    0.2024    0.0255 C   0  0  0  0  0  0  0  0  0  0  0  0
    4.2948    0.1989    0.3696 O   0  0  0  0  0  0  0  0  0  0  0  0
    2.4795   -1.0407   -0.5441 C   0  0  0  0  0  0  0  0  0  0  0  0
    1.0773   -1.1443    0.0729 C   0  0  0  0  0  0  0  0  0  0  0  0
    0.2607    0.0799   -0.3310 C   0  0  0  0  0  0  0  0  0  0  0  0
   -1.0531    0.0630    0.4071 C   0  0  0  0  0  0  0  0  0  0  0  0
   -2.1793    0.0269   -0.2610 C   0  0  0  0  0  0  0  0  0  0  0  0
   -3.4931    0.0100    0.4771 C   0  0  0  0  0  0  0  0  0  0  0  0
   -4.3184    1.2348    0.0776 C   0  0  0  0  0  0  0  0  0  0  0  0
   -4.2122   -1.1787    0.1426 O   0  0  0  0  0  0  0  0  0  0  0  0
    0.0076    0.0314   -1.7366 O   0  0  0  0  0  0  0  0  0  0  0  0
    0.3871   -2.4120   -0.4346 C   0  0  0  0  0  0  0  0  0  0  0  0
    1.1917   -1.1969    1.5977 C   0  0  0  0  0  0  0  0  0  0  0  0
    0.8649    3.4468    0.3638 H   0  0  0  0  0  0  0  0  0  0  0  0
   -0.3311    2.8288   -0.8007 H   0  0  0  0  0  0  0  0  0  0  0  0
   -0.5307    2.5027    0.9377 H   0  0  0  0  0  0  0  0  0  0  0  0
    2.7774    2.3570    0.3709 H   0  0  0  0  0  0  0  0  0  0  0  0
    2.4023   -0.9555   -1.6281 H   0  0  0  0  0  0  0  0  0  0  0  0
    3.0663   -1.9209   -0.2812 H   0  0  0  0  0  0  0  0  0  0  0  0
   -1.0661    0.0806    1.4869 H   0  0  0  0  0  0  0  0  0  0  0  0
   -2.1663    0.0093   -1.3408 H   0  0  0  0  0  0  0  0  0  0  0  0
   -3.3069    0.0319    1.5509 H   0  0  0  0  0  0  0  0  0  0  0  0
   -5.2686    1.2226    0.6115 H   0  0  0  0  0  0  0  0  0  0  0  0
   -3.7699    2.1415    0.3328 H   0  0  0  0  0  0  0  0  0  0  0  0
   -4.5046    1.2129   -0.9962 H   0  0  0  0  0  0  0  0  0  0  0  0
   -5.0697   -1.2566    0.5825 H   0  0  0  0  0  0  0  0  0  0  0  0
   -0.5082    0.7786   -2.0694 H   0  0  0  0  0  0  0  0  0  0  0  0
    0.9744   -3.2846   -0.1489 H   0  0  0  0  0  0  0  0  0  0  0  0
   -0.6081   -2.4843    0.0041 H   0  0  0  0  0  0  0  0  0  0  0  0
    0.3033   -2.3701   -1.5205 H   0  0  0  0  0  0  0  0  0  0  0  0
    1.6800   -0.2910    1.9569 H   0  0  0  0  0  0  0  0  0  0  0  0
    0.1957   -1.2704    2.0344 H   0  0  0  0  0  0  0  0  0  0  0  0
    1.7808   -2.0668    1.8881 H   0  0  0  0  0  0  0  0  0  0  0  0
  1  2  1  0  0  0  0
  2  3  2  0  0  0  0
  3  4  1  0  0  0  0
  4  5  2  0  0  0  0
  4  6  1  0  0  0  0
  6  7  1  0  0  0  0
  7  8  1  0  0  0  0
  2  8  1  0  0  0  0
  8  9  1  0  0  0  0
  9 10  2  0  0  0  0
 10 11  1  0  0  0  0
 11 12  1  0  0  0  0
 11 13  1  0  0  0  0
  8 14  1  0  0  0  0
  7 15  1  0  0  0  0
  7 16  1  0  0  0  0
  1 17  1  0  0  0  0
  1 18  1  0  0  0  0
  1 19  1  0  0  0  0
  3 20  1  0  0  0  0
  6 21  1  0  0  0  0
  6 22  1  0  0  0  0
  9 23  1  0  0  0  0
 10 24  1  0  0  0  0
 11 25  1  0  0  0  0
 12 26  1  0  0  0  0
 12 27  1  0  0  0  0
 12 28  1  0  0  0  0
 13 29  1  0  0  0  0
 14 30  1  0  0  0  0
 15 31  1  0  0  0  0
 15 32  1  0  0  0  0
 15 33  1  0  0  0  0
 16 34  1  0  0  0  0
 16 35  1  0  0  0  0
 16 36  1  0  0  0  0
M  END
$$$$
