C15H12O5
APtclcactv06281816433D 0   0.00000     0.00000
 
 32 33  0  0  0  0  0  0  0  0999 V2000
   -2.8816   -0.8653   -0.2934 C   0  0  0  0  0  0  0  0  0  0  0  0
   -4.0917   -1.5018   -0.4530 C   0  0  0  0  0  0  0  0  0  0  0  0
   -5.2775   -0.8151   -0.2182 C   0  0  0  0  0  0  0  0  0  0  0  0
   -5.2481    0.5170    0.1791 C   0  0  0  0  0  0  0  0  0  0  0  0
   -4.0435    1.1628    0.3416 C   0  0  0  0  0  0  0  0  0  0  0  0
   -2.8464    0.4759    0.1065 C   0  0  0  0  0  0  0  0  0  0  0  0
   -1.5575    1.1603    0.2789 C   0  0  0  0  0  0  0  0  0  0  0  0
   -0.4039    0.4953    0.0515 C   0  0  0  0  0  0  0  0  0  0  0  0
    0.8791    1.1765    0.2231 C   0  0  0  0  0  0  0  0  0  0  0  0
    0.9071    2.3675    0.4787 O   0  0  0  0  0  0  0  0  0  0  0  0
    2.1360    0.4234    0.0870 C   0  0  0  0  0  0  0  0  0  0  0  0
    2.8150    0.3991   -1.1419 C   0  0  0  0  0  0  0  0  0  0  0  0
    3.9954   -0.3110   -1.2613 C   0  0  0  0  0  0  0  0  0  0  0  0
    4.5099   -0.9991   -0.1699 C   0  0  0  0  0  0  0  0  0  0  0  0
    3.8445   -0.9802    1.0492 C   0  0  0  0  0  0  0  0  0  0  0  0
    2.6660   -0.2702    1.1871 C   0  0  0  0  0  0  0  0  0  0  0  0
    2.0176   -0.2530    2.3787 O   0  0  0  0  0  0  0  0  0  0  0  0
    5.6689   -1.6940   -0.2955 O   0  0  0  0  0  0  0  0  0  0  0  0
    2.3139    1.0702   -2.2093 O   0  0  0  0  0  0  0  0  0  0  0  0
   -6.4681   -1.4471   -0.3779 O   0  0  0  0  0  0  0  0  0  0  0  0
   -1.9610   -1.4009   -0.4721 H   0  0  0  0  0  0  0  0  0  0  0  0
   -4.1200   -2.5365   -0.7615 H   0  0  0  0  0  0  0  0  0  0  0  0
   -6.1721    1.0460    0.3602 H   0  0  0  0  0  0  0  0  0  0  0  0
   -4.0217    2.1977    0.6500 H   0  0  0  0  0  0  0  0  0  0  0  0
   -1.5324    2.1950    0.5875 H   0  0  0  0  0  0  0  0  0  0  0  0
   -0.4289   -0.5394   -0.2571 H   0  0  0  0  0  0  0  0  0  0  0  0
    4.5187   -0.3310   -2.2059 H   0  0  0  0  0  0  0  0  0  0  0  0
    4.2510   -1.5181    1.8929 H   0  0  0  0  0  0  0  0  0  0  0  0
    2.2888    0.4677    2.9637 H   0  0  0  0  0  0  0  0  0  0  0  0
    6.4611   -1.1773   -0.0943 H   0  0  0  0  0  0  0  0  0  0  0  0
    2.6244    1.9832   -2.2811 H   0  0  0  0  0  0  0  0  0  0  0  0
   -6.7922   -1.8834    0.4219 H   0  0  0  0  0  0  0  0  0  0  0  0
  1  2  2  0  0  0  0
  2  3  1  0  0  0  0
  3  4  2  0  0  0  0
  4  5  1  0  0  0  0
  5  6  2  0  0  0  0
  1  6  1  0  0  0  0
  6  7  1  0  0  0  0
  7  8  2  0  0  0  0
  8  9  1  0  0  0  0
  9 10  2  0  0  0  0
  9 11  1  0  0  0  0
 11 12  2  0  0  0  0
 12 13  1  0  0  0  0
 13 14  2  0  0  0  0
 14 15  1  0  0  0  0
 15 16  2  0  0  0  0
 11 16  1  0  0  0  0
 16 17  1  0  0  0  0
 14 18  1  0  0  0  0
 12 19  1  0  0  0  0
  3 20  1  0  0  0  0
  1 21  1  0  0  0  0
  2 22  1  0  0  0  0
  4 23  1  0  0  0  0
  5 24  1  0  0  0  0
  7 25  1  0  0  0  0
  8 26  1  0  0  0  0
 13 27  1  0  0  0  0
 15 28  1  0  0  0  0
 17 29  1  0  0  0  0
 18 30  1  0  0  0  0
 19 31  1  0  0  0  0
 20 32  1  0  0  0  0
M  END
$$$$
