C15H10O5
APtclcactv06281816423D 0   0.00000     0.00000
 
 30 32  0  0  0  0  0  0  0  0999 V2000
   -3.0728   -1.1319   -0.0112 C   0  0  0  0  0  0  0  0  0  0  0  0
   -4.4339   -0.9216   -0.0176 C   0  0  0  0  0  0  0  0  0  0  0  0
   -4.9391    0.3731   -0.0188 C   0  0  0  0  0  0  0  0  0  0  0  0
   -4.0740    1.4608   -0.0135 C   0  0  0  0  0  0  0  0  0  0  0  0
   -2.7116    1.2596   -0.0076 C   0  0  0  0  0  0  0  0  0  0  0  0
   -2.1992   -0.0408   -0.0059 C   0  0  0  0  0  0  0  0  0  0  0  0
   -0.7407   -0.2612    0.0009 C   0  0  0  0  0  0  0  0  0  0  0  0
   -0.2721   -1.5381    0.0024 C   0  0  0  0  0  0  0  0  0  0  0  0
    1.1239   -1.7690    0.0084 C   0  0  0  0  0  0  0  0  0  0  0  0
    1.5793   -2.9013    0.0096 O   0  0  0  0  0  0  0  0  0  0  0  0
    2.0059   -0.5896    0.0128 C   0  0  0  0  0  0  0  0  0  0  0  0
    3.3997   -0.7239    0.0183 C   0  0  0  0  0  0  0  0  0  0  0  0
    4.1930    0.4088    0.0218 C   0  0  0  0  0  0  0  0  0  0  0  0
    3.6091    1.6706    0.0199 C   0  0  0  0  0  0  0  0  0  0  0  0
    2.2296    1.8108    0.0149 C   0  0  0  0  0  0  0  0  0  0  0  0
    1.4181    0.6874    0.0108 C   0  0  0  0  0  0  0  0  0  0  0  0
    0.0735    0.8063   -0.0001 O   0  0  0  0  0  0  0  0  0  0  0  0
    4.3971    2.7760    0.0234 O   0  0  0  0  0  0  0  0  0  0  0  0
    3.9677   -1.9564    0.0207 O   0  0  0  0  0  0  0  0  0  0  0  0
   -6.2814    0.5759   -0.0255 O   0  0  0  0  0  0  0  0  0  0  0  0
   -2.6812   -2.1383   -0.0058 H   0  0  0  0  0  0  0  0  0  0  0  0
   -5.1097   -1.7640   -0.0220 H   0  0  0  0  0  0  0  0  0  0  0  0
   -4.4708    2.4653   -0.0145 H   0  0  0  0  0  0  0  0  0  0  0  0
   -2.0400    2.1055   -0.0043 H   0  0  0  0  0  0  0  0  0  0  0  0
   -0.9608   -2.3700   -0.0006 H   0  0  0  0  0  0  0  0  0  0  0  0
    5.2688    0.3131    0.0265 H   0  0  0  0  0  0  0  0  0  0  0  0
    1.7873    2.7960    0.0141 H   0  0  0  0  0  0  0  0  0  0  0  0
    4.6289    3.0965   -0.8590 H   0  0  0  0  0  0  0  0  0  0  0  0
    4.1359   -2.3137   -0.8620 H   0  0  0  0  0  0  0  0  0  0  0  0
   -6.6749    0.6337    0.8559 H   0  0  0  0  0  0  0  0  0  0  0  0
  1  2  2  0  0  0  0
  2  3  1  0  0  0  0
  3  4  2  0  0  0  0
  4  5  1  0  0  0  0
  5  6  2  0  0  0  0
  1  6  1  0  0  0  0
  6  7  1  0  0  0  0
  7  8  2  0  0  0  0
  8  9  1  0  0  0  0
  9 10  2  0  0  0  0
  9 11  1  0  0  0  0
 11 12  2  0  0  0  0
 12 13  1  0  0  0  0
 13 14  2  0  0  0  0
 14 15  1  0  0  0  0
 15 16  2  0  0  0  0
 11 16  1  0  0  0  0
 16 17  1  0  0  0  0
  7 17  1  0  0  0  0
 14 18  1  0  0  0  0
 12 19  1  0  0  0  0
  3 20  1  0  0  0  0
  1 21  1  0  0  0  0
  2 22  1  0  0  0  0
  4 23  1  0  0  0  0
  5 24  1  0  0  0  0
  8 25  1  0  0  0  0
 13 26  1  0  0  0  0
 15 27  1  0  0  0  0
 18 28  1  0  0  0  0
 19 29  1  0  0  0  0
 20 30  1  0  0  0  0
M  END
$$$$
