C30H42N7O17P3S
APtclcactv06281816413D 0   0.00000     0.00000
 
100103  0  0  0  0  0  0  0  0999 V2000
    0.5682   -3.9964    3.0675 C   0  0  0  0  0  0  0  0  0  0  0  0
   -0.7191   -3.7968    2.2649 C   0  0  0  0  0  0  0  0  0  0  0  0
   -1.2962   -2.4115    2.5629 C   0  0  0  0  0  0  0  0  0  0  0  0
   -0.4111   -3.9104    0.7706 C   0  0  0  0  0  0  0  0  0  0  0  0
    0.5397   -2.9091    0.4027 O   0  0  0  0  0  0  0  0  0  0  0  0
    1.0937   -2.7354   -1.0990 P   0  0  0  0  0  0  0  0  0  0  0  0
    1.6603   -4.0200   -1.5674 O   0  0  0  0  0  0  0  0  0  0  0  0
   -0.1138   -2.2960   -2.0691 O   0  0  0  0  0  0  0  0  0  0  0  0
    2.2388   -1.6040   -1.1211 O   0  0  0  0  0  0  0  0  0  0  0  0
    3.3692   -1.1774   -2.1852 P   0  0  0  0  0  0  0  0  0  0  0  0
    3.9581   -2.3916   -2.7928 O   0  0  0  0  0  0  0  0  0  0  0  0
    2.7064   -0.2684   -3.3369 O   0  0  0  0  0  0  0  0  0  0  0  0
    4.5219   -0.3389   -1.4366 O   0  0  0  0  0  0  0  0  0  0  0  0
    5.7178    0.0935   -2.0884 C   0  0  0  0  0  0  0  0  0  0  0  0
    6.5920    0.8601   -1.0940 C   0  0  0  0  0  0  0  0  0  0  0  0
    7.9382    1.2225   -1.7506 C   0  0  0  0  0  0  0  0  0  0  0  0
    7.9994    2.7669   -1.6634 C   0  0  0  0  0  0  0  0  0  0  0  0
    6.9947    3.0677   -0.5221 C   0  0  0  0  0  0  0  0  0  0  0  0
    5.9497    2.0928   -0.7276 O   0  0  0  0  0  0  0  0  0  0  0  0
    7.6274    2.8779    0.7855 N   0  0  0  0  0  0  0  0  0  0  0  0
    7.5439    1.7649    1.5680 C   0  0  0  0  0  0  0  0  0  0  0  0
    8.2273    1.9383    2.6619 N   0  0  0  0  0  0  0  0  0  0  0  0
    8.7911    3.1700    2.6508 C   0  0  0  0  0  0  0  0  0  0  0  0
    8.4175    3.7856    1.4445 C   0  0  0  0  0  0  0  0  0  0  0  0
    8.8474    5.0167    1.1873 N   0  0  0  0  0  0  0  0  0  0  0  0
    9.6126    5.6536    2.0482 C   0  0  0  0  0  0  0  0  0  0  0  0
    9.9897    5.1165    3.1943 N   0  0  0  0  0  0  0  0  0  0  0  0
    9.6124    3.8890    3.5361 C   0  0  0  0  0  0  0  0  0  0  0  0
   10.0122    3.3347    4.7395 N   0  0  0  0  0  0  0  0  0  0  0  0
    9.3137    3.2063   -1.3147 O   0  0  0  0  0  0  0  0  0  0  0  0
    9.0218    0.6373   -1.0259 O   0  0  0  0  0  0  0  0  0  0  0  0
   10.0561   -0.4055   -1.6854 P   0  0  0  0  0  0  0  0  0  0  0  0
   10.6596    0.1966   -2.8952 O   0  0  0  0  0  0  0  0  0  0  0  0
   11.2155   -0.7551   -0.6245 O   0  0  0  0  0  0  0  0  0  0  0  0
    9.2744   -1.7537   -2.0898 O   0  0  0  0  0  0  0  0  0  0  0  0
   -1.7371   -4.8689    2.6588 C   0  0  0  0  0  0  0  0  0  0  0  0
   -2.9591   -4.7463    1.7855 C   0  0  0  0  0  0  0  0  0  0  0  0
   -3.1871   -5.5858    0.9404 O   0  0  0  0  0  0  0  0  0  0  0  0
   -3.7985   -3.7038    1.9435 N   0  0  0  0  0  0  0  0  0  0  0  0
   -5.0416   -3.6407    1.1710 C   0  0  0  0  0  0  0  0  0  0  0  0
   -5.8051   -2.3662    1.5366 C   0  0  0  0  0  0  0  0  0  0  0  0
   -7.0839   -2.3012    0.7419 C   0  0  0  0  0  0  0  0  0  0  0  0
   -7.3577   -3.1871   -0.0399 O   0  0  0  0  0  0  0  0  0  0  0  0
   -7.9233   -1.2587    0.8999 N   0  0  0  0  0  0  0  0  0  0  0  0
   -9.1664   -1.1956    0.1274 C   0  0  0  0  0  0  0  0  0  0  0  0
   -9.9299    0.0789    0.4929 C   0  0  0  0  0  0  0  0  0  0  0  0
  -11.4658    0.1569   -0.4615 S   0  0  0  0  0  0  0  0  0  0  0  0
  -12.1233    1.6768    0.1404 C   0  0  0  0  0  0  0  0  0  0  0  0
  -11.5113    2.3162    0.9764 O   0  0  0  0  0  0  0  0  0  0  0  0
  -13.4057    2.1710   -0.3649 C   0  0  0  0  0  0  0  0  0  0  0  0
  -13.9086    3.3337    0.0955 C   0  0  0  0  0  0  0  0  0  0  0  0
  -15.1980    3.8305   -0.4125 C   0  0  0  0  0  0  0  0  0  0  0  0
  -15.7230    5.0363    0.0627 C   0  0  0  0  0  0  0  0  0  0  0  0
  -16.9310    5.4952   -0.4184 C   0  0  0  0  0  0  0  0  0  0  0  0
  -17.6235    4.7658   -1.3691 C   0  0  0  0  0  0  0  0  0  0  0  0
  -17.1106    3.5713   -1.8440 C   0  0  0  0  0  0  0  0  0  0  0  0
  -15.9010    3.1020   -1.3770 C   0  0  0  0  0  0  0  0  0  0  0  0
   -1.1564   -6.1633    2.4867 O   0  0  0  0  0  0  0  0  0  0  0  0
    0.3653   -3.8334    4.1260 H   0  0  0  0  0  0  0  0  0  0  0  0
    0.9345   -5.0123    2.9200 H   0  0  0  0  0  0  0  0  0  0  0  0
    1.3217   -3.2856    2.7283 H   0  0  0  0  0  0  0  0  0  0  0  0
   -0.5603   -1.6489    2.3082 H   0  0  0  0  0  0  0  0  0  0  0  0
   -2.1981   -2.2585    1.9701 H   0  0  0  0  0  0  0  0  0  0  0  0
   -1.5415   -2.3403    3.6225 H   0  0  0  0  0  0  0  0  0  0  0  0
    0.0000   -4.8973    0.5583 H   0  0  0  0  0  0  0  0  0  0  0  0
   -1.3282   -3.7682    0.1988 H   0  0  0  0  0  0  0  0  0  0  0  0
   -0.5332   -1.4607   -1.8213 H   0  0  0  0  0  0  0  0  0  0  0  0
    2.3002    0.5461   -3.0102 H   0  0  0  0  0  0  0  0  0  0  0  0
    6.2639   -0.7741   -2.4586 H   0  0  0  0  0  0  0  0  0  0  0  0
    5.4610    0.7449   -2.9239 H   0  0  0  0  0  0  0  0  0  0  0  0
    6.7645    0.2514   -0.2064 H   0  0  0  0  0  0  0  0  0  0  0  0
    7.9546    0.8982   -2.7912 H   0  0  0  0  0  0  0  0  0  0  0  0
    7.6737    3.2226   -2.5985 H   0  0  0  0  0  0  0  0  0  0  0  0
    6.5995    4.0793   -0.6153 H   0  0  0  0  0  0  0  0  0  0  0  0
    6.9918    0.8712    1.3174 H   0  0  0  0  0  0  0  0  0  0  0  0
    9.9450    6.6528    1.8082 H   0  0  0  0  0  0  0  0  0  0  0  0
   10.5744    3.8432    5.3447 H   0  0  0  0  0  0  0  0  0  0  0  0
    9.7302    2.4377    4.9777 H   0  0  0  0  0  0  0  0  0  0  0  0
    9.4024    4.1669   -1.2478 H   0  0  0  0  0  0  0  0  0  0  0  0
   11.8758   -1.3796   -0.9549 H   0  0  0  0  0  0  0  0  0  0  0  0
    8.8530   -2.2027   -1.3442 H   0  0  0  0  0  0  0  0  0  0  0  0
   -2.0213   -4.7341    3.7024 H   0  0  0  0  0  0  0  0  0  0  0  0
   -3.5795   -2.9953    2.5688 H   0  0  0  0  0  0  0  0  0  0  0  0
   -4.8078   -3.6314    0.1064 H   0  0  0  0  0  0  0  0  0  0  0  0
   -5.6565   -4.5110    1.4004 H   0  0  0  0  0  0  0  0  0  0  0  0
   -6.0390   -2.3754    2.6011 H   0  0  0  0  0  0  0  0  0  0  0  0
   -5.1902   -1.4959    1.3072 H   0  0  0  0  0  0  0  0  0  0  0  0
   -7.7043   -0.5502    1.5252 H   0  0  0  0  0  0  0  0  0  0  0  0
   -8.9326   -1.1863   -0.9372 H   0  0  0  0  0  0  0  0  0  0  0  0
   -9.7813   -2.0659    0.3567 H   0  0  0  0  0  0  0  0  0  0  0  0
  -10.1638    0.0697    1.5575 H   0  0  0  0  0  0  0  0  0  0  0  0
   -9.3150    0.9492    0.2636 H   0  0  0  0  0  0  0  0  0  0  0  0
  -13.9486    1.6039   -1.1066 H   0  0  0  0  0  0  0  0  0  0  0  0
  -13.3657    3.9009    0.8372 H   0  0  0  0  0  0  0  0  0  0  0  0
  -15.1839    5.6064    0.8049 H   0  0  0  0  0  0  0  0  0  0  0  0
  -17.3380    6.4261   -0.0521 H   0  0  0  0  0  0  0  0  0  0  0  0
  -18.5692    5.1305   -1.7420 H   0  0  0  0  0  0  0  0  0  0  0  0
  -17.6570    3.0075   -2.5857 H   0  0  0  0  0  0  0  0  0  0  0  0
  -15.5019    2.1699   -1.7487 H   0  0  0  0  0  0  0  0  0  0  0  0
   -0.8792   -6.3525    1.5798 H   0  0  0  0  0  0  0  0  0  0  0  0
  1  2  1  0  0  0  0
  2  3  1  0  0  0  0
  2  4  1  0  0  0  0
  4  5  1  0  0  0  0
  5  6  1  0  0  0  0
  6  7  2  0  0  0  0
  6  8  1  0  0  0  0
  6  9  1  0  0  0  0
  9 10  1  0  0  0  0
 10 11  2  0  0  0  0
 10 12  1  0  0  0  0
 10 13  1  0  0  0  0
 13 14  1  0  0  0  0
 14 15  1  0  0  0  0
 15 16  1  0  0  0  0
 16 17  1  0  0  0  0
 17 18  1  0  0  0  0
 18 19  1  0  0  0  0
 15 19  1  0  0  0  0
 18 20  1  0  0  0  0
 20 21  1  0  0  0  0
 21 22  2  0  0  0  0
 22 23  1  0  0  0  0
 23 24  2  0  0  0  0
 20 24  1  0  0  0  0
 24 25  1  0  0  0  0
 25 26  2  0  0  0  0
 26 27  1  0  0  0  0
 27 28  2  0  0  0  0
 23 28  1  0  0  0  0
 28 29  1  0  0  0  0
 17 30  1  0  0  0  0
 16 31  1  0  0  0  0
 31 32  1  0  0  0  0
 32 33  2  0  0  0  0
 32 34  1  0  0  0  0
 32 35  1  0  0  0  0
  2 36  1  0  0  0  0
 36 37  1  0  0  0  0
 37 38  2  0  0  0  0
 37 39  1  0  0  0  0
 39 40  1  0  0  0  0
 40 41  1  0  0  0  0
 41 42  1  0  0  0  0
 42 43  2  0  0  0  0
 42 44  1  0  0  0  0
 44 45  1  0  0  0  0
 45 46  1  0  0  0  0
 46 47  1  0  0  0  0
 47 48  1  0  0  0  0
 48 49  2  0  0  0  0
 48 50  1  0  0  0  0
 50 51  2  0  0  0  0
 51 52  1  0  0  0  0
 52 53  2  0  0  0  0
 53 54  1  0  0  0  0
 54 55  2  0  0  0  0
 55 56  1  0  0  0  0
 56 57  2  0  0  0  0
 52 57  1  0  0  0  0
 36 58  1  0  0  0  0
  1 59  1  0  0  0  0
  1 60  1  0  0  0  0
  1 61  1  0  0  0  0
  3 62  1  0  0  0  0
  3 63  1  0  0  0  0
  3 64  1  0  0  0  0
  4 65  1  0  0  0  0
  4 66  1  0  0  0  0
  8 67  1  0  0  0  0
 12 68  1  0  0  0  0
 14 69  1  0  0  0  0
 14 70  1  0  0  0  0
 15 71  1  0  0  0  0
 16 72  1  0  0  0  0
 17 73  1  0  0  0  0
 18 74  1  0  0  0  0
 21 75  1  0  0  0  0
 26 76  1  0  0  0  0
 29 77  1  0  0  0  0
 29 78  1  0  0  0  0
 30 79  1  0  0  0  0
 34 80  1  0  0  0  0
 35 81  1  0  0  0  0
 36 82  1  0  0  0  0
 39 83  1  0  0  0  0
 40 84  1  0  0  0  0
 40 85  1  0  0  0  0
 41 86  1  0  0  0  0
 41 87  1  0  0  0  0
 44 88  1  0  0  0  0
 45 89  1  0  0  0  0
 45 90  1  0  0  0  0
 46 91  1  0  0  0  0
 46 92  1  0  0  0  0
 50 93  1  0  0  0  0
 51 94  1  0  0  0  0
 53 95  1  0  0  0  0
 54 96  1  0  0  0  0
 55 97  1  0  0  0  0
 56 98  1  0  0  0  0
 57 99  1  0  0  0  0
 58100  1  0  0  0  0
M  END
$$$$
