C10H8O4
APtclcactv06281816423D 0   0.00000     0.00000
 
 22 23  0  0  0  0  0  0  0  0999 V2000
    3.5426    1.8619   -0.0003 C   0  0  0  0  0  0  0  0  0  0  0  0
    3.2403    0.4653   -0.0088 O   0  0  0  0  0  0  0  0  0  0  0  0
    1.9251    0.1181   -0.0085 C   0  0  0  0  0  0  0  0  0  0  0  0
    1.5606   -1.2313   -0.0166 C   0  0  0  0  0  0  0  0  0  0  0  0
    0.2264   -1.5986   -0.0160 C   0  0  0  0  0  0  0  0  0  0  0  0
   -0.7610   -0.6246   -0.0074 C   0  0  0  0  0  0  0  0  0  0  0  0
   -0.3962    0.7344    0.0008 C   0  0  0  0  0  0  0  0  0  0  0  0
    0.9558    1.0979    0.0054 C   0  0  0  0  0  0  0  0  0  0  0  0
   -1.4491    1.7518    0.0098 C   0  0  0  0  0  0  0  0  0  0  0  0
   -2.7429    1.3370    0.0100 C   0  0  0  0  0  0  0  0  0  0  0  0
   -3.0370   -0.0418    0.0016 C   0  0  0  0  0  0  0  0  0  0  0  0
   -4.2011   -0.4002    0.0018 O   0  0  0  0  0  0  0  0  0  0  0  0
   -2.0674   -0.9694   -0.0071 O   0  0  0  0  0  0  0  0  0  0  0  0
    2.5232   -2.1893   -0.0256 O   0  0  0  0  0  0  0  0  0  0  0  0
    3.1156    2.3315   -0.8864 H   0  0  0  0  0  0  0  0  0  0  0  0
    3.1190    2.3199    0.8935 H   0  0  0  0  0  0  0  0  0  0  0  0
    4.6239    1.9996   -0.0014 H   0  0  0  0  0  0  0  0  0  0  0  0
   -0.0460   -2.6436   -0.0226 H   0  0  0  0  0  0  0  0  0  0  0  0
    1.2377    2.1404    0.0117 H   0  0  0  0  0  0  0  0  0  0  0  0
   -1.2040    2.8036    0.0165 H   0  0  0  0  0  0  0  0  0  0  0  0
   -3.5438    2.0614    0.0169 H   0  0  0  0  0  0  0  0  0  0  0  0
    2.8044   -2.4727    0.8552 H   0  0  0  0  0  0  0  0  0  0  0  0
  1  2  1  0  0  0  0
  2  3  1  0  0  0  0
  3  4  2  0  0  0  0
  4  5  1  0  0  0  0
  5  6  2  0  0  0  0
  6  7  1  0  0  0  0
  7  8  2  0  0  0  0
  3  8  1  0  0  0  0
  7  9  1  0  0  0  0
  9 10  2  0  0  0  0
 10 11  1  0  0  0  0
 11 12  2  0  0  0  0
 11 13  1  0  0  0  0
  6 13  1  0  0  0  0
  4 14  1  0  0  0  0
  1 15  1  0  0  0  0
  1 16  1  0  0  0  0
  1 17  1  0  0  0  0
  5 18  1  0  0  0  0
  8 19  1  0  0  0  0
  9 20  1  0  0  0  0
 10 21  1  0  0  0  0
 14 22  1  0  0  0  0
M  END
$$$$
