C11H12O4
APtclcactv06281816433D 0   0.00000     0.00000
 
 27 27  0  0  0  0  0  0  0  0999 V2000
    2.6901    3.0772    0.0061 C   0  0  0  0  0  0  0  0  0  0  0  0
    2.9195    1.6667    0.0096 O   0  0  0  0  0  0  0  0  0  0  0  0
    1.8226    0.8628    0.0082 C   0  0  0  0  0  0  0  0  0  0  0  0
    0.5589    1.4204    0.0036 C   0  0  0  0  0  0  0  0  0  0  0  0
   -0.5702    0.5915    0.0022 C   0  0  0  0  0  0  0  0  0  0  0  0
   -0.4127   -0.8002    0.0054 C   0  0  0  0  0  0  0  0  0  0  0  0
    0.8544   -1.3500    0.0100 C   0  0  0  0  0  0  0  0  0  0  0  0
    1.9750   -0.5221    0.0056 C   0  0  0  0  0  0  0  0  0  0  0  0
    3.2199   -1.0667    0.0097 O   0  0  0  0  0  0  0  0  0  0  0  0
    1.0084   -2.7012    0.0131 O   0  0  0  0  0  0  0  0  0  0  0  0
   -0.1832   -3.4899    0.0114 C   0  0  0  0  0  0  0  0  0  0  0  0
   -1.9149    1.1799   -0.0022 C   0  0  0  0  0  0  0  0  0  0  0  0
   -3.0065    0.3759   -0.0036 C   0  0  0  0  0  0  0  0  0  0  0  0
   -4.2962    0.9402   -0.0078 C   0  0  0  0  0  0  0  0  0  0  0  0
   -5.2743    0.2199   -0.0090 O   0  0  0  0  0  0  0  0  0  0  0  0
    2.1271    3.3515   -0.8860 H   0  0  0  0  0  0  0  0  0  0  0  0
    2.1222    3.3551    0.8940 H   0  0  0  0  0  0  0  0  0  0  0  0
    3.6462    3.6008    0.0077 H   0  0  0  0  0  0  0  0  0  0  0  0
    0.4415    2.4940    0.0015 H   0  0  0  0  0  0  0  0  0  0  0  0
   -1.2808   -1.4426    0.0047 H   0  0  0  0  0  0  0  0  0  0  0  0
    3.5808   -1.2297   -0.8725 H   0  0  0  0  0  0  0  0  0  0  0  0
    0.0811   -4.5474    0.0143 H   0  0  0  0  0  0  0  0  0  0  0  0
   -0.7722   -3.2602    0.8993 H   0  0  0  0  0  0  0  0  0  0  0  0
   -0.7673   -3.2638   -0.8806 H   0  0  0  0  0  0  0  0  0  0  0  0
   -2.0347    2.2532   -0.0043 H   0  0  0  0  0  0  0  0  0  0  0  0
   -2.8867   -0.6974   -0.0015 H   0  0  0  0  0  0  0  0  0  0  0  0
   -4.4160    2.0136   -0.0099 H   0  0  0  0  0  0  0  0  0  0  0  0
  1  2  1  0  0  0  0
  2  3  1  0  0  0  0
  3  4  2  0  0  0  0
  4  5  1  0  0  0  0
  5  6  2  0  0  0  0
  6  7  1  0  0  0  0
  7  8  2  0  0  0  0
  3  8  1  0  0  0  0
  8  9  1  0  0  0  0
  7 10  1  0  0  0  0
 10 11  1  0  0  0  0
  5 12  1  0  0  0  0
 12 13  2  0  0  0  0
 13 14  1  0  0  0  0
 14 15  2  0  0  0  0
  1 16  1  0  0  0  0
  1 17  1  0  0  0  0
  1 18  1  0  0  0  0
  4 19  1  0  0  0  0
  6 20  1  0  0  0  0
  9 21  1  0  0  0  0
 11 22  1  0  0  0  0
 11 23  1  0  0  0  0
 11 24  1  0  0  0  0
 12 25  1  0  0  0  0
 13 26  1  0  0  0  0
 14 27  1  0  0  0  0
M  END
$$$$
