C30H42N7O18P3S
APtclcactv06281816413D 0   0.00000     0.00000
 
101104  0  0  0  0  0  0  0  0999 V2000
    1.0214   -4.1397    2.9923 C   0  0  0  0  0  0  0  0  0  0  0  0
   -0.2767   -3.9522    2.2045 C   0  0  0  0  0  0  0  0  0  0  0  0
   -0.8850   -2.5892    2.5406 C   0  0  0  0  0  0  0  0  0  0  0  0
    0.0219   -4.0218    0.7055 C   0  0  0  0  0  0  0  0  0  0  0  0
    0.9451   -2.9888    0.3553 O   0  0  0  0  0  0  0  0  0  0  0  0
    1.4827   -2.7651   -1.1457 P   0  0  0  0  0  0  0  0  0  0  0  0
    2.0766   -4.0236   -1.6497 O   0  0  0  0  0  0  0  0  0  0  0  0
    0.2572   -2.3319   -2.0957 O   0  0  0  0  0  0  0  0  0  0  0  0
    2.5998   -1.6057   -1.1485 O   0  0  0  0  0  0  0  0  0  0  0  0
    3.7109   -1.1258   -2.2102 P   0  0  0  0  0  0  0  0  0  0  0  0
    4.3243   -2.3101   -2.8518 O   0  0  0  0  0  0  0  0  0  0  0  0
    3.0170   -0.2055   -3.3343 O   0  0  0  0  0  0  0  0  0  0  0  0
    4.8488   -0.2778   -1.4497 O   0  0  0  0  0  0  0  0  0  0  0  0
    6.0286    0.1996   -2.0996 C   0  0  0  0  0  0  0  0  0  0  0  0
    6.8919    0.9629   -1.0932 C   0  0  0  0  0  0  0  0  0  0  0  0
    8.2235    1.3741   -1.7507 C   0  0  0  0  0  0  0  0  0  0  0  0
    8.2478    2.9170   -1.6259 C   0  0  0  0  0  0  0  0  0  0  0  0
    7.2453    3.1651   -0.4702 C   0  0  0  0  0  0  0  0  0  0  0  0
    6.2228    2.1702   -0.6919 O   0  0  0  0  0  0  0  0  0  0  0  0
    7.8929    2.9591    0.8276 N   0  0  0  0  0  0  0  0  0  0  0  0
    7.8427    1.8256    1.5832 C   0  0  0  0  0  0  0  0  0  0  0  0
    8.5305    1.9890    2.6759 N   0  0  0  0  0  0  0  0  0  0  0  0
    9.0640    3.2340    2.6909 C   0  0  0  0  0  0  0  0  0  0  0  0
    8.6659    3.8695    1.5028 C   0  0  0  0  0  0  0  0  0  0  0  0
    9.0637    5.1167    1.2727 N   0  0  0  0  0  0  0  0  0  0  0  0
    9.8201    5.7510    2.1433 C   0  0  0  0  0  0  0  0  0  0  0  0
   10.2193    5.1955    3.2731 N   0  0  0  0  0  0  0  0  0  0  0  0
    9.8747    3.9512    3.5875 C   0  0  0  0  0  0  0  0  0  0  0  0
   10.2975    3.3777    4.7738 N   0  0  0  0  0  0  0  0  0  0  0  0
    9.5538    3.3798   -1.2763 O   0  0  0  0  0  0  0  0  0  0  0  0
    9.3268    0.7981   -1.0485 O   0  0  0  0  0  0  0  0  0  0  0  0
   10.3808   -0.2027   -1.7411 P   0  0  0  0  0  0  0  0  0  0  0  0
   10.9598    0.4433   -2.9402 O   0  0  0  0  0  0  0  0  0  0  0  0
   11.5569   -0.5495   -0.6977 O   0  0  0  0  0  0  0  0  0  0  0  0
    9.6290   -1.5593   -2.1726 O   0  0  0  0  0  0  0  0  0  0  0  0
   -1.2651   -5.0583    2.5794 C   0  0  0  0  0  0  0  0  0  0  0  0
   -2.4967   -4.9444    1.7184 C   0  0  0  0  0  0  0  0  0  0  0  0
   -2.7111   -5.7684    0.8547 O   0  0  0  0  0  0  0  0  0  0  0  0
   -3.3599   -3.9269    1.9083 N   0  0  0  0  0  0  0  0  0  0  0  0
   -4.6104   -3.8755    1.1467 C   0  0  0  0  0  0  0  0  0  0  0  0
   -5.4017   -2.6293    1.5491 C   0  0  0  0  0  0  0  0  0  0  0  0
   -6.6880   -2.5764    0.7658 C   0  0  0  0  0  0  0  0  0  0  0  0
   -6.9464   -3.4494   -0.0355 O   0  0  0  0  0  0  0  0  0  0  0  0
   -7.5512   -1.5589    0.9556 N   0  0  0  0  0  0  0  0  0  0  0  0
   -8.8017   -1.5074    0.1941 C   0  0  0  0  0  0  0  0  0  0  0  0
   -9.5929   -0.2613    0.5965 C   0  0  0  0  0  0  0  0  0  0  0  0
  -11.1379   -0.1977   -0.3444 S   0  0  0  0  0  0  0  0  0  0  0  0
  -11.8272    1.2905    0.2995 C   0  0  0  0  0  0  0  0  0  0  0  0
  -11.2242    1.9242    1.1466 O   0  0  0  0  0  0  0  0  0  0  0  0
  -13.1239    1.7647   -0.1835 C   0  0  0  0  0  0  0  0  0  0  0  0
  -13.6519    2.9046    0.3097 C   0  0  0  0  0  0  0  0  0  0  0  0
  -14.9552    3.3812   -0.1757 C   0  0  0  0  0  0  0  0  0  0  0  0
  -15.5049    4.5631    0.3341 C   0  0  0  0  0  0  0  0  0  0  0  0
  -16.7254    5.0054   -0.1241 C   0  0  0  0  0  0  0  0  0  0  0  0
  -17.4118    4.2801   -1.0913 C   0  0  0  0  0  0  0  0  0  0  0  0
  -16.8704    3.1054   -1.6006 C   0  0  0  0  0  0  0  0  0  0  0  0
  -15.6476    2.6578   -1.1535 C   0  0  0  0  0  0  0  0  0  0  0  0
  -18.6152    4.7202   -1.5395 O   0  0  0  0  0  0  0  0  0  0  0  0
   -0.6546   -6.3334    2.3712 O   0  0  0  0  0  0  0  0  0  0  0  0
    0.8231   -4.0076    4.0560 H   0  0  0  0  0  0  0  0  0  0  0  0
    1.4111   -5.1425    2.8172 H   0  0  0  0  0  0  0  0  0  0  0  0
    1.7547   -3.4026    2.6651 H   0  0  0  0  0  0  0  0  0  0  0  0
   -0.1699   -1.8027    2.2993 H   0  0  0  0  0  0  0  0  0  0  0  0
   -1.7950   -2.4439    1.9585 H   0  0  0  0  0  0  0  0  0  0  0  0
   -1.1234   -2.5499    3.6035 H   0  0  0  0  0  0  0  0  0  0  0  0
    0.4553   -4.9929    0.4660 H   0  0  0  0  0  0  0  0  0  0  0  0
   -0.9029   -3.8882    0.1442 H   0  0  0  0  0  0  0  0  0  0  0  0
   -0.1804   -1.5134   -1.8245 H   0  0  0  0  0  0  0  0  0  0  0  0
    2.5938    0.5906   -2.9846 H   0  0  0  0  0  0  0  0  0  0  0  0
    6.5926   -0.6452   -2.4951 H   0  0  0  0  0  0  0  0  0  0  0  0
    5.7494    0.8646   -2.9169 H   0  0  0  0  0  0  0  0  0  0  0  0
    7.0862    0.3372   -0.2221 H   0  0  0  0  0  0  0  0  0  0  0  0
    8.2395    1.0758   -2.7989 H   0  0  0  0  0  0  0  0  0  0  0  0
    7.9037    3.3871   -2.5471 H   0  0  0  0  0  0  0  0  0  0  0  0
    6.8250    4.1687   -0.5356 H   0  0  0  0  0  0  0  0  0  0  0  0
    7.3105    0.9250    1.3147 H   0  0  0  0  0  0  0  0  0  0  0  0
   10.1261    6.7636    1.9255 H   0  0  0  0  0  0  0  0  0  0  0  0
   10.8519    3.8849    5.3872 H   0  0  0  0  0  0  0  0  0  0  0  0
   10.0393    2.4685    4.9921 H   0  0  0  0  0  0  0  0  0  0  0  0
    9.6197    4.3404   -1.1865 H   0  0  0  0  0  0  0  0  0  0  0  0
   12.2295   -1.1494   -1.0483 H   0  0  0  0  0  0  0  0  0  0  0  0
    9.2246   -2.0366   -1.4352 H   0  0  0  0  0  0  0  0  0  0  0  0
   -1.5442   -4.9559    3.6281 H   0  0  0  0  0  0  0  0  0  0  0  0
   -3.1533   -3.2287    2.5491 H   0  0  0  0  0  0  0  0  0  0  0  0
   -4.3854   -3.8345    0.0810 H   0  0  0  0  0  0  0  0  0  0  0  0
   -5.2021   -4.7659    1.3592 H   0  0  0  0  0  0  0  0  0  0  0  0
   -5.6267   -2.6703    2.6149 H   0  0  0  0  0  0  0  0  0  0  0  0
   -4.8100   -1.7389    1.3367 H   0  0  0  0  0  0  0  0  0  0  0  0
   -7.3445   -0.8607    1.5964 H   0  0  0  0  0  0  0  0  0  0  0  0
   -8.5766   -1.4665   -0.8717 H   0  0  0  0  0  0  0  0  0  0  0  0
   -9.3934   -2.3979    0.4065 H   0  0  0  0  0  0  0  0  0  0  0  0
   -9.8180   -0.3022    1.6622 H   0  0  0  0  0  0  0  0  0  0  0  0
   -9.0012    0.6291    0.3840 H   0  0  0  0  0  0  0  0  0  0  0  0
  -13.6588    1.2027   -0.9348 H   0  0  0  0  0  0  0  0  0  0  0  0
  -13.1170    3.4666    1.0610 H   0  0  0  0  0  0  0  0  0  0  0  0
  -14.9728    5.1269    1.0860 H   0  0  0  0  0  0  0  0  0  0  0  0
  -17.1505    5.9172    0.2686 H   0  0  0  0  0  0  0  0  0  0  0  0
  -17.4079    2.5452   -2.3513 H   0  0  0  0  0  0  0  0  0  0  0  0
  -15.2278    1.7450   -1.5498 H   0  0  0  0  0  0  0  0  0  0  0  0
  -18.5585    5.3100   -2.3037 H   0  0  0  0  0  0  0  0  0  0  0  0
   -0.3801   -6.4936    1.4580 H   0  0  0  0  0  0  0  0  0  0  0  0
  1  2  1  0  0  0  0
  2  3  1  0  0  0  0
  2  4  1  0  0  0  0
  4  5  1  0  0  0  0
  5  6  1  0  0  0  0
  6  7  2  0  0  0  0
  6  8  1  0  0  0  0
  6  9  1  0  0  0  0
  9 10  1  0  0  0  0
 10 11  2  0  0  0  0
 10 12  1  0  0  0  0
 10 13  1  0  0  0  0
 13 14  1  0  0  0  0
 14 15  1  0  0  0  0
 15 16  1  0  0  0  0
 16 17  1  0  0  0  0
 17 18  1  0  0  0  0
 18 19  1  0  0  0  0
 15 19  1  0  0  0  0
 18 20  1  0  0  0  0
 20 21  1  0  0  0  0
 21 22  2  0  0  0  0
 22 23  1  0  0  0  0
 23 24  2  0  0  0  0
 20 24  1  0  0  0  0
 24 25  1  0  0  0  0
 25 26  2  0  0  0  0
 26 27  1  0  0  0  0
 27 28  2  0  0  0  0
 23 28  1  0  0  0  0
 28 29  1  0  0  0  0
 17 30  1  0  0  0  0
 16 31  1  0  0  0  0
 31 32  1  0  0  0  0
 32 33  2  0  0  0  0
 32 34  1  0  0  0  0
 32 35  1  0  0  0  0
  2 36  1  0  0  0  0
 36 37  1  0  0  0  0
 37 38  2  0  0  0  0
 37 39  1  0  0  0  0
 39 40  1  0  0  0  0
 40 41  1  0  0  0  0
 41 42  1  0  0  0  0
 42 43  2  0  0  0  0
 42 44  1  0  0  0  0
 44 45  1  0  0  0  0
 45 46  1  0  0  0  0
 46 47  1  0  0  0  0
 47 48  1  0  0  0  0
 48 49  2  0  0  0  0
 48 50  1  0  0  0  0
 50 51  2  0  0  0  0
 51 52  1  0  0  0  0
 52 53  2  0  0  0  0
 53 54  1  0  0  0  0
 54 55  2  0  0  0  0
 55 56  1  0  0  0  0
 56 57  2  0  0  0  0
 52 57  1  0  0  0  0
 55 58  1  0  0  0  0
 36 59  1  0  0  0  0
  1 60  1  0  0  0  0
  1 61  1  0  0  0  0
  1 62  1  0  0  0  0
  3 63  1  0  0  0  0
  3 64  1  0  0  0  0
  3 65  1  0  0  0  0
  4 66  1  0  0  0  0
  4 67  1  0  0  0  0
  8 68  1  0  0  0  0
 12 69  1  0  0  0  0
 14 70  1  0  0  0  0
 14 71  1  0  0  0  0
 15 72  1  0  0  0  0
 16 73  1  0  0  0  0
 17 74  1  0  0  0  0
 18 75  1  0  0  0  0
 21 76  1  0  0  0  0
 26 77  1  0  0  0  0
 29 78  1  0  0  0  0
 29 79  1  0  0  0  0
 30 80  1  0  0  0  0
 34 81  1  0  0  0  0
 35 82  1  0  0  0  0
 36 83  1  0  0  0  0
 39 84  1  0  0  0  0
 40 85  1  0  0  0  0
 40 86  1  0  0  0  0
 41 87  1  0  0  0  0
 41 88  1  0  0  0  0
 44 89  1  0  0  0  0
 45 90  1  0  0  0  0
 45 91  1  0  0  0  0
 46 92  1  0  0  0  0
 46 93  1  0  0  0  0
 50 94  1  0  0  0  0
 51 95  1  0  0  0  0
 53 96  1  0  0  0  0
 54 97  1  0  0  0  0
 56 98  1  0  0  0  0
 57 99  1  0  0  0  0
 58100  1  0  0  0  0
 59101  1  0  0  0  0
M  END
$$$$
