C30H18O10
APtclcactv06281816453D 0   0.00000     0.00000
 
 58 63  0  0  0  0  0  0  0  0999 V2000
   -7.4069    2.0594   -0.8256 C   0  0  0  0  0  0  0  0  0  0  0  0
   -8.5915    2.7232   -0.5953 C   0  0  0  0  0  0  0  0  0  0  0  0
   -9.4579    2.2789    0.3963 C   0  0  0  0  0  0  0  0  0  0  0  0
   -9.1334    1.1640    1.1599 C   0  0  0  0  0  0  0  0  0  0  0  0
   -7.9507    0.4945    0.9366 C   0  0  0  0  0  0  0  0  0  0  0  0
   -7.0767    0.9373   -0.0603 C   0  0  0  0  0  0  0  0  0  0  0  0
   -5.8092    0.2232   -0.3034 C   0  0  0  0  0  0  0  0  0  0  0  0
   -5.3913    0.0505   -1.5864 C   0  0  0  0  0  0  0  0  0  0  0  0
   -4.1781   -0.6320   -1.8392 C   0  0  0  0  0  0  0  0  0  0  0  0
   -3.7730   -0.8044   -2.9775 O   0  0  0  0  0  0  0  0  0  0  0  0
   -3.4226   -1.1258   -0.6752 C   0  0  0  0  0  0  0  0  0  0  0  0
   -2.2124   -1.8109   -0.8325 C   0  0  0  0  0  0  0  0  0  0  0  0
   -1.5316   -2.2592    0.2889 C   0  0  0  0  0  0  0  0  0  0  0  0
   -2.0519   -2.0273    1.5610 C   0  0  0  0  0  0  0  0  0  0  0  0
   -3.2500   -1.3492    1.7202 C   0  0  0  0  0  0  0  0  0  0  0  0
   -3.9438   -0.8940    0.6099 C   0  0  0  0  0  0  0  0  0  0  0  0
   -5.1095   -0.2266    0.7501 O   0  0  0  0  0  0  0  0  0  0  0  0
   -1.3788   -2.4703    2.6545 O   0  0  0  0  0  0  0  0  0  0  0  0
   -0.3540   -2.9270    0.1474 O   0  0  0  0  0  0  0  0  0  0  0  0
    0.7926   -2.2010    0.1349 C   0  0  0  0  0  0  0  0  0  0  0  0
    2.0177   -2.8425   -0.0074 C   0  0  0  0  0  0  0  0  0  0  0  0
    3.1834   -2.1097   -0.0201 C   0  0  0  0  0  0  0  0  0  0  0  0
    3.1338   -0.7188    0.1099 C   0  0  0  0  0  0  0  0  0  0  0  0
    1.8998   -0.0776    0.2524 C   0  0  0  0  0  0  0  0  0  0  0  0
    0.7383   -0.8174    0.2588 C   0  0  0  0  0  0  0  0  0  0  0  0
    4.3799    0.0701    0.0973 C   0  0  0  0  0  0  0  0  0  0  0  0
    4.2997    1.4220    0.2259 C   0  0  0  0  0  0  0  0  0  0  0  0
    5.4846    2.1953    0.2161 C   0  0  0  0  0  0  0  0  0  0  0  0
    5.4499    3.4100    0.3294 O   0  0  0  0  0  0  0  0  0  0  0  0
    6.7614    1.4771    0.0642 C   0  0  0  0  0  0  0  0  0  0  0  0
    7.9827    2.1616    0.0444 C   0  0  0  0  0  0  0  0  0  0  0  0
    9.1599    1.4502   -0.0996 C   0  0  0  0  0  0  0  0  0  0  0  0
    9.1285    0.0658   -0.2241 C   0  0  0  0  0  0  0  0  0  0  0  0
    7.9226   -0.6183   -0.2052 C   0  0  0  0  0  0  0  0  0  0  0  0
    6.7326    0.0773   -0.0613 C   0  0  0  0  0  0  0  0  0  0  0  0
    5.5504   -0.5740   -0.0351 O   0  0  0  0  0  0  0  0  0  0  0  0
   10.2898   -0.6228   -0.3659 O   0  0  0  0  0  0  0  0  0  0  0  0
    8.0111    3.5130    0.1652 O   0  0  0  0  0  0  0  0  0  0  0  0
   -1.7091   -2.0352   -2.0739 O   0  0  0  0  0  0  0  0  0  0  0  0
  -10.6246    2.9362    0.6200 O   0  0  0  0  0  0  0  0  0  0  0  0
   -6.7363    2.4026   -1.5994 H   0  0  0  0  0  0  0  0  0  0  0  0
   -8.8473    3.5904   -1.1859 H   0  0  0  0  0  0  0  0  0  0  0  0
   -9.8094    0.8223    1.9297 H   0  0  0  0  0  0  0  0  0  0  0  0
   -7.6989   -0.3714    1.5309 H   0  0  0  0  0  0  0  0  0  0  0  0
   -5.9819    0.4314   -2.4065 H   0  0  0  0  0  0  0  0  0  0  0  0
   -3.6437   -1.1752    2.7107 H   0  0  0  0  0  0  0  0  0  0  0  0
   -0.7450   -1.8330    3.0110 H   0  0  0  0  0  0  0  0  0  0  0  0
    2.0551   -3.9172   -0.1078 H   0  0  0  0  0  0  0  0  0  0  0  0
    4.1348   -2.6089   -0.1300 H   0  0  0  0  0  0  0  0  0  0  0  0
    1.8571    0.9969    0.3531 H   0  0  0  0  0  0  0  0  0  0  0  0
   -0.2155   -0.3228    0.3685 H   0  0  0  0  0  0  0  0  0  0  0  0
    3.3382    1.9017    0.3343 H   0  0  0  0  0  0  0  0  0  0  0  0
   10.1057    1.9713   -0.1158 H   0  0  0  0  0  0  0  0  0  0  0  0
    7.9106   -1.6938   -0.3028 H   0  0  0  0  0  0  0  0  0  0  0  0
   10.6858   -0.9026    0.4708 H   0  0  0  0  0  0  0  0  0  0  0  0
    8.0782    3.8250    1.0780 H   0  0  0  0  0  0  0  0  0  0  0  0
   -1.1247   -1.3343   -2.3939 H   0  0  0  0  0  0  0  0  0  0  0  0
  -11.3683    2.6064    0.0973 H   0  0  0  0  0  0  0  0  0  0  0  0
  1  2  2  0  0  0  0
  2  3  1  0  0  0  0
  3  4  2  0  0  0  0
  4  5  1  0  0  0  0
  5  6  2  0  0  0  0
  1  6  1  0  0  0  0
  6  7  1  0  0  0  0
  7  8  2  0  0  0  0
  8  9  1  0  0  0  0
  9 10  2  0  0  0  0
  9 11  1  0  0  0  0
 11 12  2  0  0  0  0
 12 13  1  0  0  0  0
 13 14  2  0  0  0  0
 14 15  1  0  0  0  0
 15 16  2  0  0  0  0
 11 16  1  0  0  0  0
 16 17  1  0  0  0  0
  7 17  1  0  0  0  0
 14 18  1  0  0  0  0
 13 19  1  0  0  0  0
 19 20  1  0  0  0  0
 20 21  2  0  0  0  0
 21 22  1  0  0  0  0
 22 23  2  0  0  0  0
 23 24  1  0  0  0  0
 24 25  2  0  0  0  0
 20 25  1  0  0  0  0
 23 26  1  0  0  0  0
 26 27  2  0  0  0  0
 27 28  1  0  0  0  0
 28 29  2  0  0  0  0
 28 30  1  0  0  0  0
 30 31  2  0  0  0  0
 31 32  1  0  0  0  0
 32 33  2  0  0  0  0
 33 34  1  0  0  0  0
 34 35  2  0  0  0  0
 30 35  1  0  0  0  0
 35 36  1  0  0  0  0
 26 36  1  0  0  0  0
 33 37  1  0  0  0  0
 31 38  1  0  0  0  0
 12 39  1  0  0  0  0
  3 40  1  0  0  0  0
  1 41  1  0  0  0  0
  2 42  1  0  0  0  0
  4 43  1  0  0  0  0
  5 44  1  0  0  0  0
  8 45  1  0  0  0  0
 15 46  1  0  0  0  0
 18 47  1  0  0  0  0
 21 48  1  0  0  0  0
 22 49  1  0  0  0  0
 24 50  1  0  0  0  0
 25 51  1  0  0  0  0
 27 52  1  0  0  0  0
 32 53  1  0  0  0  0
 34 54  1  0  0  0  0
 37 55  1  0  0  0  0
 38 56  1  0  0  0  0
 39 57  1  0  0  0  0
 40 58  1  0  0  0  0
M  END
$$$$
