C19H20O4
APtclcactv06281816473D 0   0.00000     0.00000
 
 43 44  0  0  0  0  0  0  0  0999 V2000
   -6.1205   -1.7465    0.3613 C   0  0  0  0  0  0  0  0  0  0  0  0
   -5.8602   -0.8081   -0.7888 C   0  0  0  0  0  0  0  0  0  0  0  0
   -5.0758    0.2281   -0.6241 C   0  0  0  0  0  0  0  0  0  0  0  0
   -4.4337    0.4817    0.7154 C   0  0  0  0  0  0  0  0  0  0  0  0
   -2.9402    0.5881    0.5445 C   0  0  0  0  0  0  0  0  0  0  0  0
   -2.3593    1.8227    0.2916 C   0  0  0  0  0  0  0  0  0  0  0  0
   -0.9876    1.9257    0.1338 C   0  0  0  0  0  0  0  0  0  0  0  0
   -0.1882    0.7840    0.2296 C   0  0  0  0  0  0  0  0  0  0  0  0
   -0.7778   -0.4565    0.4843 C   0  0  0  0  0  0  0  0  0  0  0  0
   -2.1499   -0.5480    0.6462 C   0  0  0  0  0  0  0  0  0  0  0  0
   -2.7247   -1.7543    0.8945 O   0  0  0  0  0  0  0  0  0  0  0  0
    1.2723    0.8880    0.0620 C   0  0  0  0  0  0  0  0  0  0  0  0
    2.0389   -0.2113    0.1545 C   0  0  0  0  0  0  0  0  0  0  0  0
    3.4980   -0.1074   -0.0130 C   0  0  0  0  0  0  0  0  0  0  0  0
    4.3011   -1.2534    0.0831 C   0  0  0  0  0  0  0  0  0  0  0  0
    5.6717   -1.1472   -0.0755 C   0  0  0  0  0  0  0  0  0  0  0  0
    6.2480    0.0891   -0.3286 C   0  0  0  0  0  0  0  0  0  0  0  0
    5.4541    1.2261   -0.4242 C   0  0  0  0  0  0  0  0  0  0  0  0
    4.0879    1.1325   -0.2740 C   0  0  0  0  0  0  0  0  0  0  0  0
    7.5939    0.1890   -0.4832 O   0  0  0  0  0  0  0  0  0  0  0  0
    3.7357   -2.4629    0.3313 O   0  0  0  0  0  0  0  0  0  0  0  0
   -3.1381    2.9325    0.1982 O   0  0  0  0  0  0  0  0  0  0  0  0
   -6.5023   -1.0617   -2.1284 C   0  0  0  0  0  0  0  0  0  0  0  0
   -6.5800   -1.1962    1.1823 H   0  0  0  0  0  0  0  0  0  0  0  0
   -6.7913   -2.5419    0.0366 H   0  0  0  0  0  0  0  0  0  0  0  0
   -5.1784   -2.1801    0.6968 H   0  0  0  0  0  0  0  0  0  0  0  0
   -4.8893    0.9006   -1.4484 H   0  0  0  0  0  0  0  0  0  0  0  0
   -4.8188    1.4122    1.1326 H   0  0  0  0  0  0  0  0  0  0  0  0
   -4.6644   -0.3422    1.3907 H   0  0  0  0  0  0  0  0  0  0  0  0
   -0.5364    2.8869   -0.0633 H   0  0  0  0  0  0  0  0  0  0  0  0
   -0.1641   -1.3420    0.5589 H   0  0  0  0  0  0  0  0  0  0  0  0
   -2.7976   -1.9692    1.8345 H   0  0  0  0  0  0  0  0  0  0  0  0
    1.7262    1.8479   -0.1353 H   0  0  0  0  0  0  0  0  0  0  0  0
    1.5849   -1.1712    0.3517 H   0  0  0  0  0  0  0  0  0  0  0  0
    6.2932   -2.0274   -0.0019 H   0  0  0  0  0  0  0  0  0  0  0  0
    5.9094    2.1853   -0.6214 H   0  0  0  0  0  0  0  0  0  0  0  0
    3.4741    2.0180   -0.3488 H   0  0  0  0  0  0  0  0  0  0  0  0
    7.8940    0.0820   -1.3962 H   0  0  0  0  0  0  0  0  0  0  0  0
    3.4817   -2.9492   -0.4650 H   0  0  0  0  0  0  0  0  0  0  0  0
   -3.2741    3.3895    1.0395 H   0  0  0  0  0  0  0  0  0  0  0  0
   -7.4664   -0.5548   -2.1710 H   0  0  0  0  0  0  0  0  0  0  0  0
   -5.8561   -0.6805   -2.9191 H   0  0  0  0  0  0  0  0  0  0  0  0
   -6.6490   -2.1332   -2.2640 H   0  0  0  0  0  0  0  0  0  0  0  0
  1  2  1  0  0  0  0
  2  3  2  0  0  0  0
  3  4  1  0  0  0  0
  4  5  1  0  0  0  0
  5  6  2  0  0  0  0
  6  7  1  0  0  0  0
  7  8  2  0  0  0  0
  8  9  1  0  0  0  0
  9 10  2  0  0  0  0
  5 10  1  0  0  0  0
 10 11  1  0  0  0  0
  8 12  1  0  0  0  0
 12 13  2  0  0  0  0
 13 14  1  0  0  0  0
 14 15  2  0  0  0  0
 15 16  1  0  0  0  0
 16 17  2  0  0  0  0
 17 18  1  0  0  0  0
 18 19  2  0  0  0  0
 14 19  1  0  0  0  0
 17 20  1  0  0  0  0
 15 21  1  0  0  0  0
  6 22  1  0  0  0  0
  2 23  1  0  0  0  0
  1 24  1  0  0  0  0
  1 25  1  0  0  0  0
  1 26  1  0  0  0  0
  3 27  1  0  0  0  0
  4 28  1  0  0  0  0
  4 29  1  0  0  0  0
  7 30  1  0  0  0  0
  9 31  1  0  0  0  0
 11 32  1  0  0  0  0
 12 33  1  0  0  0  0
 13 34  1  0  0  0  0
 16 35  1  0  0  0  0
 18 36  1  0  0  0  0
 19 37  1  0  0  0  0
 20 38  1  0  0  0  0
 21 39  1  0  0  0  0
 22 40  1  0  0  0  0
 23 41  1  0  0  0  0
 23 42  1  0  0  0  0
 23 43  1  0  0  0  0
M  END
$$$$
