C13H8O4
APtclcactv06281816463D 0   0.00000     0.00000
 
 25 27  0  0  0  0  0  0  0  0999 V2000
    3.6809   -1.3226   -0.2259 C   0  0  0  0  0  0  0  0  0  0  0  0
    2.4540   -1.9255   -0.0388 C   0  0  0  0  0  0  0  0  0  0  0  0
    1.3084   -1.1517    0.1117 C   0  0  0  0  0  0  0  0  0  0  0  0
    1.4222    0.2474    0.0620 C   0  0  0  0  0  0  0  0  0  0  0  0
    2.6714    0.8512   -0.1208 C   0  0  0  0  0  0  0  0  0  0  0  0
    3.7967    0.0563   -0.2656 C   0  0  0  0  0  0  0  0  0  0  0  0
    2.7794    2.2032   -0.1562 O   0  0  0  0  0  0  0  0  0  0  0  0
    0.1970    1.0581    0.1992 C   0  0  0  0  0  0  0  0  0  0  0  0
    0.2350    2.2603    0.3875 O   0  0  0  0  0  0  0  0  0  0  0  0
   -1.0803    0.3195    0.0932 C   0  0  0  0  0  0  0  0  0  0  0  0
   -1.0483   -1.0823    0.1502 C   0  0  0  0  0  0  0  0  0  0  0  0
    0.1149   -1.7464    0.3086 O   0  0  0  0  0  0  0  0  0  0  0  0
   -2.2425   -1.7891    0.0438 C   0  0  0  0  0  0  0  0  0  0  0  0
   -3.4347   -1.1161   -0.1103 C   0  0  0  0  0  0  0  0  0  0  0  0
   -3.4648    0.2740   -0.1623 C   0  0  0  0  0  0  0  0  0  0  0  0
   -2.2894    0.9950   -0.0606 C   0  0  0  0  0  0  0  0  0  0  0  0
   -4.6499    0.9233   -0.3131 O   0  0  0  0  0  0  0  0  0  0  0  0
    4.5635   -1.9347   -0.3386 H   0  0  0  0  0  0  0  0  0  0  0  0
    2.3830   -3.0027   -0.0094 H   0  0  0  0  0  0  0  0  0  0  0  0
    4.7649    0.5126   -0.4092 H   0  0  0  0  0  0  0  0  0  0  0  0
    2.9323    2.6083    0.7084 H   0  0  0  0  0  0  0  0  0  0  0  0
   -2.2345   -2.8684    0.0818 H   0  0  0  0  0  0  0  0  0  0  0  0
   -4.3561   -1.6736   -0.1919 H   0  0  0  0  0  0  0  0  0  0  0  0
   -2.3082    2.0741   -0.1006 H   0  0  0  0  0  0  0  0  0  0  0  0
   -5.0875    1.1419    0.5211 H   0  0  0  0  0  0  0  0  0  0  0  0
  1  2  2  0  0  0  0
  2  3  1  0  0  0  0
  3  4  2  0  0  0  0
  4  5  1  0  0  0  0
  5  6  2  0  0  0  0
  1  6  1  0  0  0  0
  5  7  1  0  0  0  0
  4  8  1  0  0  0  0
  8  9  2  0  0  0  0
  8 10  1  0  0  0  0
 10 11  2  0  0  0  0
 11 12  1  0  0  0  0
  3 12  1  0  0  0  0
 11 13  1  0  0  0  0
 13 14  2  0  0  0  0
 14 15  1  0  0  0  0
 15 16  2  0  0  0  0
 10 16  1  0  0  0  0
 15 17  1  0  0  0  0
  1 18  1  0  0  0  0
  2 19  1  0  0  0  0
  6 20  1  0  0  0  0
  7 21  1  0  0  0  0
 13 22  1  0  0  0  0
 14 23  1  0  0  0  0
 16 24  1  0  0  0  0
 17 25  1  0  0  0  0
M  END
$$$$
