C21H24O5
APtclcactv06281816473D 0   0.00000     0.00000
 
 50 51  0  0  0  0  0  0  0  0999 V2000
    7.7701    2.3604    0.1524 C   0  0  0  0  0  0  0  0  0  0  0  0
    8.0312    1.0081    0.5332 O   0  0  0  0  0  0  0  0  0  0  0  0
    7.0393    0.1032    0.3167 C   0  0  0  0  0  0  0  0  0  0  0  0
    7.2252   -1.2315    0.6635 C   0  0  0  0  0  0  0  0  0  0  0  0
    6.2115   -2.1497    0.4409 C   0  0  0  0  0  0  0  0  0  0  0  0
    5.0188   -1.7389   -0.1246 C   0  0  0  0  0  0  0  0  0  0  0  0
    4.8343   -0.4129   -0.4696 C   0  0  0  0  0  0  0  0  0  0  0  0
    5.8393    0.5094   -0.2445 C   0  0  0  0  0  0  0  0  0  0  0  0
    3.5323    0.0294   -1.0863 C   0  0  0  0  0  0  0  0  0  0  0  0
    2.5604    0.4471    0.0191 C   0  0  0  0  0  0  0  0  0  0  0  0
    1.2584    0.8894   -0.5975 C   0  0  0  0  0  0  0  0  0  0  0  0
    0.1126    0.3205   -0.2171 C   0  0  0  0  0  0  0  0  0  0  0  0
   -1.1510    0.7498   -0.8155 C   0  0  0  0  0  0  0  0  0  0  0  0
   -1.1576    1.6230   -1.6579 O   0  0  0  0  0  0  0  0  0  0  0  0
   -2.4448    0.1075   -0.3859 C   0  0  0  0  0  0  0  0  0  0  0  0
   -3.6067    0.7339   -1.1595 C   0  0  0  0  0  0  0  0  0  0  0  0
   -4.9005    0.0916   -0.7299 C   0  0  0  0  0  0  0  0  0  0  0  0
   -5.6181    0.6244    0.3247 C   0  0  0  0  0  0  0  0  0  0  0  0
   -6.8079    0.0350    0.7210 C   0  0  0  0  0  0  0  0  0  0  0  0
   -7.2776   -1.0931    0.0552 C   0  0  0  0  0  0  0  0  0  0  0  0
   -6.5534   -1.6220   -1.0011 C   0  0  0  0  0  0  0  0  0  0  0  0
   -5.3700   -1.0258   -1.3950 C   0  0  0  0  0  0  0  0  0  0  0  0
   -8.4446   -1.6753    0.4407 O   0  0  0  0  0  0  0  0  0  0  0  0
   -7.5149    0.5576    1.7586 O   0  0  0  0  0  0  0  0  0  0  0  0
   -6.9720    1.7161    2.3953 C   0  0  0  0  0  0  0  0  0  0  0  0
    8.3993   -1.6341    1.2194 O   0  0  0  0  0  0  0  0  0  0  0  0
    7.5629    2.4032   -0.9169 H   0  0  0  0  0  0  0  0  0  0  0  0
    6.9077    2.7334    0.7048 H   0  0  0  0  0  0  0  0  0  0  0  0
    8.6407    2.9761    0.3787 H   0  0  0  0  0  0  0  0  0  0  0  0
    6.3534   -3.1862    0.7089 H   0  0  0  0  0  0  0  0  0  0  0  0
    4.2295   -2.4555   -0.2976 H   0  0  0  0  0  0  0  0  0  0  0  0
    5.6926    1.5446   -0.5149 H   0  0  0  0  0  0  0  0  0  0  0  0
    3.7133    0.8752   -1.7496 H   0  0  0  0  0  0  0  0  0  0  0  0
    3.1021   -0.7940   -1.6564 H   0  0  0  0  0  0  0  0  0  0  0  0
    2.3795   -0.3987    0.6825 H   0  0  0  0  0  0  0  0  0  0  0  0
    2.9907    1.2705    0.5892 H   0  0  0  0  0  0  0  0  0  0  0  0
    1.2525    1.6666   -1.3473 H   0  0  0  0  0  0  0  0  0  0  0  0
    0.1185   -0.4567    0.5327 H   0  0  0  0  0  0  0  0  0  0  0  0
   -2.4056   -0.9621   -0.5924 H   0  0  0  0  0  0  0  0  0  0  0  0
   -2.5921    0.2662    0.6824 H   0  0  0  0  0  0  0  0  0  0  0  0
   -3.6459    1.8035   -0.9531 H   0  0  0  0  0  0  0  0  0  0  0  0
   -3.4595    0.5752   -2.2278 H   0  0  0  0  0  0  0  0  0  0  0  0
   -5.2513    1.4998    0.8400 H   0  0  0  0  0  0  0  0  0  0  0  0
   -6.9157   -2.4975   -1.5194 H   0  0  0  0  0  0  0  0  0  0  0  0
   -4.8065   -1.4391   -2.2184 H   0  0  0  0  0  0  0  0  0  0  0  0
   -9.2257   -1.3270   -0.0104 H   0  0  0  0  0  0  0  0  0  0  0  0
   -5.9880    1.4804    2.8006 H   0  0  0  0  0  0  0  0  0  0  0  0
   -6.8815    2.5221    1.6671 H   0  0  0  0  0  0  0  0  0  0  0  0
   -7.6325    2.0294    3.2038 H   0  0  0  0  0  0  0  0  0  0  0  0
    8.4140   -1.5866    2.1851 H   0  0  0  0  0  0  0  0  0  0  0  0
  1  2  1  0  0  0  0
  2  3  1  0  0  0  0
  3  4  2  0  0  0  0
  4  5  1  0  0  0  0
  5  6  2  0  0  0  0
  6  7  1  0  0  0  0
  7  8  2  0  0  0  0
  3  8  1  0  0  0  0
  7  9  1  0  0  0  0
  9 10  1  0  0  0  0
 10 11  1  0  0  0  0
 11 12  2  0  0  0  0
 12 13  1  0  0  0  0
 13 14  2  0  0  0  0
 13 15  1  0  0  0  0
 15 16  1  0  0  0  0
 16 17  1  0  0  0  0
 17 18  2  0  0  0  0
 18 19  1  0  0  0  0
 19 20  2  0  0  0  0
 20 21  1  0  0  0  0
 21 22  2  0  0  0  0
 17 22  1  0  0  0  0
 20 23  1  0  0  0  0
 19 24  1  0  0  0  0
 24 25  1  0  0  0  0
  4 26  1  0  0  0  0
  1 27  1  0  0  0  0
  1 28  1  0  0  0  0
  1 29  1  0  0  0  0
  5 30  1  0  0  0  0
  6 31  1  0  0  0  0
  8 32  1  0  0  0  0
  9 33  1  0  0  0  0
  9 34  1  0  0  0  0
 10 35  1  0  0  0  0
 10 36  1  0  0  0  0
 11 37  1  0  0  0  0
 12 38  1  0  0  0  0
 15 39  1  0  0  0  0
 15 40  1  0  0  0  0
 16 41  1  0  0  0  0
 16 42  1  0  0  0  0
 18 43  1  0  0  0  0
 21 44  1  0  0  0  0
 22 45  1  0  0  0  0
 23 46  1  0  0  0  0
 25 47  1  0  0  0  0
 25 48  1  0  0  0  0
 25 49  1  0  0  0  0
 26 50  1  0  0  0  0
M  END
$$$$
