C15H10O5
APtclcactv06281816453D 0   0.00000     0.00000
 
 30 32  0  0  0  0  0  0  0  0999 V2000
   -5.1991   -0.9074   -0.0346 C   0  0  0  0  0  0  0  0  0  0  0  0
   -4.7069    0.0938   -0.8533 C   0  0  0  0  0  0  0  0  0  0  0  0
   -3.3609    0.3948   -0.8470 C   0  0  0  0  0  0  0  0  0  0  0  0
   -2.4940   -0.3138   -0.0116 C   0  0  0  0  0  0  0  0  0  0  0  0
   -2.9980   -1.3232    0.8121 C   0  0  0  0  0  0  0  0  0  0  0  0
   -4.3462   -1.6134    0.7955 C   0  0  0  0  0  0  0  0  0  0  0  0
   -1.0524    0.0023    0.0003 C   0  0  0  0  0  0  0  0  0  0  0  0
   -0.6679    1.3051    0.0906 C   0  0  0  0  0  0  0  0  0  0  0  0
    0.7161    1.6258    0.1038 C   0  0  0  0  0  0  0  0  0  0  0  0
    1.0985    2.7820    0.1841 O   0  0  0  0  0  0  0  0  0  0  0  0
    1.6702    0.5091    0.0174 C   0  0  0  0  0  0  0  0  0  0  0  0
    3.0533    0.7324    0.0242 C   0  0  0  0  0  0  0  0  0  0  0  0
    3.9171   -0.3439   -0.0582 C   0  0  0  0  0  0  0  0  0  0  0  0
    3.4150   -1.6377   -0.1476 C   0  0  0  0  0  0  0  0  0  0  0  0
    2.0477   -1.8663   -0.1549 C   0  0  0  0  0  0  0  0  0  0  0  0
    1.1652   -0.8003   -0.0726 C   0  0  0  0  0  0  0  0  0  0  0  0
   -0.1682   -1.0072   -0.0729 O   0  0  0  0  0  0  0  0  0  0  0  0
    4.2723   -2.6871   -0.2290 O   0  0  0  0  0  0  0  0  0  0  0  0
    3.5415    1.9957    0.1106 O   0  0  0  0  0  0  0  0  0  0  0  0
   -1.6013    2.2920    0.1672 O   0  0  0  0  0  0  0  0  0  0  0  0
   -6.2547   -1.1359   -0.0403 H   0  0  0  0  0  0  0  0  0  0  0  0
   -5.3782    0.6405   -1.4989 H   0  0  0  0  0  0  0  0  0  0  0  0
   -2.9780    1.1762   -1.4867 H   0  0  0  0  0  0  0  0  0  0  0  0
   -2.3334   -1.8752    1.4602 H   0  0  0  0  0  0  0  0  0  0  0  0
   -4.7373   -2.3936    1.4318 H   0  0  0  0  0  0  0  0  0  0  0  0
    4.9845   -0.1795   -0.0536 H   0  0  0  0  0  0  0  0  0  0  0  0
    1.6698   -2.8756   -0.2250 H   0  0  0  0  0  0  0  0  0  0  0  0
    4.5268   -3.0545    0.6285 H   0  0  0  0  0  0  0  0  0  0  0  0
    3.6888    2.2993    1.0168 H   0  0  0  0  0  0  0  0  0  0  0  0
   -1.2285    3.1822    0.2282 H   0  0  0  0  0  0  0  0  0  0  0  0
  1  2  2  0  0  0  0
  2  3  1  0  0  0  0
  3  4  2  0  0  0  0
  4  5  1  0  0  0  0
  5  6  2  0  0  0  0
  1  6  1  0  0  0  0
  4  7  1  0  0  0  0
  7  8  2  0  0  0  0
  8  9  1  0  0  0  0
  9 10  2  0  0  0  0
  9 11  1  0  0  0  0
 11 12  2  0  0  0  0
 12 13  1  0  0  0  0
 13 14  2  0  0  0  0
 14 15  1  0  0  0  0
 15 16  2  0  0  0  0
 11 16  1  0  0  0  0
 16 17  1  0  0  0  0
  7 17  1  0  0  0  0
 14 18  1  0  0  0  0
 12 19  1  0  0  0  0
  8 20  1  0  0  0  0
  1 21  1  0  0  0  0
  2 22  1  0  0  0  0
  3 23  1  0  0  0  0
  5 24  1  0  0  0  0
  6 25  1  0  0  0  0
 13 26  1  0  0  0  0
 15 27  1  0  0  0  0
 18 28  1  0  0  0  0
 19 29  1  0  0  0  0
 20 30  1  0  0  0  0
M  END
$$$$
