C16H12O8
APtclcactv06291800253D 0   0.00000     0.00000
 
 36 38  0  0  0  0  0  0  0  0999 V2000
    5.9650    0.0370   -1.2131 C   0  0  0  0  0  0  0  0  0  0  0  0
    5.3400   -0.1905    0.0517 O   0  0  0  0  0  0  0  0  0  0  0  0
    3.9915   -0.3783    0.0500 C   0  0  0  0  0  0  0  0  0  0  0  0
    3.4680   -1.6631   -0.0829 C   0  0  0  0  0  0  0  0  0  0  0  0
    2.0977   -1.8698   -0.0868 C   0  0  0  0  0  0  0  0  0  0  0  0
    1.2320   -0.7946    0.0420 C   0  0  0  0  0  0  0  0  0  0  0  0
    1.7562    0.5035    0.1767 C   0  0  0  0  0  0  0  0  0  0  0  0
    3.1416    0.7074    0.1859 C   0  0  0  0  0  0  0  0  0  0  0  0
    3.6481    1.9610    0.3161 O   0  0  0  0  0  0  0  0  0  0  0  0
    0.8187    1.6298    0.3120 C   0  0  0  0  0  0  0  0  0  0  0  0
    1.2187    2.7770    0.4315 O   0  0  0  0  0  0  0  0  0  0  0  0
   -0.5680    1.3307    0.2976 C   0  0  0  0  0  0  0  0  0  0  0  0
   -0.9733    0.0368    0.1618 C   0  0  0  0  0  0  0  0  0  0  0  0
   -0.1051   -0.9816    0.0389 O   0  0  0  0  0  0  0  0  0  0  0  0
   -2.4183   -0.2568    0.1488 C   0  0  0  0  0  0  0  0  0  0  0  0
   -3.2790    0.4964   -0.6547 C   0  0  0  0  0  0  0  0  0  0  0  0
   -4.6322    0.2166   -0.6635 C   0  0  0  0  0  0  0  0  0  0  0  0
   -5.1360   -0.8141    0.1278 C   0  0  0  0  0  0  0  0  0  0  0  0
   -4.2816   -1.5618    0.9261 C   0  0  0  0  0  0  0  0  0  0  0  0
   -2.9298   -1.2927    0.9354 C   0  0  0  0  0  0  0  0  0  0  0  0
   -6.4670   -1.0873    0.1181 O   0  0  0  0  0  0  0  0  0  0  0  0
   -5.4725    0.9475   -1.4440 O   0  0  0  0  0  0  0  0  0  0  0  0
   -1.4861    2.3279    0.4189 O   0  0  0  0  0  0  0  0  0  0  0  0
    4.3087   -2.7224   -0.2101 O   0  0  0  0  0  0  0  0  0  0  0  0
    7.0372    0.1706   -1.0697 H   0  0  0  0  0  0  0  0  0  0  0  0
    5.7894   -0.8192   -1.8644 H   0  0  0  0  0  0  0  0  0  0  0  0
    5.5450    0.9332   -1.6699 H   0  0  0  0  0  0  0  0  0  0  0  0
    1.7036   -2.8700   -0.1907 H   0  0  0  0  0  0  0  0  0  0  0  0
    3.8028    2.2296    1.2321 H   0  0  0  0  0  0  0  0  0  0  0  0
   -2.8875    1.2953   -1.2669 H   0  0  0  0  0  0  0  0  0  0  0  0
   -4.6764   -2.3592    1.5383 H   0  0  0  0  0  0  0  0  0  0  0  0
   -2.2673   -1.8762    1.5575 H   0  0  0  0  0  0  0  0  0  0  0  0
   -6.7305   -1.7358   -0.5489 H   0  0  0  0  0  0  0  0  0  0  0  0
   -5.5935    0.5895   -2.3342 H   0  0  0  0  0  0  0  0  0  0  0  0
   -1.0995    3.2095    0.5102 H   0  0  0  0  0  0  0  0  0  0  0  0
    4.5643   -3.1249    0.6312 H   0  0  0  0  0  0  0  0  0  0  0  0
  1  2  1  0  0  0  0
  2  3  1  0  0  0  0
  3  4  2  0  0  0  0
  4  5  1  0  0  0  0
  5  6  2  0  0  0  0
  6  7  1  0  0  0  0
  7  8  2  0  0  0  0
  3  8  1  0  0  0  0
  8  9  1  0  0  0  0
  7 10  1  0  0  0  0
 10 11  2  0  0  0  0
 10 12  1  0  0  0  0
 12 13  2  0  0  0  0
 13 14  1  0  0  0  0
  6 14  1  0  0  0  0
 13 15  1  0  0  0  0
 15 16  2  0  0  0  0
 16 17  1  0  0  0  0
 17 18  2  0  0  0  0
 18 19  1  0  0  0  0
 19 20  2  0  0  0  0
 15 20  1  0  0  0  0
 18 21  1  0  0  0  0
 17 22  1  0  0  0  0
 12 23  1  0  0  0  0
  4 24  1  0  0  0  0
  1 25  1  0  0  0  0
  1 26  1  0  0  0  0
  1 27  1  0  0  0  0
  5 28  1  0  0  0  0
  9 29  1  0  0  0  0
 16 30  1  0  0  0  0
 19 31  1  0  0  0  0
 20 32  1  0  0  0  0
 21 33  1  0  0  0  0
 22 34  1  0  0  0  0
 23 35  1  0  0  0  0
 24 36  1  0  0  0  0
M  END
$$$$
