C15H10O8
APtclcactv06281809233D 0   0.00000     0.00000
 
 33 35  0  0  0  0  0  0  0  0999 V2000
   -2.6308    1.3115   -0.9380 C   0  0  0  0  0  0  0  0  0  0  0  0
   -3.9800    1.5925   -0.9615 C   0  0  0  0  0  0  0  0  0  0  0  0
   -4.8609    0.8477   -0.1899 C   0  0  0  0  0  0  0  0  0  0  0  0
   -4.3856   -0.1877    0.6129 C   0  0  0  0  0  0  0  0  0  0  0  0
   -3.0344   -0.4753    0.6417 C   0  0  0  0  0  0  0  0  0  0  0  0
   -2.1470    0.2743   -0.1357 C   0  0  0  0  0  0  0  0  0  0  0  0
   -0.7040   -0.0281   -0.1090 C   0  0  0  0  0  0  0  0  0  0  0  0
   -0.3028   -1.3241   -0.2363 C   0  0  0  0  0  0  0  0  0  0  0  0
    1.0819   -1.6317   -0.2126 C   0  0  0  0  0  0  0  0  0  0  0  0
    1.4782   -2.7810   -0.3242 O   0  0  0  0  0  0  0  0  0  0  0  0
    2.0221   -0.5114   -0.0489 C   0  0  0  0  0  0  0  0  0  0  0  0
    3.4058   -0.7239   -0.0158 C   0  0  0  0  0  0  0  0  0  0  0  0
    4.2583    0.3572    0.1390 C   0  0  0  0  0  0  0  0  0  0  0  0
    3.7388    1.6447    0.2609 C   0  0  0  0  0  0  0  0  0  0  0  0
    2.3702    1.8594    0.2292 C   0  0  0  0  0  0  0  0  0  0  0  0
    1.5021    0.7895    0.0741 C   0  0  0  0  0  0  0  0  0  0  0  0
    0.1668    0.9854    0.0346 O   0  0  0  0  0  0  0  0  0  0  0  0
    4.5820    2.6989    0.4128 O   0  0  0  0  0  0  0  0  0  0  0  0
    5.6053    0.1616    0.1724 O   0  0  0  0  0  0  0  0  0  0  0  0
    3.9083   -1.9804   -0.1341 O   0  0  0  0  0  0  0  0  0  0  0  0
   -1.2232   -2.3156   -0.3845 O   0  0  0  0  0  0  0  0  0  0  0  0
   -5.2517   -0.9148    1.3684 O   0  0  0  0  0  0  0  0  0  0  0  0
   -6.1900    1.1289   -0.2168 O   0  0  0  0  0  0  0  0  0  0  0  0
   -1.9480    1.8897   -1.5429 H   0  0  0  0  0  0  0  0  0  0  0  0
   -4.3525    2.3944   -1.5817 H   0  0  0  0  0  0  0  0  0  0  0  0
   -2.6648   -1.2772    1.2637 H   0  0  0  0  0  0  0  0  0  0  0  0
    1.9792    2.8615    0.3254 H   0  0  0  0  0  0  0  0  0  0  0  0
    4.8620    3.1017   -0.4205 H   0  0  0  0  0  0  0  0  0  0  0  0
    6.0303    0.2023   -0.6952 H   0  0  0  0  0  0  0  0  0  0  0  0
    4.0897   -2.2472   -1.0457 H   0  0  0  0  0  0  0  0  0  0  0  0
   -0.8395   -3.1994   -0.4667 H   0  0  0  0  0  0  0  0  0  0  0  0
   -5.6091   -1.6925    0.9183 H   0  0  0  0  0  0  0  0  0  0  0  0
   -6.6812    0.6432   -0.8935 H   0  0  0  0  0  0  0  0  0  0  0  0
  1  2  2  0  0  0  0
  2  3  1  0  0  0  0
  3  4  2  0  0  0  0
  4  5  1  0  0  0  0
  5  6  2  0  0  0  0
  1  6  1  0  0  0  0
  6  7  1  0  0  0  0
  7  8  2  0  0  0  0
  8  9  1  0  0  0  0
  9 10  2  0  0  0  0
  9 11  1  0  0  0  0
 11 12  2  0  0  0  0
 12 13  1  0  0  0  0
 13 14  2  0  0  0  0
 14 15  1  0  0  0  0
 15 16  2  0  0  0  0
 11 16  1  0  0  0  0
 16 17  1  0  0  0  0
  7 17  1  0  0  0  0
 14 18  1  0  0  0  0
 13 19  1  0  0  0  0
 12 20  1  0  0  0  0
  8 21  1  0  0  0  0
  4 22  1  0  0  0  0
  3 23  1  0  0  0  0
  1 24  1  0  0  0  0
  2 25  1  0  0  0  0
  5 26  1  0  0  0  0
 15 27  1  0  0  0  0
 18 28  1  0  0  0  0
 19 29  1  0  0  0  0
 20 30  1  0  0  0  0
 21 31  1  0  0  0  0
 22 32  1  0  0  0  0
 23 33  1  0  0  0  0
M  END
$$$$
