C30H16O9
APtclcactv06281816473D 0   0.00000     0.00000
 
 55 62  0  0  0  0  0  0  0  0999 V2000
    3.2667    3.4247    1.4545 C   0  0  0  0  0  0  0  0  0  0  0  0
    1.8925    3.2275    0.8743 C   0  0  0  0  0  0  0  0  0  0  0  0
    1.0855    4.3477    0.7848 C   0  0  0  0  0  0  0  0  0  0  0  0
   -0.2345    4.2576    0.3603 C   0  0  0  0  0  0  0  0  0  0  0  0
   -0.7827    3.0026    0.0877 C   0  0  0  0  0  0  0  0  0  0  0  0
    0.0470    1.8642    0.1536 C   0  0  0  0  0  0  0  0  0  0  0  0
    1.4371    2.0048    0.3807 C   0  0  0  0  0  0  0  0  0  0  0  0
    2.2958    0.8594    0.0779 C   0  0  0  0  0  0  0  0  0  0  0  0
    1.7239   -0.4370    0.1470 C   0  0  0  0  0  0  0  0  0  0  0  0
    2.5496   -1.5768    0.2146 C   0  0  0  0  0  0  0  0  0  0  0  0
    3.9234   -1.4314    0.0013 C   0  0  0  0  0  0  0  0  0  0  0  0
    4.4205   -0.1837   -0.3636 C   0  0  0  0  0  0  0  0  0  0  0  0
    3.5969    0.9205   -0.4194 C   0  0  0  0  0  0  0  0  0  0  0  0
    4.1108    2.1232   -1.1735 C   0  0  0  0  0  0  0  0  0  0  0  0
    5.3523    1.7969   -1.8015 O   0  0  0  0  0  0  0  0  0  0  0  0
    4.7643   -2.4810    0.1507 O   0  0  0  0  0  0  0  0  0  0  0  0
    1.9453   -2.8975    0.4380 C   0  0  0  0  0  0  0  0  0  0  0  0
    2.6276   -3.8337    0.8056 O   0  0  0  0  0  0  0  0  0  0  0  0
    0.5107   -3.0753    0.1825 C   0  0  0  0  0  0  0  0  0  0  0  0
   -0.0564   -4.3507    0.0876 C   0  0  0  0  0  0  0  0  0  0  0  0
   -1.3979   -4.4863   -0.2448 C   0  0  0  0  0  0  0  0  0  0  0  0
   -2.1977   -3.3730   -0.4360 C   0  0  0  0  0  0  0  0  0  0  0  0
   -1.7079   -2.0887   -0.1502 C   0  0  0  0  0  0  0  0  0  0  0  0
   -0.3161   -1.9349    0.0433 C   0  0  0  0  0  0  0  0  0  0  0  0
    0.2739   -0.6004    0.0851 C   0  0  0  0  0  0  0  0  0  0  0  0
   -0.5485    0.5326    0.0575 C   0  0  0  0  0  0  0  0  0  0  0  0
   -1.9962    0.3737   -0.0315 C   0  0  0  0  0  0  0  0  0  0  0  0
   -2.5733   -0.9154   -0.0072 C   0  0  0  0  0  0  0  0  0  0  0  0
   -3.9645   -1.0107    0.1724 C   0  0  0  0  0  0  0  0  0  0  0  0
   -4.7679    0.1043    0.0080 C   0  0  0  0  0  0  0  0  0  0  0  0
   -4.2118    1.3615   -0.1859 C   0  0  0  0  0  0  0  0  0  0  0  0
   -2.8210    1.5163   -0.1581 C   0  0  0  0  0  0  0  0  0  0  0  0
   -2.2085    2.8466   -0.2282 C   0  0  0  0  0  0  0  0  0  0  0  0
   -2.8723    3.8142   -0.5548 O   0  0  0  0  0  0  0  0  0  0  0  0
   -5.0206    2.4277   -0.3970 O   0  0  0  0  0  0  0  0  0  0  0  0
   -4.5481   -2.1604    0.5912 O   0  0  0  0  0  0  0  0  0  0  0  0
   -3.4230   -3.5593   -0.9860 O   0  0  0  0  0  0  0  0  0  0  0  0
    0.6893   -5.4592    0.3133 O   0  0  0  0  0  0  0  0  0  0  0  0
   -0.9757    5.3816    0.2107 O   0  0  0  0  0  0  0  0  0  0  0  0
    3.2091    3.3962    2.5427 H   0  0  0  0  0  0  0  0  0  0  0  0
    3.9262    2.6306    1.1047 H   0  0  0  0  0  0  0  0  0  0  0  0
    3.6601    4.3902    1.1367 H   0  0  0  0  0  0  0  0  0  0  0  0
    1.4973    5.3104    1.0496 H   0  0  0  0  0  0  0  0  0  0  0  0
    5.4683   -0.0729   -0.5998 H   0  0  0  0  0  0  0  0  0  0  0  0
    3.3848    2.4133   -1.9330 H   0  0  0  0  0  0  0  0  0  0  0  0
    4.2610    2.9502   -0.4796 H   0  0  0  0  0  0  0  0  0  0  0  0
    5.7416    2.5248   -2.3051 H   0  0  0  0  0  0  0  0  0  0  0  0
    4.8987   -2.9954   -0.6571 H   0  0  0  0  0  0  0  0  0  0  0  0
   -1.8247   -5.4722   -0.3564 H   0  0  0  0  0  0  0  0  0  0  0  0
   -5.8424   -0.0057    0.0317 H   0  0  0  0  0  0  0  0  0  0  0  0
   -5.2871    2.8854    0.4120 H   0  0  0  0  0  0  0  0  0  0  0  0
   -4.6268   -2.2342    1.5521 H   0  0  0  0  0  0  0  0  0  0  0  0
   -3.4211   -3.5799   -1.9528 H   0  0  0  0  0  0  0  0  0  0  0  0
    0.6925   -5.7500    1.2355 H   0  0  0  0  0  0  0  0  0  0  0  0
   -0.9251    5.7715   -0.6727 H   0  0  0  0  0  0  0  0  0  0  0  0
  1  2  1  0  0  0  0
  2  3  2  0  0  0  0
  3  4  1  0  0  0  0
  4  5  2  0  0  0  0
  5  6  1  0  0  0  0
  6  7  2  0  0  0  0
  2  7  1  0  0  0  0
  7  8  1  0  0  0  0
  8  9  2  0  0  0  0
  9 10  1  0  0  0  0
 10 11  2  0  0  0  0
 11 12  1  0  0  0  0
 12 13  2  0  0  0  0
  8 13  1  0  0  0  0
 13 14  1  0  0  0  0
 14 15  1  0  0  0  0
 11 16  1  0  0  0  0
 10 17  1  0  0  0  0
 17 18  2  0  0  0  0
 17 19  1  0  0  0  0
 19 20  2  0  0  0  0
 20 21  1  0  0  0  0
 21 22  2  0  0  0  0
 22 23  1  0  0  0  0
 23 24  2  0  0  0  0
 19 24  1  0  0  0  0
 24 25  1  0  0  0  0
  9 25  1  0  0  0  0
 25 26  2  0  0  0  0
  6 26  1  0  0  0  0
 26 27  1  0  0  0  0
 27 28  2  0  0  0  0
 23 28  1  0  0  0  0
 28 29  1  0  0  0  0
 29 30  2  0  0  0  0
 30 31  1  0  0  0  0
 31 32  2  0  0  0  0
 27 32  1  0  0  0  0
 32 33  1  0  0  0  0
  5 33  1  0  0  0  0
 33 34  2  0  0  0  0
 31 35  1  0  0  0  0
 29 36  1  0  0  0  0
 22 37  1  0  0  0  0
 20 38  1  0  0  0  0
  4 39  1  0  0  0  0
  1 40  1  0  0  0  0
  1 41  1  0  0  0  0
  1 42  1  0  0  0  0
  3 43  1  0  0  0  0
 12 44  1  0  0  0  0
 14 45  1  0  0  0  0
 14 46  1  0  0  0  0
 15 47  1  0  0  0  0
 16 48  1  0  0  0  0
 21 49  1  0  0  0  0
 30 50  1  0  0  0  0
 35 51  1  0  0  0  0
 36 52  1  0  0  0  0
 37 53  1  0  0  0  0
 38 54  1  0  0  0  0
 39 55  1  0  0  0  0
M  END
$$$$
