C40H56O4
APtclcactv06281816443D 0   0.00000     0.00000
 
100101  0  0  0  0  0  0  0  0999 V2000
   -3.0346    1.7897   -0.3759 C   0  0  0  0  0  0  0  0  0  0  0  0
   -3.0100    0.2830   -0.3794 C   0  0  0  0  0  0  0  0  0  0  0  0
   -1.8047   -0.3869   -0.3807 C   0  0  0  0  0  0  0  0  0  0  0  0
   -0.6043    0.3326   -0.3788 C   0  0  0  0  0  0  0  0  0  0  0  0
    0.6010   -0.3372   -0.3801 C   0  0  0  0  0  0  0  0  0  0  0  0
    1.8013    0.3823   -0.3782 C   0  0  0  0  0  0  0  0  0  0  0  0
    3.0066   -0.2875   -0.3795 C   0  0  0  0  0  0  0  0  0  0  0  0
    3.0313   -1.7943   -0.3830 C   0  0  0  0  0  0  0  0  0  0  0  0
    4.2069    0.4319   -0.3775 C   0  0  0  0  0  0  0  0  0  0  0  0
    5.4122   -0.2379   -0.3788 C   0  0  0  0  0  0  0  0  0  0  0  0
    6.6125    0.4816   -0.3769 C   0  0  0  0  0  0  0  0  0  0  0  0
    7.8178   -0.1882   -0.3782 C   0  0  0  0  0  0  0  0  0  0  0  0
    7.8425   -1.6950   -0.3817 C   0  0  0  0  0  0  0  0  0  0  0  0
    9.0181    0.5312   -0.3763 C   0  0  0  0  0  0  0  0  0  0  0  0
   10.2234   -0.1386   -0.3776 C   0  0  0  0  0  0  0  0  0  0  0  0
   11.4237    0.5808   -0.3756 C   0  0  0  0  0  0  0  0  0  0  0  0
   11.4038    1.7967   -0.3728 O   0  0  0  0  0  0  0  0  0  0  0  0
   12.7410   -0.1512   -0.3771 C   0  0  0  0  0  0  0  0  0  0  0  0
   13.9013    0.8493   -0.5574 C   0  0  0  0  0  0  0  0  0  0  0  0
   14.3757    1.1451    0.8871 C   0  0  0  0  0  0  0  0  0  0  0  0
   14.2492   -0.2355    1.5779 C   0  0  0  0  0  0  0  0  0  0  0  0
   12.9622   -0.8409    0.9805 C   0  0  0  0  0  0  0  0  0  0  0  0
   11.7755   -0.5675    1.9068 C   0  0  0  0  0  0  0  0  0  0  0  0
   13.1356   -2.3478    0.7807 C   0  0  0  0  0  0  0  0  0  0  0  0
   15.7331    1.5918    0.8929 O   0  0  0  0  0  0  0  0  0  0  0  0
   12.7630   -1.1876   -1.5024 C   0  0  0  0  0  0  0  0  0  0  0  0
   -4.2103   -0.4365   -0.3813 C   0  0  0  0  0  0  0  0  0  0  0  0
   -5.4156    0.2333   -0.3800 C   0  0  0  0  0  0  0  0  0  0  0  0
   -6.6159   -0.4862   -0.3820 C   0  0  0  0  0  0  0  0  0  0  0  0
   -7.8212    0.1837   -0.3807 C   0  0  0  0  0  0  0  0  0  0  0  0
   -7.8459    1.6904   -0.3771 C   0  0  0  0  0  0  0  0  0  0  0  0
   -9.0215   -0.5358   -0.3826 C   0  0  0  0  0  0  0  0  0  0  0  0
  -10.2268    0.1340   -0.3813 C   0  0  0  0  0  0  0  0  0  0  0  0
  -11.4271   -0.5854   -0.3832 C   0  0  0  0  0  0  0  0  0  0  0  0
  -11.4072   -1.8013   -0.3861 O   0  0  0  0  0  0  0  0  0  0  0  0
  -12.7444    0.1466   -0.3818 C   0  0  0  0  0  0  0  0  0  0  0  0
  -13.9062   -0.8559   -0.5396 C   0  0  0  0  0  0  0  0  0  0  0  0
  -14.3677   -1.1342    0.9125 C   0  0  0  0  0  0  0  0  0  0  0  0
  -14.2352    0.2546    1.5853 C   0  0  0  0  0  0  0  0  0  0  0  0
  -12.9535    0.8527    0.9693 C   0  0  0  0  0  0  0  0  0  0  0  0
  -11.7586    0.5905    1.8882 C   0  0  0  0  0  0  0  0  0  0  0  0
  -13.1288    2.3571    0.7528 C   0  0  0  0  0  0  0  0  0  0  0  0
  -15.7249   -1.5807    0.9357 O   0  0  0  0  0  0  0  0  0  0  0  0
  -12.7764    1.1693   -1.5193 C   0  0  0  0  0  0  0  0  0  0  0  0
   -3.0404    2.1554   -1.4027 H   0  0  0  0  0  0  0  0  0  0  0  0
   -3.9306    2.1373    0.1386 H   0  0  0  0  0  0  0  0  0  0  0  0
   -2.1508    2.1664    0.1390 H   0  0  0  0  0  0  0  0  0  0  0  0
   -1.7870   -1.4667   -0.3832 H   0  0  0  0  0  0  0  0  0  0  0  0
   -0.6220    1.4125   -0.3763 H   0  0  0  0  0  0  0  0  0  0  0  0
    0.6187   -1.4171   -0.3826 H   0  0  0  0  0  0  0  0  0  0  0  0
    1.7836    1.4621   -0.3756 H   0  0  0  0  0  0  0  0  0  0  0  0
    3.0374   -2.1552   -1.4115 H   0  0  0  0  0  0  0  0  0  0  0  0
    3.9270   -2.1443    0.1302 H   0  0  0  0  0  0  0  0  0  0  0  0
    2.1472   -2.1734    0.1298 H   0  0  0  0  0  0  0  0  0  0  0  0
    4.1892    1.5118   -0.3750 H   0  0  0  0  0  0  0  0  0  0  0  0
    5.4299   -1.3177   -0.3814 H   0  0  0  0  0  0  0  0  0  0  0  0
    6.5948    1.5614   -0.3744 H   0  0  0  0  0  0  0  0  0  0  0  0
    7.8487   -2.0559   -1.4102 H   0  0  0  0  0  0  0  0  0  0  0  0
    8.7382   -2.0450    0.1315 H   0  0  0  0  0  0  0  0  0  0  0  0
    6.9585   -2.0741    0.1310 H   0  0  0  0  0  0  0  0  0  0  0  0
    9.0004    1.6111   -0.3737 H   0  0  0  0  0  0  0  0  0  0  0  0
   10.2411   -1.2185   -0.3801 H   0  0  0  0  0  0  0  0  0  0  0  0
   14.7062    0.3993   -1.1386 H   0  0  0  0  0  0  0  0  0  0  0  0
   13.5472    1.7618   -1.0370 H   0  0  0  0  0  0  0  0  0  0  0  0
   13.7249    1.8773    1.3651 H   0  0  0  0  0  0  0  0  0  0  0  0
   15.1103   -0.8606    1.3415 H   0  0  0  0  0  0  0  0  0  0  0  0
   14.1490   -0.1146    2.6565 H   0  0  0  0  0  0  0  0  0  0  0  0
   11.5748    0.5035    1.9337 H   0  0  0  0  0  0  0  0  0  0  0  0
   10.8958   -1.0928    1.5350 H   0  0  0  0  0  0  0  0  0  0  0  0
   12.0106   -0.9185    2.9116 H   0  0  0  0  0  0  0  0  0  0  0  0
   13.3160   -2.8238    1.7446 H   0  0  0  0  0  0  0  0  0  0  0  0
   12.2312   -2.7617    0.3348 H   0  0  0  0  0  0  0  0  0  0  0  0
   13.9832   -2.5317    0.1205 H   0  0  0  0  0  0  0  0  0  0  0  0
   15.8791    2.4127    0.4030 H   0  0  0  0  0  0  0  0  0  0  0  0
   12.6182   -0.6874   -2.4599 H   0  0  0  0  0  0  0  0  0  0  0  0
   13.7235   -1.7028   -1.5031 H   0  0  0  0  0  0  0  0  0  0  0  0
   11.9628   -1.9110   -1.3457 H   0  0  0  0  0  0  0  0  0  0  0  0
   -4.1926   -1.5164   -0.3839 H   0  0  0  0  0  0  0  0  0  0  0  0
   -5.4333    1.3132   -0.3775 H   0  0  0  0  0  0  0  0  0  0  0  0
   -6.5982   -1.5660   -0.3845 H   0  0  0  0  0  0  0  0  0  0  0  0
   -7.8516    2.0561   -1.4040 H   0  0  0  0  0  0  0  0  0  0  0  0
   -8.7418    2.0380    0.1373 H   0  0  0  0  0  0  0  0  0  0  0  0
   -6.9621    2.0671    0.1378 H   0  0  0  0  0  0  0  0  0  0  0  0
   -9.0038   -1.6157   -0.3851 H   0  0  0  0  0  0  0  0  0  0  0  0
  -10.2445    1.2139   -0.3788 H   0  0  0  0  0  0  0  0  0  0  0  0
  -14.7162   -0.4130   -1.1191 H   0  0  0  0  0  0  0  0  0  0  0  0
  -13.5563   -1.7742   -1.0113 H   0  0  0  0  0  0  0  0  0  0  0  0
  -13.7126   -1.8606    1.3935 H   0  0  0  0  0  0  0  0  0  0  0  0
  -15.0983    0.8769    1.3490 H   0  0  0  0  0  0  0  0  0  0  0  0
  -14.1254    0.1468    2.6644 H   0  0  0  0  0  0  0  0  0  0  0  0
  -11.5786   -0.4826    1.9529 H   0  0  0  0  0  0  0  0  0  0  0  0
  -10.8745    1.0835    1.4841 H   0  0  0  0  0  0  0  0  0  0  0  0
  -11.9716    0.9837    2.8822 H   0  0  0  0  0  0  0  0  0  0  0  0
  -13.3006    2.8447    1.7124 H   0  0  0  0  0  0  0  0  0  0  0  0
  -12.2284    2.7655    0.2938 H   0  0  0  0  0  0  0  0  0  0  0  0
  -13.9822    2.5330    0.0980 H   0  0  0  0  0  0  0  0  0  0  0  0
  -15.8753   -2.4075    0.4572 H   0  0  0  0  0  0  0  0  0  0  0  0
  -12.6401    0.6575   -2.4720 H   0  0  0  0  0  0  0  0  0  0  0  0
  -13.7370    1.6845   -1.5178 H   0  0  0  0  0  0  0  0  0  0  0  0
  -11.9749    1.8945   -1.3786 H   0  0  0  0  0  0  0  0  0  0  0  0
  1  2  1  0  0  0  0
  2  3  2  0  0  0  0
  3  4  1  0  0  0  0
  4  5  2  0  0  0  0
  5  6  1  0  0  0  0
  6  7  2  0  0  0  0
  7  8  1  0  0  0  0
  7  9  1  0  0  0  0
  9 10  2  0  0  0  0
 10 11  1  0  0  0  0
 11 12  2  0  0  0  0
 12 13  1  0  0  0  0
 12 14  1  0  0  0  0
 14 15  2  0  0  0  0
 15 16  1  0  0  0  0
 16 17  2  0  0  0  0
 16 18  1  0  0  0  0
 18 19  1  0  0  0  0
 19 20  1  0  0  0  0
 20 21  1  0  0  0  0
 21 22  1  0  0  0  0
 18 22  1  0  0  0  0
 22 23  1  0  0  0  0
 22 24  1  0  0  0  0
 20 25  1  0  0  0  0
 18 26  1  0  0  0  0
  2 27  1  0  0  0  0
 27 28  2  0  0  0  0
 28 29  1  0  0  0  0
 29 30  2  0  0  0  0
 30 31  1  0  0  0  0
 30 32  1  0  0  0  0
 32 33  2  0  0  0  0
 33 34  1  0  0  0  0
 34 35  2  0  0  0  0
 34 36  1  0  0  0  0
 36 37  1  0  0  0  0
 37 38  1  0  0  0  0
 38 39  1  0  0  0  0
 39 40  1  0  0  0  0
 36 40  1  0  0  0  0
 40 41  1  0  0  0  0
 40 42  1  0  0  0  0
 38 43  1  0  0  0  0
 36 44  1  0  0  0  0
  1 45  1  0  0  0  0
  1 46  1  0  0  0  0
  1 47  1  0  0  0  0
  3 48  1  0  0  0  0
  4 49  1  0  0  0  0
  5 50  1  0  0  0  0
  6 51  1  0  0  0  0
  8 52  1  0  0  0  0
  8 53  1  0  0  0  0
  8 54  1  0  0  0  0
  9 55  1  0  0  0  0
 10 56  1  0  0  0  0
 11 57  1  0  0  0  0
 13 58  1  0  0  0  0
 13 59  1  0  0  0  0
 13 60  1  0  0  0  0
 14 61  1  0  0  0  0
 15 62  1  0  0  0  0
 19 63  1  0  0  0  0
 19 64  1  0  0  0  0
 20 65  1  0  0  0  0
 21 66  1  0  0  0  0
 21 67  1  0  0  0  0
 23 68  1  0  0  0  0
 23 69  1  0  0  0  0
 23 70  1  0  0  0  0
 24 71  1  0  0  0  0
 24 72  1  0  0  0  0
 24 73  1  0  0  0  0
 25 74  1  0  0  0  0
 26 75  1  0  0  0  0
 26 76  1  0  0  0  0
 26 77  1  0  0  0  0
 27 78  1  0  0  0  0
 28 79  1  0  0  0  0
 29 80  1  0  0  0  0
 31 81  1  0  0  0  0
 31 82  1  0  0  0  0
 31 83  1  0  0  0  0
 32 84  1  0  0  0  0
 33 85  1  0  0  0  0
 37 86  1  0  0  0  0
 37 87  1  0  0  0  0
 38 88  1  0  0  0  0
 39 89  1  0  0  0  0
 39 90  1  0  0  0  0
 41 91  1  0  0  0  0
 41 92  1  0  0  0  0
 41 93  1  0  0  0  0
 42 94  1  0  0  0  0
 42 95  1  0  0  0  0
 42 96  1  0  0  0  0
 43 97  1  0  0  0  0
 44 98  1  0  0  0  0
 44 99  1  0  0  0  0
 44100  1  0  0  0  0
M  END
$$$$
