C16H15NO4
APtclcactv06281816473D 0   0.00000     0.00000
 
 36 38  0  0  0  0  0  0  0  0999 V2000
    1.2338    2.8495   -0.4496 C   0  0  0  0  0  0  0  0  0  0  0  0
    1.2007    1.4082   -0.1890 N   0  0  0  0  0  0  0  0  0  0  0  0
    2.3868    0.7366    0.0285 C   0  0  0  0  0  0  0  0  0  0  0  0
    3.5551    1.4427    0.3013 C   0  0  0  0  0  0  0  0  0  0  0  0
    4.7361    0.7647    0.5124 C   0  0  0  0  0  0  0  0  0  0  0  0
    4.7776   -0.6209    0.4557 C   0  0  0  0  0  0  0  0  0  0  0  0
    3.6332   -1.3400    0.1887 C   0  0  0  0  0  0  0  0  0  0  0  0
    2.4301   -0.6673   -0.0237 C   0  0  0  0  0  0  0  0  0  0  0  0
    1.1842   -1.4084   -0.3027 C   0  0  0  0  0  0  0  0  0  0  0  0
    1.1976   -2.5939   -0.5826 O   0  0  0  0  0  0  0  0  0  0  0  0
   -0.0740   -0.6506   -0.2268 C   0  0  0  0  0  0  0  0  0  0  0  0
   -1.3117   -1.3091   -0.2144 C   0  0  0  0  0  0  0  0  0  0  0  0
   -2.4785   -0.5672   -0.1346 C   0  0  0  0  0  0  0  0  0  0  0  0
   -2.4192    0.8239   -0.0691 C   0  0  0  0  0  0  0  0  0  0  0  0
   -1.1992    1.4804   -0.0842 C   0  0  0  0  0  0  0  0  0  0  0  0
   -0.0180    0.7565   -0.1615 C   0  0  0  0  0  0  0  0  0  0  0  0
   -3.5686    1.5429    0.0100 O   0  0  0  0  0  0  0  0  0  0  0  0
   -3.4413    2.9647    0.0745 C   0  0  0  0  0  0  0  0  0  0  0  0
   -3.6854   -1.1976   -0.1206 O   0  0  0  0  0  0  0  0  0  0  0  0
   -4.2131   -1.5603    1.1569 C   0  0  0  0  0  0  0  0  0  0  0  0
   -1.3661   -2.6644   -0.2807 O   0  0  0  0  0  0  0  0  0  0  0  0
    2.1696    3.1077   -0.9453 H   0  0  0  0  0  0  0  0  0  0  0  0
    0.3957    3.1221   -1.0910 H   0  0  0  0  0  0  0  0  0  0  0  0
    1.1607    3.3910    0.4935 H   0  0  0  0  0  0  0  0  0  0  0  0
    3.5361    2.5216    0.3471 H   0  0  0  0  0  0  0  0  0  0  0  0
    5.6392    1.3179    0.7240 H   0  0  0  0  0  0  0  0  0  0  0  0
    5.7111   -1.1380    0.6212 H   0  0  0  0  0  0  0  0  0  0  0  0
    3.6676   -2.4185    0.1441 H   0  0  0  0  0  0  0  0  0  0  0  0
   -1.1670    2.5588   -0.0338 H   0  0  0  0  0  0  0  0  0  0  0  0
   -4.4317    3.4159    0.1344 H   0  0  0  0  0  0  0  0  0  0  0  0
   -2.8635    3.2381    0.9574 H   0  0  0  0  0  0  0  0  0  0  0  0
   -2.9315    3.3248   -0.8192 H   0  0  0  0  0  0  0  0  0  0  0  0
   -5.1762   -2.0536    1.0254 H   0  0  0  0  0  0  0  0  0  0  0  0
   -3.5221   -2.2396    1.6559 H   0  0  0  0  0  0  0  0  0  0  0  0
   -4.3437   -0.6643    1.7638 H   0  0  0  0  0  0  0  0  0  0  0  0
   -1.3494   -3.1013    0.5818 H   0  0  0  0  0  0  0  0  0  0  0  0
  1  2  1  0  0  0  0
  2  3  1  0  0  0  0
  3  4  2  0  0  0  0
  4  5  1  0  0  0  0
  5  6  2  0  0  0  0
  6  7  1  0  0  0  0
  7  8  2  0  0  0  0
  3  8  1  0  0  0  0
  8  9  1  0  0  0  0
  9 10  2  0  0  0  0
  9 11  1  0  0  0  0
 11 12  2  0  0  0  0
 12 13  1  0  0  0  0
 13 14  2  0  0  0  0
 14 15  1  0  0  0  0
 15 16  2  0  0  0  0
 11 16  1  0  0  0  0
  2 16  1  0  0  0  0
 14 17  1  0  0  0  0
 17 18  1  0  0  0  0
 13 19  1  0  0  0  0
 19 20  1  0  0  0  0
 12 21  1  0  0  0  0
  1 22  1  0  0  0  0
  1 23  1  0  0  0  0
  1 24  1  0  0  0  0
  4 25  1  0  0  0  0
  5 26  1  0  0  0  0
  6 27  1  0  0  0  0
  7 28  1  0  0  0  0
 15 29  1  0  0  0  0
 18 30  1  0  0  0  0
 18 31  1  0  0  0  0
 18 32  1  0  0  0  0
 20 33  1  0  0  0  0
 20 34  1  0  0  0  0
 20 35  1  0  0  0  0
 21 36  1  0  0  0  0
M  END
$$$$
