C17H12O8
APtclcactv06281816483D 0   0.00000     0.00000
 
 37 40  0  0  0  0  0  0  0  0999 V2000
    4.8268    2.4167   -0.0252 C   0  0  0  0  0  0  0  0  0  0  0  0
    4.4948    1.0303   -0.1235 O   0  0  0  0  0  0  0  0  0  0  0  0
    3.1730    0.7116   -0.1381 C   0  0  0  0  0  0  0  0  0  0  0  0
    2.7986   -0.6292   -0.2328 C   0  0  0  0  0  0  0  0  0  0  0  0
    1.4519   -0.9782   -0.2608 C   0  0  0  0  0  0  0  0  0  0  0  0
    0.5121    0.0456   -0.1738 C   0  0  0  0  0  0  0  0  0  0  0  0
    0.8824    1.4032   -0.0643 C   0  0  0  0  0  0  0  0  0  0  0  0
    2.2323    1.7279   -0.0528 C   0  0  0  0  0  0  0  0  0  0  0  0
   -0.2122    2.3774    0.0642 C   0  0  0  0  0  0  0  0  0  0  0  0
   -0.0098    3.4684    0.5622 O   0  0  0  0  0  0  0  0  0  0  0  0
   -1.4481    2.0451   -0.3790 O   0  0  0  0  0  0  0  0  0  0  0  0
   -1.8623    0.7591   -0.2640 C   0  0  0  0  0  0  0  0  0  0  0  0
   -0.9226   -0.2646   -0.1741 C   0  0  0  0  0  0  0  0  0  0  0  0
   -1.2928   -1.6228   -0.0706 C   0  0  0  0  0  0  0  0  0  0  0  0
   -2.6425   -1.9483   -0.0668 C   0  0  0  0  0  0  0  0  0  0  0  0
   -3.5834   -0.9319   -0.1501 C   0  0  0  0  0  0  0  0  0  0  0  0
   -3.2090    0.4089   -0.2452 C   0  0  0  0  0  0  0  0  0  0  0  0
   -4.1617    1.3749   -0.3197 O   0  0  0  0  0  0  0  0  0  0  0  0
   -4.6226    1.9280    0.9147 C   0  0  0  0  0  0  0  0  0  0  0  0
   -4.9051   -1.2509   -0.1391 O   0  0  0  0  0  0  0  0  0  0  0  0
   -0.1981   -2.5981    0.0485 C   0  0  0  0  0  0  0  0  0  0  0  0
   -0.3984   -3.6921    0.5409 O   0  0  0  0  0  0  0  0  0  0  0  0
    1.0362   -2.2619   -0.3978 O   0  0  0  0  0  0  0  0  0  0  0  0
    3.7511   -1.5961   -0.2983 O   0  0  0  0  0  0  0  0  0  0  0  0
    4.2029   -2.1467    0.9405 C   0  0  0  0  0  0  0  0  0  0  0  0
    4.4058    2.9523   -0.8761 H   0  0  0  0  0  0  0  0  0  0  0  0
    4.4172    2.8238    0.8992 H   0  0  0  0  0  0  0  0  0  0  0  0
    5.9108    2.5315   -0.0238 H   0  0  0  0  0  0  0  0  0  0  0  0
    2.5461    2.7592    0.0133 H   0  0  0  0  0  0  0  0  0  0  0  0
   -2.9562   -2.9796   -0.0003 H   0  0  0  0  0  0  0  0  0  0  0  0
   -5.0546    1.1374    1.5282 H   0  0  0  0  0  0  0  0  0  0  0  0
   -3.7854    2.3825    1.4444 H   0  0  0  0  0  0  0  0  0  0  0  0
   -5.3796    2.6860    0.7131 H   0  0  0  0  0  0  0  0  0  0  0  0
   -5.2956   -1.2786    0.7451 H   0  0  0  0  0  0  0  0  0  0  0  0
    4.9607   -2.9056    0.7460 H   0  0  0  0  0  0  0  0  0  0  0  0
    4.6311   -1.3549    1.5553 H   0  0  0  0  0  0  0  0  0  0  0  0
    3.3616   -2.5994    1.4653 H   0  0  0  0  0  0  0  0  0  0  0  0
  1  2  1  0  0  0  0
  2  3  1  0  0  0  0
  3  4  2  0  0  0  0
  4  5  1  0  0  0  0
  5  6  2  0  0  0  0
  6  7  1  0  0  0  0
  7  8  2  0  0  0  0
  3  8  1  0  0  0  0
  7  9  1  0  0  0  0
  9 10  2  0  0  0  0
  9 11  1  0  0  0  0
 11 12  1  0  0  0  0
 12 13  2  0  0  0  0
  6 13  1  0  0  0  0
 13 14  1  0  0  0  0
 14 15  2  0  0  0  0
 15 16  1  0  0  0  0
 16 17  2  0  0  0  0
 12 17  1  0  0  0  0
 17 18  1  0  0  0  0
 18 19  1  0  0  0  0
 16 20  1  0  0  0  0
 14 21  1  0  0  0  0
 21 22  2  0  0  0  0
 21 23  1  0  0  0  0
  5 23  1  0  0  0  0
  4 24  1  0  0  0  0
 24 25  1  0  0  0  0
  1 26  1  0  0  0  0
  1 27  1  0  0  0  0
  1 28  1  0  0  0  0
  8 29  1  0  0  0  0
 15 30  1  0  0  0  0
 19 31  1  0  0  0  0
 19 32  1  0  0  0  0
 19 33  1  0  0  0  0
 20 34  1  0  0  0  0
 25 35  1  0  0  0  0
 25 36  1  0  0  0  0
 25 37  1  0  0  0  0
M  END
$$$$
