C12H10N2
APtclcactv06281816453D 0   0.00000     0.00000
 
 24 26  0  0  0  0  0  0  0  0999 V2000
    3.0466    1.9326   -0.0050 C   0  0  0  0  0  0  0  0  0  0  0  0
    2.3710    0.5856   -0.0025 C   0  0  0  0  0  0  0  0  0  0  0  0
    3.1004   -0.5109   -0.0022 N   0  0  0  0  0  0  0  0  0  0  0  0
    2.5653   -1.7191   -0.0000 C   0  0  0  0  0  0  0  0  0  0  0  0
    1.1973   -1.8899    0.0021 C   0  0  0  0  0  0  0  0  0  0  0  0
    0.3809   -0.7594    0.0019 C   0  0  0  0  0  0  0  0  0  0  0  0
    0.9829    0.5106    0.0053 C   0  0  0  0  0  0  0  0  0  0  0  0
   -0.0170    1.4644    0.0048 N   0  0  0  0  0  0  0  0  0  0  0  0
   -1.2596    0.8567    0.0012 C   0  0  0  0  0  0  0  0  0  0  0  0
   -2.5528    1.3703    0.0002 C   0  0  0  0  0  0  0  0  0  0  0  0
   -3.6348    0.5167   -0.0023 C   0  0  0  0  0  0  0  0  0  0  0  0
   -3.4489   -0.8572   -0.0038 C   0  0  0  0  0  0  0  0  0  0  0  0
   -2.1763   -1.3856   -0.0028 C   0  0  0  0  0  0  0  0  0  0  0  0
   -1.0729   -0.5350    0.0041 C   0  0  0  0  0  0  0  0  0  0  0  0
    3.2081    2.2562   -1.0332 H   0  0  0  0  0  0  0  0  0  0  0  0
    2.4147    2.6570    0.5089 H   0  0  0  0  0  0  0  0  0  0  0  0
    4.0057    1.8590    0.5076 H   0  0  0  0  0  0  0  0  0  0  0  0
    3.2095   -2.5860   -0.0002 H   0  0  0  0  0  0  0  0  0  0  0  0
    0.7662   -2.8802    0.0035 H   0  0  0  0  0  0  0  0  0  0  0  0
    0.1313    2.4230    0.0071 H   0  0  0  0  0  0  0  0  0  0  0  0
   -2.7088    2.4389    0.0017 H   0  0  0  0  0  0  0  0  0  0  0  0
   -4.6361    0.9214   -0.0028 H   0  0  0  0  0  0  0  0  0  0  0  0
   -4.3048   -1.5158   -0.0054 H   0  0  0  0  0  0  0  0  0  0  0  0
   -2.0345   -2.4562   -0.0036 H   0  0  0  0  0  0  0  0  0  0  0  0
  1  2  1  0  0  0  0
  2  3  2  0  0  0  0
  3  4  1  0  0  0  0
  4  5  2  0  0  0  0
  5  6  1  0  0  0  0
  6  7  2  0  0  0  0
  2  7  1  0  0  0  0
  7  8  1  0  0  0  0
  8  9  1  0  0  0  0
  9 10  2  0  0  0  0
 10 11  1  0  0  0  0
 11 12  2  0  0  0  0
 12 13  1  0  0  0  0
 13 14  2  0  0  0  0
  6 14  1  0  0  0  0
  9 14  1  0  0  0  0
  1 15  1  0  0  0  0
  1 16  1  0  0  0  0
  1 17  1  0  0  0  0
  4 18  1  0  0  0  0
  5 19  1  0  0  0  0
  8 20  1  0  0  0  0
 10 21  1  0  0  0  0
 11 22  1  0  0  0  0
 12 23  1  0  0  0  0
 13 24  1  0  0  0  0
M  END
$$$$
