C18H26O6
APtclcactv06281816443D 0   0.00000     0.00000
 
 50 50  0  0  0  0  0  0  0  0999 V2000
   -2.6602    4.8027   -0.4586 C   0  0  0  0  0  0  0  0  0  0  0  0
   -2.1495    3.4492    0.0395 C   0  0  0  0  0  0  0  0  0  0  0  0
   -3.1852    2.3671   -0.2723 C   0  0  0  0  0  0  0  0  0  0  0  0
   -2.6736    1.0112    0.2268 C   0  0  0  0  0  0  0  0  0  0  0  0
   -3.7681   -0.0471    0.0244 C   0  0  0  0  0  0  0  0  0  0  0  0
   -3.5511   -1.2208    0.9726 C   0  0  0  0  0  0  0  0  0  0  0  0
   -3.6608   -2.5368    0.2632 C   0  0  0  0  0  0  0  0  0  0  0  0
   -2.9025   -2.9387   -0.7099 C   0  0  0  0  0  0  0  0  0  0  0  0
   -1.7892   -2.1452   -1.3246 C   0  0  0  0  0  0  0  0  0  0  0  0
   -0.4857   -2.3262   -0.5469 C   0  0  0  0  0  0  0  0  0  0  0  0
    0.3241   -1.0225   -0.6106 C   0  0  0  0  0  0  0  0  0  0  0  0
   -0.4781    0.0556    0.0743 C   0  0  0  0  0  0  0  0  0  0  0  0
   -0.1599    0.4229    1.1838 O   0  0  0  0  0  0  0  0  0  0  0  0
   -1.5193    0.6096   -0.5490 O   0  0  0  0  0  0  0  0  0  0  0  0
    1.5714   -1.1987    0.0620 O   0  0  0  0  0  0  0  0  0  0  0  0
    2.6166   -0.4718   -0.3851 C   0  0  0  0  0  0  0  0  0  0  0  0
    2.4708    0.2910   -1.3214 O   0  0  0  0  0  0  0  0  0  0  0  0
    3.8848   -0.5970    0.2364 C   0  0  0  0  0  0  0  0  0  0  0  0
    4.9327    0.1318   -0.2118 C   0  0  0  0  0  0  0  0  0  0  0  0
    6.2412    0.0026    0.4295 C   0  0  0  0  0  0  0  0  0  0  0  0
    7.2749    0.7215   -0.0127 C   0  0  0  0  0  0  0  0  0  0  0  0
    8.6228    0.5884    0.6479 C   0  0  0  0  0  0  0  0  0  0  0  0
   -2.2928   -1.1268    1.6351 O   0  0  0  0  0  0  0  0  0  0  0  0
   -5.0450    0.5470    0.2851 O   0  0  0  0  0  0  0  0  0  0  0  0
   -1.9223    5.5736   -0.2365 H   0  0  0  0  0  0  0  0  0  0  0  0
   -2.8235    4.7555   -1.5353 H   0  0  0  0  0  0  0  0  0  0  0  0
   -3.5986    5.0432    0.0410 H   0  0  0  0  0  0  0  0  0  0  0  0
   -1.2111    3.2087   -0.4601 H   0  0  0  0  0  0  0  0  0  0  0  0
   -1.9862    3.4964    1.1162 H   0  0  0  0  0  0  0  0  0  0  0  0
   -4.1236    2.6077    0.2273 H   0  0  0  0  0  0  0  0  0  0  0  0
   -3.3485    2.3200   -1.3490 H   0  0  0  0  0  0  0  0  0  0  0  0
   -2.4204    1.0918    1.2814 H   0  0  0  0  0  0  0  0  0  0  0  0
   -3.7467   -0.3945   -1.0098 H   0  0  0  0  0  0  0  0  0  0  0  0
   -4.3382   -1.1852    1.7450 H   0  0  0  0  0  0  0  0  0  0  0  0
   -4.4489   -3.2206    0.5936 H   0  0  0  0  0  0  0  0  0  0  0  0
   -3.0920   -3.9375   -1.1120 H   0  0  0  0  0  0  0  0  0  0  0  0
   -1.6313   -2.5022   -2.3522 H   0  0  0  0  0  0  0  0  0  0  0  0
   -2.0602   -1.0963   -1.3759 H   0  0  0  0  0  0  0  0  0  0  0  0
   -0.7029   -2.5700    0.4919 H   0  0  0  0  0  0  0  0  0  0  0  0
    0.0971   -3.1337   -0.9931 H   0  0  0  0  0  0  0  0  0  0  0  0
    0.4978   -0.7503   -1.6502 H   0  0  0  0  0  0  0  0  0  0  0  0
    4.0142   -1.2742    1.0677 H   0  0  0  0  0  0  0  0  0  0  0  0
    4.8032    0.8090   -1.0431 H   0  0  0  0  0  0  0  0  0  0  0  0
    6.3707   -0.6746    1.2608 H   0  0  0  0  0  0  0  0  0  0  0  0
    7.1454    1.3987   -0.8440 H   0  0  0  0  0  0  0  0  0  0  0  0
    9.3362    1.2480    0.1539 H   0  0  0  0  0  0  0  0  0  0  0  0
    8.5409    0.8640    1.6993 H   0  0  0  0  0  0  0  0  0  0  0  0
    8.9661   -0.4431    0.5684 H   0  0  0  0  0  0  0  0  0  0  0  0
   -2.1154   -1.8539    2.2474 H   0  0  0  0  0  0  0  0  0  0  0  0
   -5.7903   -0.0598    0.1782 H   0  0  0  0  0  0  0  0  0  0  0  0
  1  2  1  0  0  0  0
  2  3  1  0  0  0  0
  3  4  1  0  0  0  0
  4  5  1  0  0  0  0
  5  6  1  0  0  0  0
  6  7  1  0  0  0  0
  7  8  2  0  0  0  0
  8  9  1  0  0  0  0
  9 10  1  0  0  0  0
 10 11  1  0  0  0  0
 11 12  1  0  0  0  0
 12 13  2  0  0  0  0
 12 14  1  0  0  0  0
  4 14  1  0  0  0  0
 11 15  1  0  0  0  0
 15 16  1  0  0  0  0
 16 17  2  0  0  0  0
 16 18  1  0  0  0  0
 18 19  2  0  0  0  0
 19 20  1  0  0  0  0
 20 21  2  0  0  0  0
 21 22  1  0  0  0  0
  6 23  1  0  0  0  0
  5 24  1  0  0  0  0
  1 25  1  0  0  0  0
  1 26  1  0  0  0  0
  1 27  1  0  0  0  0
  2 28  1  0  0  0  0
  2 29  1  0  0  0  0
  3 30  1  0  0  0  0
  3 31  1  0  0  0  0
  4 32  1  0  0  0  0
  5 33  1  0  0  0  0
  6 34  1  0  0  0  0
  7 35  1  0  0  0  0
  8 36  1  0  0  0  0
  9 37  1  0  0  0  0
  9 38  1  0  0  0  0
 10 39  1  0  0  0  0
 10 40  1  0  0  0  0
 11 41  1  0  0  0  0
 18 42  1  0  0  0  0
 19 43  1  0  0  0  0
 20 44  1  0  0  0  0
 21 45  1  0  0  0  0
 22 46  1  0  0  0  0
 22 47  1  0  0  0  0
 22 48  1  0  0  0  0
 23 49  1  0  0  0  0
 24 50  1  0  0  0  0
M  END
$$$$
