C14H13NO2
APtclcactv06281816483D 0   0.00000     0.00000
 
 30 32  0  0  0  0  0  0  0  0999 V2000
    2.4345   -1.0911   -1.6151 C   0  0  0  0  0  0  0  0  0  0  0  0
    2.5180   -0.8875   -0.1010 C   0  0  0  0  0  0  0  0  0  0  0  0
    2.9499    0.5262    0.1872 C   0  0  0  0  0  0  0  0  0  0  0  0
    2.0372    1.4880    0.3202 C   0  0  0  0  0  0  0  0  0  0  0  0
    0.6140    1.1169    0.1898 C   0  0  0  0  0  0  0  0  0  0  0  0
    0.2703   -0.2313    0.2787 C   0  0  0  0  0  0  0  0  0  0  0  0
    1.2398   -1.1497    0.4811 O   0  0  0  0  0  0  0  0  0  0  0  0
   -1.0877   -0.5823    0.1522 C   0  0  0  0  0  0  0  0  0  0  0  0
   -1.5109   -1.9167    0.2279 C   0  0  0  0  0  0  0  0  0  0  0  0
   -2.8350   -2.2134    0.1003 C   0  0  0  0  0  0  0  0  0  0  0  0
   -3.7738   -1.2063   -0.1045 C   0  0  0  0  0  0  0  0  0  0  0  0
   -3.3966    0.1002   -0.1826 C   0  0  0  0  0  0  0  0  0  0  0  0
   -2.0413    0.4459   -0.0569 C   0  0  0  0  0  0  0  0  0  0  0  0
   -1.6521    1.7260   -0.1324 N   0  0  0  0  0  0  0  0  0  0  0  0
   -0.3884    2.0787   -0.0181 C   0  0  0  0  0  0  0  0  0  0  0  0
   -0.0502    3.3882   -0.1027 O   0  0  0  0  0  0  0  0  0  0  0  0
    3.5464   -1.8584    0.4827 C   0  0  0  0  0  0  0  0  0  0  0  0
    3.4127   -0.9100   -2.0606 H   0  0  0  0  0  0  0  0  0  0  0  0
    2.1221   -2.1135   -1.8276 H   0  0  0  0  0  0  0  0  0  0  0  0
    1.7092   -0.3946   -2.0359 H   0  0  0  0  0  0  0  0  0  0  0  0
    3.9995    0.7605    0.2865 H   0  0  0  0  0  0  0  0  0  0  0  0
    2.3298    2.5087    0.5178 H   0  0  0  0  0  0  0  0  0  0  0  0
   -0.7909   -2.7059    0.3863 H   0  0  0  0  0  0  0  0  0  0  0  0
   -3.1595   -3.2419    0.1584 H   0  0  0  0  0  0  0  0  0  0  0  0
   -4.8178   -1.4649   -0.2026 H   0  0  0  0  0  0  0  0  0  0  0  0
   -4.1385    0.8688   -0.3414 H   0  0  0  0  0  0  0  0  0  0  0  0
   -0.0542    3.8511    0.7463 H   0  0  0  0  0  0  0  0  0  0  0  0
    4.5214   -1.6679    0.0343 H   0  0  0  0  0  0  0  0  0  0  0  0
    3.6087   -1.7163    1.5616 H   0  0  0  0  0  0  0  0  0  0  0  0
    3.2416   -2.8828    0.2682 H   0  0  0  0  0  0  0  0  0  0  0  0
  1  2  1  0  0  0  0
  2  3  1  0  0  0  0
  3  4  2  0  0  0  0
  4  5  1  0  0  0  0
  5  6  2  0  0  0  0
  6  7  1  0  0  0  0
  2  7  1  0  0  0  0
  6  8  1  0  0  0  0
  8  9  2  0  0  0  0
  9 10  1  0  0  0  0
 10 11  2  0  0  0  0
 11 12  1  0  0  0  0
 12 13  2  0  0  0  0
  8 13  1  0  0  0  0
 13 14  1  0  0  0  0
 14 15  2  0  0  0  0
  5 15  1  0  0  0  0
 15 16  1  0  0  0  0
  2 17  1  0  0  0  0
  1 18  1  0  0  0  0
  1 19  1  0  0  0  0
  1 20  1  0  0  0  0
  3 21  1  0  0  0  0
  4 22  1  0  0  0  0
  9 23  1  0  0  0  0
 10 24  1  0  0  0  0
 11 25  1  0  0  0  0
 12 26  1  0  0  0  0
 16 27  1  0  0  0  0
 17 28  1  0  0  0  0
 17 29  1  0  0  0  0
 17 30  1  0  0  0  0
M  END
$$$$
