C6H10O
APtclcactv06281816443D 0   0.00000     0.00000
 
 17 16  0  0  0  0  0  0  0  0999 V2000
    3.6134   -0.2885   -0.2314 C   0  0  0  0  0  0  0  0  0  0  0  0
    2.2544    0.3921   -0.4066 C   0  0  0  0  0  0  0  0  0  0  0  0
    1.2430   -0.2332    0.5562 C   0  0  0  0  0  0  0  0  0  0  0  0
   -0.0957    0.4371    0.3837 C   0  0  0  0  0  0  0  0  0  0  0  0
   -1.1791   -0.2950    0.1168 C   0  0  0  0  0  0  0  0  0  0  0  0
   -2.4783    0.3556   -0.0507 C   0  0  0  0  0  0  0  0  0  0  0  0
   -3.4633   -0.3100   -0.2934 O   0  0  0  0  0  0  0  0  0  0  0  0
    3.9573   -0.1546    0.7943 H   0  0  0  0  0  0  0  0  0  0  0  0
    3.5172   -1.3528   -0.4462 H   0  0  0  0  0  0  0  0  0  0  0  0
    4.3339    0.1569   -0.9173 H   0  0  0  0  0  0  0  0  0  0  0  0
    2.3506    1.4563   -0.1917 H   0  0  0  0  0  0  0  0  0  0  0  0
    1.9105    0.2581   -1.4322 H   0  0  0  0  0  0  0  0  0  0  0  0
    1.1467   -1.2975    0.3414 H   0  0  0  0  0  0  0  0  0  0  0  0
    1.5869   -0.0993    1.5819 H   0  0  0  0  0  0  0  0  0  0  0  0
   -0.1782    1.5100    0.4760 H   0  0  0  0  0  0  0  0  0  0  0  0
   -1.0966   -1.3679    0.0244 H   0  0  0  0  0  0  0  0  0  0  0  0
   -2.5609    1.4284    0.0416 H   0  0  0  0  0  0  0  0  0  0  0  0
  1  2  1  0  0  0  0
  2  3  1  0  0  0  0
  3  4  1  0  0  0  0
  4  5  2  0  0  0  0
  5  6  1  0  0  0  0
  6  7  2  0  0  0  0
  1  8  1  0  0  0  0
  1  9  1  0  0  0  0
  1 10  1  0  0  0  0
  2 11  1  0  0  0  0
  2 12  1  0  0  0  0
  3 13  1  0  0  0  0
  3 14  1  0  0  0  0
  4 15  1  0  0  0  0
  5 16  1  0  0  0  0
  6 17  1  0  0  0  0
M  END
$$$$
