C15H12O6
APtclcactv06281816443D 0   0.00000     0.00000
 
 33 34  0  0  0  0  0  0  0  0999 V2000
   -2.8154   -1.0521   -0.0139 C   0  0  0  0  0  0  0  0  0  0  0  0
   -4.0403   -1.6818   -0.0129 C   0  0  0  0  0  0  0  0  0  0  0  0
   -5.2101   -0.9331   -0.0124 C   0  0  0  0  0  0  0  0  0  0  0  0
   -5.1512    0.4602   -0.0134 C   0  0  0  0  0  0  0  0  0  0  0  0
   -3.9276    1.1000   -0.0149 C   0  0  0  0  0  0  0  0  0  0  0  0
   -2.7478    0.3463   -0.0145 C   0  0  0  0  0  0  0  0  0  0  0  0
   -1.4425    1.0208   -0.0160 C   0  0  0  0  0  0  0  0  0  0  0  0
   -0.3048    0.2913   -0.0156 C   0  0  0  0  0  0  0  0  0  0  0  0
    0.9938    0.9625   -0.0172 C   0  0  0  0  0  0  0  0  0  0  0  0
    1.0506    2.1793   -0.0188 O   0  0  0  0  0  0  0  0  0  0  0  0
    2.2349    0.1666   -0.0167 C   0  0  0  0  0  0  0  0  0  0  0  0
    3.4822    0.8079   -0.0182 C   0  0  0  0  0  0  0  0  0  0  0  0
    4.6452    0.0507   -0.0178 C   0  0  0  0  0  0  0  0  0  0  0  0
    4.5699   -1.3376   -0.0160 C   0  0  0  0  0  0  0  0  0  0  0  0
    3.3320   -1.9720   -0.0150 C   0  0  0  0  0  0  0  0  0  0  0  0
    2.1727   -1.2310   -0.0091 C   0  0  0  0  0  0  0  0  0  0  0  0
    5.7092   -2.0770   -0.0156 O   0  0  0  0  0  0  0  0  0  0  0  0
    5.8588    0.6668   -0.0197 O   0  0  0  0  0  0  0  0  0  0  0  0
    3.5515    2.1639   -0.0205 O   0  0  0  0  0  0  0  0  0  0  0  0
   -6.2993    1.1891   -0.0134 O   0  0  0  0  0  0  0  0  0  0  0  0
   -6.4150   -1.5598   -0.0114 O   0  0  0  0  0  0  0  0  0  0  0  0
   -1.9074   -1.6369   -0.0098 H   0  0  0  0  0  0  0  0  0  0  0  0
   -4.0913   -2.7606   -0.0129 H   0  0  0  0  0  0  0  0  0  0  0  0
   -3.8808    2.1790   -0.0163 H   0  0  0  0  0  0  0  0  0  0  0  0
   -1.3922    2.0997   -0.0175 H   0  0  0  0  0  0  0  0  0  0  0  0
   -0.3551   -0.7875   -0.0142 H   0  0  0  0  0  0  0  0  0  0  0  0
    3.2807   -3.0508   -0.0143 H   0  0  0  0  0  0  0  0  0  0  0  0
    1.2141   -1.7285   -0.0079 H   0  0  0  0  0  0  0  0  0  0  0  0
    6.0396   -2.2900    0.8679 H   0  0  0  0  0  0  0  0  0  0  0  0
    6.2101    0.8463    0.8631 H   0  0  0  0  0  0  0  0  0  0  0  0
    3.5719    2.5581    0.8623 H   0  0  0  0  0  0  0  0  0  0  0  0
   -6.6310    1.4005    0.8701 H   0  0  0  0  0  0  0  0  0  0  0  0
   -6.7633   -1.7410    0.8722 H   0  0  0  0  0  0  0  0  0  0  0  0
  1  2  2  0  0  0  0
  2  3  1  0  0  0  0
  3  4  2  0  0  0  0
  4  5  1  0  0  0  0
  5  6  2  0  0  0  0
  1  6  1  0  0  0  0
  6  7  1  0  0  0  0
  7  8  2  0  0  0  0
  8  9  1  0  0  0  0
  9 10  2  0  0  0  0
  9 11  1  0  0  0  0
 11 12  2  0  0  0  0
 12 13  1  0  0  0  0
 13 14  2  0  0  0  0
 14 15  1  0  0  0  0
 15 16  2  0  0  0  0
 11 16  1  0  0  0  0
 14 17  1  0  0  0  0
 13 18  1  0  0  0  0
 12 19  1  0  0  0  0
  4 20  1  0  0  0  0
  3 21  1  0  0  0  0
  1 22  1  0  0  0  0
  2 23  1  0  0  0  0
  5 24  1  0  0  0  0
  7 25  1  0  0  0  0
  8 26  1  0  0  0  0
 15 27  1  0  0  0  0
 16 28  1  0  0  0  0
 17 29  1  0  0  0  0
 18 30  1  0  0  0  0
 19 31  1  0  0  0  0
 20 32  1  0  0  0  0
 21 33  1  0  0  0  0
M  END
$$$$
