C17H14O5
APtclcactv06281816473D 0   0.00000     0.00000
 
 36 38  0  0  0  0  0  0  0  0999 V2000
    6.6695    1.2951    1.0004 C   0  0  0  0  0  0  0  0  0  0  0  0
    6.2193    0.3890   -0.0087 O   0  0  0  0  0  0  0  0  0  0  0  0
    4.8874    0.1213   -0.0478 C   0  0  0  0  0  0  0  0  0  0  0  0
    4.3839   -0.7505   -1.0035 C   0  0  0  0  0  0  0  0  0  0  0  0
    3.0327   -1.0242   -1.0458 C   0  0  0  0  0  0  0  0  0  0  0  0
    2.1725   -0.4244   -0.1275 C   0  0  0  0  0  0  0  0  0  0  0  0
    2.6812    0.4505    0.8309 C   0  0  0  0  0  0  0  0  0  0  0  0
    4.0342    0.7158    0.8716 C   0  0  0  0  0  0  0  0  0  0  0  0
    0.7188   -0.7162   -0.1705 C   0  0  0  0  0  0  0  0  0  0  0  0
    0.2483   -1.9641    0.0888 C   0  0  0  0  0  0  0  0  0  0  0  0
   -1.0464   -2.2773    0.0456 O   0  0  0  0  0  0  0  0  0  0  0  0
   -1.9984   -1.3244    0.0545 C   0  0  0  0  0  0  0  0  0  0  0  0
   -3.3191   -1.6529    0.3361 C   0  0  0  0  0  0  0  0  0  0  0  0
   -4.2930   -0.6712    0.3334 C   0  0  0  0  0  0  0  0  0  0  0  0
   -3.9648    0.6570    0.0487 C   0  0  0  0  0  0  0  0  0  0  0  0
   -2.6577    1.0006   -0.2292 C   0  0  0  0  0  0  0  0  0  0  0  0
   -1.6711    0.0146   -0.2224 C   0  0  0  0  0  0  0  0  0  0  0  0
   -0.2587    0.3417   -0.4901 C   0  0  0  0  0  0  0  0  0  0  0  0
    0.0809    1.4180   -0.9511 O   0  0  0  0  0  0  0  0  0  0  0  0
   -4.9342    1.6112    0.0452 O   0  0  0  0  0  0  0  0  0  0  0  0
   -4.5275    2.9481   -0.2541 C   0  0  0  0  0  0  0  0  0  0  0  0
   -5.5811   -1.0012    0.6098 O   0  0  0  0  0  0  0  0  0  0  0  0
    6.1807    2.2600    0.8666 H   0  0  0  0  0  0  0  0  0  0  0  0
    6.4221    0.8957    1.9839 H   0  0  0  0  0  0  0  0  0  0  0  0
    7.7493    1.4206    0.9204 H   0  0  0  0  0  0  0  0  0  0  0  0
    5.0509   -1.2146   -1.7149 H   0  0  0  0  0  0  0  0  0  0  0  0
    2.6415   -1.7023   -1.7898 H   0  0  0  0  0  0  0  0  0  0  0  0
    2.0172    0.9169    1.5437 H   0  0  0  0  0  0  0  0  0  0  0  0
    4.4289    1.3936    1.6140 H   0  0  0  0  0  0  0  0  0  0  0  0
    0.9569   -2.7389    0.3414 H   0  0  0  0  0  0  0  0  0  0  0  0
   -3.5851   -2.6760    0.5569 H   0  0  0  0  0  0  0  0  0  0  0  0
   -2.4003    2.0259   -0.4501 H   0  0  0  0  0  0  0  0  0  0  0  0
   -3.7944    3.2782    0.4818 H   0  0  0  0  0  0  0  0  0  0  0  0
   -4.0829    2.9785   -1.2488 H   0  0  0  0  0  0  0  0  0  0  0  0
   -5.3951    3.6072   -0.2235 H   0  0  0  0  0  0  0  0  0  0  0  0
   -5.8078   -0.9493    1.5484 H   0  0  0  0  0  0  0  0  0  0  0  0
  1  2  1  0  0  0  0
  2  3  1  0  0  0  0
  3  4  2  0  0  0  0
  4  5  1  0  0  0  0
  5  6  2  0  0  0  0
  6  7  1  0  0  0  0
  7  8  2  0  0  0  0
  3  8  1  0  0  0  0
  6  9  1  0  0  0  0
  9 10  2  0  0  0  0
 10 11  1  0  0  0  0
 11 12  1  0  0  0  0
 12 13  2  0  0  0  0
 13 14  1  0  0  0  0
 14 15  2  0  0  0  0
 15 16  1  0  0  0  0
 16 17  2  0  0  0  0
 12 17  1  0  0  0  0
 17 18  1  0  0  0  0
  9 18  1  0  0  0  0
 18 19  2  0  0  0  0
 15 20  1  0  0  0  0
 20 21  1  0  0  0  0
 14 22  1  0  0  0  0
  1 23  1  0  0  0  0
  1 24  1  0  0  0  0
  1 25  1  0  0  0  0
  4 26  1  0  0  0  0
  5 27  1  0  0  0  0
  7 28  1  0  0  0  0
  8 29  1  0  0  0  0
 10 30  1  0  0  0  0
 13 31  1  0  0  0  0
 16 32  1  0  0  0  0
 21 33  1  0  0  0  0
 21 34  1  0  0  0  0
 21 35  1  0  0  0  0
 22 36  1  0  0  0  0
M  END
$$$$
