C20H34O
APtclcactv06281816453D 0   0.00000     0.00000
 
 55 54  0  0  0  0  0  0  0  0999 V2000
   -6.6564    1.3771   -1.1852 C   0  0  0  0  0  0  0  0  0  0  0  0
   -7.2630    0.1495   -0.5559 C   0  0  0  0  0  0  0  0  0  0  0  0
   -6.4989   -0.8605   -0.2211 C   0  0  0  0  0  0  0  0  0  0  0  0
   -5.0021   -0.7502   -0.3565 C   0  0  0  0  0  0  0  0  0  0  0  0
   -4.3430   -1.0799    0.9844 C   0  0  0  0  0  0  0  0  0  0  0  0
   -2.8462   -0.9696    0.8489 C   0  0  0  0  0  0  0  0  0  0  0  0
   -2.2388    0.1430    1.1794 C   0  0  0  0  0  0  0  0  0  0  0  0
   -0.7346    0.2227    1.1333 C   0  0  0  0  0  0  0  0  0  0  0  0
   -0.3132    1.4132    0.2695 C   0  0  0  0  0  0  0  0  0  0  0  0
    1.1910    1.4929    0.2234 C   0  0  0  0  0  0  0  0  0  0  0  0
    1.8460    0.9419   -0.7682 C   0  0  0  0  0  0  0  0  0  0  0  0
    3.3526    0.9107   -0.7511 C   0  0  0  0  0  0  0  0  0  0  0  0
    3.8350   -0.5299   -0.9326 C   0  0  0  0  0  0  0  0  0  0  0  0
    5.3416   -0.5610   -0.9155 C   0  0  0  0  0  0  0  0  0  0  0  0
    5.9788   -0.8190    0.1996 C   0  0  0  0  0  0  0  0  0  0  0  0
    7.4854   -0.8502    0.2167 C   0  0  0  0  0  0  0  0  0  0  0  0
    7.9637   -0.1353    1.3578 O   0  0  0  0  0  0  0  0  0  0  0  0
    6.1152   -0.2954   -2.1813 C   0  0  0  0  0  0  0  0  0  0  0  0
    1.9416    2.2065    1.3181 C   0  0  0  0  0  0  0  0  0  0  0  0
   -2.0480   -2.1393    0.3333 C   0  0  0  0  0  0  0  0  0  0  0  0
   -8.7487    0.0838   -0.3118 C   0  0  0  0  0  0  0  0  0  0  0  0
   -6.0862    1.0887   -2.0682 H   0  0  0  0  0  0  0  0  0  0  0  0
   -7.4494    2.0669   -1.4741 H   0  0  0  0  0  0  0  0  0  0  0  0
   -5.9949    1.8637   -0.4685 H   0  0  0  0  0  0  0  0  0  0  0  0
   -6.9417   -1.7722    0.1520 H   0  0  0  0  0  0  0  0  0  0  0  0
   -4.6532   -1.4512   -1.1149 H   0  0  0  0  0  0  0  0  0  0  0  0
   -4.7377    0.2653   -0.6513 H   0  0  0  0  0  0  0  0  0  0  0  0
   -4.6918   -0.3789    1.7427 H   0  0  0  0  0  0  0  0  0  0  0  0
   -4.6073   -2.0954    1.2792 H   0  0  0  0  0  0  0  0  0  0  0  0
   -2.8160    1.0031    1.4849 H   0  0  0  0  0  0  0  0  0  0  0  0
   -0.3464    0.3515    2.1437 H   0  0  0  0  0  0  0  0  0  0  0  0
   -0.3350   -0.6965    0.7050 H   0  0  0  0  0  0  0  0  0  0  0  0
   -0.7013    1.2844   -0.7408 H   0  0  0  0  0  0  0  0  0  0  0  0
   -0.7128    2.3324    0.6979 H   0  0  0  0  0  0  0  0  0  0  0  0
    1.3064    0.5099   -1.5980 H   0  0  0  0  0  0  0  0  0  0  0  0
    3.7380    1.5279   -1.5627 H   0  0  0  0  0  0  0  0  0  0  0  0
    3.7132    1.2973    0.2021 H   0  0  0  0  0  0  0  0  0  0  0  0
    3.4496   -1.1471   -0.1211 H   0  0  0  0  0  0  0  0  0  0  0  0
    3.4744   -0.9164   -1.8858 H   0  0  0  0  0  0  0  0  0  0  0  0
    5.4244   -1.0094    1.1067 H   0  0  0  0  0  0  0  0  0  0  0  0
    7.8269   -1.8841    0.2663 H   0  0  0  0  0  0  0  0  0  0  0  0
    7.8687   -0.3842   -0.6910 H   0  0  0  0  0  0  0  0  0  0  0  0
    8.9275   -0.1141    1.4331 H   0  0  0  0  0  0  0  0  0  0  0  0
    6.3199    0.7719   -2.2647 H   0  0  0  0  0  0  0  0  0  0  0  0
    7.0562   -0.8448   -2.1541 H   0  0  0  0  0  0  0  0  0  0  0  0
    5.5289   -0.6212   -3.0405 H   0  0  0  0  0  0  0  0  0  0  0  0
    2.2674    1.4836    2.0662 H   0  0  0  0  0  0  0  0  0  0  0  0
    2.8117    2.7082    0.8947 H   0  0  0  0  0  0  0  0  0  0  0  0
    1.2888    2.9437    1.7854 H   0  0  0  0  0  0  0  0  0  0  0  0
   -1.8873   -2.0252   -0.7387 H   0  0  0  0  0  0  0  0  0  0  0  0
   -1.0854   -2.1754    0.8432 H   0  0  0  0  0  0  0  0  0  0  0  0
   -2.5942   -3.0635    0.5225 H   0  0  0  0  0  0  0  0  0  0  0  0
   -9.2418   -0.3432   -1.1850 H   0  0  0  0  0  0  0  0  0  0  0  0
   -8.9465   -0.5412    0.5591 H   0  0  0  0  0  0  0  0  0  0  0  0
   -9.1322    1.0882   -0.1327 H   0  0  0  0  0  0  0  0  0  0  0  0
  1  2  1  0  0  0  0
  2  3  2  0  0  0  0
  3  4  1  0  0  0  0
  4  5  1  0  0  0  0
  5  6  1  0  0  0  0
  6  7  2  0  0  0  0
  7  8  1  0  0  0  0
  8  9  1  0  0  0  0
  9 10  1  0  0  0  0
 10 11  2  0  0  0  0
 11 12  1  0  0  0  0
 12 13  1  0  0  0  0
 13 14  1  0  0  0  0
 14 15  2  0  0  0  0
 15 16  1  0  0  0  0
 16 17  1  0  0  0  0
 14 18  1  0  0  0  0
 10 19  1  0  0  0  0
  6 20  1  0  0  0  0
  2 21  1  0  0  0  0
  1 22  1  0  0  0  0
  1 23  1  0  0  0  0
  1 24  1  0  0  0  0
  3 25  1  0  0  0  0
  4 26  1  0  0  0  0
  4 27  1  0  0  0  0
  5 28  1  0  0  0  0
  5 29  1  0  0  0  0
  7 30  1  0  0  0  0
  8 31  1  0  0  0  0
  8 32  1  0  0  0  0
  9 33  1  0  0  0  0
  9 34  1  0  0  0  0
 11 35  1  0  0  0  0
 12 36  1  0  0  0  0
 12 37  1  0  0  0  0
 13 38  1  0  0  0  0
 13 39  1  0  0  0  0
 15 40  1  0  0  0  0
 16 41  1  0  0  0  0
 16 42  1  0  0  0  0
 17 43  1  0  0  0  0
 18 44  1  0  0  0  0
 18 45  1  0  0  0  0
 18 46  1  0  0  0  0
 19 47  1  0  0  0  0
 19 48  1  0  0  0  0
 19 49  1  0  0  0  0
 20 50  1  0  0  0  0
 20 51  1  0  0  0  0
 20 52  1  0  0  0  0
 21 53  1  0  0  0  0
 21 54  1  0  0  0  0
 21 55  1  0  0  0  0
M  END
$$$$
