C20H20O4
APtclcactv06281816443D 0   0.00000     0.00000
 
 44 45  0  0  0  0  0  0  0  0999 V2000
    5.8305   -2.0739   -0.4379 C   0  0  0  0  0  0  0  0  0  0  0  0
    5.6864   -1.1853    0.7707 C   0  0  0  0  0  0  0  0  0  0  0  0
    5.1324   -0.0041    0.6529 C   0  0  0  0  0  0  0  0  0  0  0  0
    4.5268    0.4164   -0.6614 C   0  0  0  0  0  0  0  0  0  0  0  0
    3.1020    0.8550   -0.4406 C   0  0  0  0  0  0  0  0  0  0  0  0
    2.8222    2.1825   -0.1518 C   0  0  0  0  0  0  0  0  0  0  0  0
    1.5083    2.5942    0.0533 C   0  0  0  0  0  0  0  0  0  0  0  0
    0.4774    1.6875   -0.0294 C   0  0  0  0  0  0  0  0  0  0  0  0
    0.7481    0.3465   -0.3204 C   0  0  0  0  0  0  0  0  0  0  0  0
    2.0727   -0.0660   -0.5317 C   0  0  0  0  0  0  0  0  0  0  0  0
    2.3443   -1.3647   -0.8149 O   0  0  0  0  0  0  0  0  0  0  0  0
   -0.3540   -0.6286   -0.4095 C   0  0  0  0  0  0  0  0  0  0  0  0
   -0.1153   -1.7959   -0.6631 O   0  0  0  0  0  0  0  0  0  0  0  0
   -1.7332   -0.1947   -0.1934 C   0  0  0  0  0  0  0  0  0  0  0  0
   -2.7434   -1.0886   -0.2750 C   0  0  0  0  0  0  0  0  0  0  0  0
   -4.1296   -0.6525   -0.0579 C   0  0  0  0  0  0  0  0  0  0  0  0
   -5.1781   -1.5766   -0.1419 C   0  0  0  0  0  0  0  0  0  0  0  0
   -6.4749   -1.1628    0.0624 C   0  0  0  0  0  0  0  0  0  0  0  0
   -6.7445    0.1703    0.3512 C   0  0  0  0  0  0  0  0  0  0  0  0
   -5.7070    1.0920    0.4358 C   0  0  0  0  0  0  0  0  0  0  0  0
   -4.4061    0.6875    0.2394 C   0  0  0  0  0  0  0  0  0  0  0  0
   -8.0251    0.5733    0.5509 O   0  0  0  0  0  0  0  0  0  0  0  0
    3.8336    3.0837   -0.0685 O   0  0  0  0  0  0  0  0  0  0  0  0
    6.1795   -1.6556    2.1148 C   0  0  0  0  0  0  0  0  0  0  0  0
    6.3630   -1.5365   -1.2225 H   0  0  0  0  0  0  0  0  0  0  0  0
    6.3903   -2.9688   -0.1662 H   0  0  0  0  0  0  0  0  0  0  0  0
    4.8424   -2.3591   -0.7991 H   0  0  0  0  0  0  0  0  0  0  0  0
    5.1097    0.6684    1.4977 H   0  0  0  0  0  0  0  0  0  0  0  0
    5.1012    1.2439   -1.0779 H   0  0  0  0  0  0  0  0  0  0  0  0
    4.5448   -0.4240   -1.3553 H   0  0  0  0  0  0  0  0  0  0  0  0
    1.2978    3.6293    0.2784 H   0  0  0  0  0  0  0  0  0  0  0  0
   -0.5406    2.0108    0.1307 H   0  0  0  0  0  0  0  0  0  0  0  0
    2.3386   -1.5707   -1.7597 H   0  0  0  0  0  0  0  0  0  0  0  0
   -1.9447    0.8402    0.0315 H   0  0  0  0  0  0  0  0  0  0  0  0
   -2.5319   -2.1235   -0.4999 H   0  0  0  0  0  0  0  0  0  0  0  0
   -4.9698   -2.6122   -0.3669 H   0  0  0  0  0  0  0  0  0  0  0  0
   -7.2844   -1.8748   -0.0022 H   0  0  0  0  0  0  0  0  0  0  0  0
   -5.9219    2.1263    0.6604 H   0  0  0  0  0  0  0  0  0  0  0  0
   -3.6009    1.4043    0.3053 H   0  0  0  0  0  0  0  0  0  0  0  0
   -8.3154    0.5195    1.4717 H   0  0  0  0  0  0  0  0  0  0  0  0
    4.0458    3.5155   -0.9073 H   0  0  0  0  0  0  0  0  0  0  0  0
    7.2194   -1.3564    2.2454 H   0  0  0  0  0  0  0  0  0  0  0  0
    5.5714   -1.2091    2.9015 H   0  0  0  0  0  0  0  0  0  0  0  0
    6.1043   -2.7417    2.1698 H   0  0  0  0  0  0  0  0  0  0  0  0
  1  2  1  0  0  0  0
  2  3  2  0  0  0  0
  3  4  1  0  0  0  0
  4  5  1  0  0  0  0
  5  6  2  0  0  0  0
  6  7  1  0  0  0  0
  7  8  2  0  0  0  0
  8  9  1  0  0  0  0
  9 10  2  0  0  0  0
  5 10  1  0  0  0  0
 10 11  1  0  0  0  0
  9 12  1  0  0  0  0
 12 13  2  0  0  0  0
 12 14  1  0  0  0  0
 14 15  2  0  0  0  0
 15 16  1  0  0  0  0
 16 17  2  0  0  0  0
 17 18  1  0  0  0  0
 18 19  2  0  0  0  0
 19 20  1  0  0  0  0
 20 21  2  0  0  0  0
 16 21  1  0  0  0  0
 19 22  1  0  0  0  0
  6 23  1  0  0  0  0
  2 24  1  0  0  0  0
  1 25  1  0  0  0  0
  1 26  1  0  0  0  0
  1 27  1  0  0  0  0
  3 28  1  0  0  0  0
  4 29  1  0  0  0  0
  4 30  1  0  0  0  0
  7 31  1  0  0  0  0
  8 32  1  0  0  0  0
 11 33  1  0  0  0  0
 14 34  1  0  0  0  0
 15 35  1  0  0  0  0
 17 36  1  0  0  0  0
 18 37  1  0  0  0  0
 20 38  1  0  0  0  0
 21 39  1  0  0  0  0
 22 40  1  0  0  0  0
 23 41  1  0  0  0  0
 24 42  1  0  0  0  0
 24 43  1  0  0  0  0
 24 44  1  0  0  0  0
M  END
$$$$
