C21H20O6
APtclcactv06281816473D 0   0.00000     0.00000
 
 47 48  0  0  0  0  0  0  0  0999 V2000
    8.4076    2.0409    0.2093 C   0  0  0  0  0  0  0  0  0  0  0  0
    8.4713    0.6139    0.1662 O   0  0  0  0  0  0  0  0  0  0  0  0
    7.2897   -0.0548    0.0880 C   0  0  0  0  0  0  0  0  0  0  0  0
    7.2793   -1.4484    0.0424 C   0  0  0  0  0  0  0  0  0  0  0  0
    6.0754   -2.1357   -0.0370 C   0  0  0  0  0  0  0  0  0  0  0  0
    4.8844   -1.4444   -0.0715 C   0  0  0  0  0  0  0  0  0  0  0  0
    4.8863   -0.0452   -0.0261 C   0  0  0  0  0  0  0  0  0  0  0  0
    6.1004    0.6464    0.0597 C   0  0  0  0  0  0  0  0  0  0  0  0
    3.6175    0.6950   -0.0631 C   0  0  0  0  0  0  0  0  0  0  0  0
    2.4457    0.0247   -0.1412 C   0  0  0  0  0  0  0  0  0  0  0  0
    1.2231    0.7380   -0.1770 C   0  0  0  0  0  0  0  0  0  0  0  0
    0.0289    0.0549   -0.2566 C   0  0  0  0  0  0  0  0  0  0  0  0
   -1.1908    0.7566   -0.1793 C   0  0  0  0  0  0  0  0  0  0  0  0
   -1.1921    1.9772   -0.1500 O   0  0  0  0  0  0  0  0  0  0  0  0
   -2.4580    0.0211   -0.1340 C   0  0  0  0  0  0  0  0  0  0  0  0
   -3.6256    0.6928   -0.0600 C   0  0  0  0  0  0  0  0  0  0  0  0
   -4.8966   -0.0450   -0.0147 C   0  0  0  0  0  0  0  0  0  0  0  0
   -6.1090    0.6498    0.0621 C   0  0  0  0  0  0  0  0  0  0  0  0
   -7.2996   -0.0487    0.1040 C   0  0  0  0  0  0  0  0  0  0  0  0
   -7.2922   -1.4426    0.0702 C   0  0  0  0  0  0  0  0  0  0  0  0
   -6.0898   -2.1328   -0.0055 C   0  0  0  0  0  0  0  0  0  0  0  0
   -4.8978   -1.4439   -0.0540 C   0  0  0  0  0  0  0  0  0  0  0  0
   -8.4647   -2.1273    0.1119 O   0  0  0  0  0  0  0  0  0  0  0  0
   -8.4797    0.6232    0.1786 O   0  0  0  0  0  0  0  0  0  0  0  0
   -8.4128    2.0503    0.2100 C   0  0  0  0  0  0  0  0  0  0  0  0
    1.2273    2.0910   -0.1329 O   0  0  0  0  0  0  0  0  0  0  0  0
    8.4506   -2.1357    0.0752 O   0  0  0  0  0  0  0  0  0  0  0  0
    9.4169    2.4479    0.2708 H   0  0  0  0  0  0  0  0  0  0  0  0
    7.9211    2.4103   -0.6934 H   0  0  0  0  0  0  0  0  0  0  0  0
    7.8362    2.3527    1.0836 H   0  0  0  0  0  0  0  0  0  0  0  0
    6.0728   -3.2151   -0.0721 H   0  0  0  0  0  0  0  0  0  0  0  0
    3.9496   -1.9817   -0.1339 H   0  0  0  0  0  0  0  0  0  0  0  0
    6.1073    1.7258    0.0954 H   0  0  0  0  0  0  0  0  0  0  0  0
    3.6208    1.7744   -0.0280 H   0  0  0  0  0  0  0  0  0  0  0  0
    2.4424   -1.0547   -0.1764 H   0  0  0  0  0  0  0  0  0  0  0  0
    0.0277   -1.0182   -0.3782 H   0  0  0  0  0  0  0  0  0  0  0  0
   -2.4569   -1.0586   -0.1599 H   0  0  0  0  0  0  0  0  0  0  0  0
   -3.6267    1.7725   -0.0341 H   0  0  0  0  0  0  0  0  0  0  0  0
   -6.1135    1.7295    0.0889 H   0  0  0  0  0  0  0  0  0  0  0  0
   -6.0893   -3.2125   -0.0307 H   0  0  0  0  0  0  0  0  0  0  0  0
   -3.9641   -1.9834   -0.1131 H   0  0  0  0  0  0  0  0  0  0  0  0
   -8.8479   -2.3044   -0.7580 H   0  0  0  0  0  0  0  0  0  0  0  0
   -7.8393    2.3681    1.0807 H   0  0  0  0  0  0  0  0  0  0  0  0
   -7.9271    2.4113   -0.6966 H   0  0  0  0  0  0  0  0  0  0  0  0
   -9.4211    2.4600    0.2697 H   0  0  0  0  0  0  0  0  0  0  0  0
    0.3463    2.4853   -0.0745 H   0  0  0  0  0  0  0  0  0  0  0  0
    8.7482   -2.3633    0.9666 H   0  0  0  0  0  0  0  0  0  0  0  0
  1  2  1  0  0  0  0
  2  3  1  0  0  0  0
  3  4  2  0  0  0  0
  4  5  1  0  0  0  0
  5  6  2  0  0  0  0
  6  7  1  0  0  0  0
  7  8  2  0  0  0  0
  3  8  1  0  0  0  0
  7  9  1  0  0  0  0
  9 10  2  0  0  0  0
 10 11  1  0  0  0  0
 11 12  2  0  0  0  0
 12 13  1  0  0  0  0
 13 14  2  0  0  0  0
 13 15  1  0  0  0  0
 15 16  2  0  0  0  0
 16 17  1  0  0  0  0
 17 18  2  0  0  0  0
 18 19  1  0  0  0  0
 19 20  2  0  0  0  0
 20 21  1  0  0  0  0
 21 22  2  0  0  0  0
 17 22  1  0  0  0  0
 20 23  1  0  0  0  0
 19 24  1  0  0  0  0
 24 25  1  0  0  0  0
 11 26  1  0  0  0  0
  4 27  1  0  0  0  0
  1 28  1  0  0  0  0
  1 29  1  0  0  0  0
  1 30  1  0  0  0  0
  5 31  1  0  0  0  0
  6 32  1  0  0  0  0
  8 33  1  0  0  0  0
  9 34  1  0  0  0  0
 10 35  1  0  0  0  0
 12 36  1  0  0  0  0
 15 37  1  0  0  0  0
 16 38  1  0  0  0  0
 18 39  1  0  0  0  0
 21 40  1  0  0  0  0
 22 41  1  0  0  0  0
 23 42  1  0  0  0  0
 25 43  1  0  0  0  0
 25 44  1  0  0  0  0
 25 45  1  0  0  0  0
 26 46  1  0  0  0  0
 27 47  1  0  0  0  0
M  END
$$$$
