C15H10O7
APtclcactv06281816463D 0   0.00000     0.00000
 
 32 34  0  0  0  0  0  0  0  0999 V2000
   -4.9906    0.1632    0.0974 C   0  0  0  0  0  0  0  0  0  0  0  0
   -4.1585   -0.8891   -0.1582 C   0  0  0  0  0  0  0  0  0  0  0  0
   -2.7758   -0.7011   -0.1323 C   0  0  0  0  0  0  0  0  0  0  0  0
   -2.2385    0.5653    0.1556 C   0  0  0  0  0  0  0  0  0  0  0  0
   -3.0973    1.6248    0.4128 C   0  0  0  0  0  0  0  0  0  0  0  0
   -4.4668    1.4221    0.3837 C   0  0  0  0  0  0  0  0  0  0  0  0
   -5.3061    2.4591    0.6350 O   0  0  0  0  0  0  0  0  0  0  0  0
   -0.9008    0.7385    0.1796 O   0  0  0  0  0  0  0  0  0  0  0  0
   -0.0418   -0.2658   -0.0642 C   0  0  0  0  0  0  0  0  0  0  0  0
   -0.4590   -1.5311   -0.3532 C   0  0  0  0  0  0  0  0  0  0  0  0
   -1.8475   -1.8137   -0.4026 C   0  0  0  0  0  0  0  0  0  0  0  0
   -2.2580   -2.9342   -0.6585 O   0  0  0  0  0  0  0  0  0  0  0  0
    0.4501   -2.5150   -0.5933 O   0  0  0  0  0  0  0  0  0  0  0  0
    1.4056    0.0112   -0.0177 C   0  0  0  0  0  0  0  0  0  0  0  0
    1.9268    1.1261   -0.6802 C   0  0  0  0  0  0  0  0  0  0  0  0
    3.2846    1.3832   -0.6349 C   0  0  0  0  0  0  0  0  0  0  0  0
    4.1323    0.5327    0.0693 C   0  0  0  0  0  0  0  0  0  0  0  0
    3.6163   -0.5787    0.7297 C   0  0  0  0  0  0  0  0  0  0  0  0
    2.2585   -0.8374    0.6936 C   0  0  0  0  0  0  0  0  0  0  0  0
    4.4477   -1.4079    1.4158 O   0  0  0  0  0  0  0  0  0  0  0  0
    5.4672    0.7879    0.1117 O   0  0  0  0  0  0  0  0  0  0  0  0
    3.7925    2.4678   -1.2792 O   0  0  0  0  0  0  0  0  0  0  0  0
   -6.0608    0.0198    0.0731 H   0  0  0  0  0  0  0  0  0  0  0  0
   -4.5689   -1.8633   -0.3794 H   0  0  0  0  0  0  0  0  0  0  0  0
   -2.6989    2.6035    0.6358 H   0  0  0  0  0  0  0  0  0  0  0  0
   -5.5605    2.9590   -0.1527 H   0  0  0  0  0  0  0  0  0  0  0  0
    0.0555   -3.3759   -0.7886 H   0  0  0  0  0  0  0  0  0  0  0  0
    1.2697    1.7859   -1.2272 H   0  0  0  0  0  0  0  0  0  0  0  0
    1.8587   -1.6998    1.2061 H   0  0  0  0  0  0  0  0  0  0  0  0
    4.5724   -1.1612    2.3425 H   0  0  0  0  0  0  0  0  0  0  0  0
    5.7371    1.3485    0.8519 H   0  0  0  0  0  0  0  0  0  0  0  0
    3.8229    3.2685   -0.7377 H   0  0  0  0  0  0  0  0  0  0  0  0
  1  2  2  0  0  0  0
  2  3  1  0  0  0  0
  3  4  2  0  0  0  0
  4  5  1  0  0  0  0
  5  6  2  0  0  0  0
  1  6  1  0  0  0  0
  6  7  1  0  0  0  0
  4  8  1  0  0  0  0
  8  9  1  0  0  0  0
  9 10  2  0  0  0  0
 10 11  1  0  0  0  0
  3 11  1  0  0  0  0
 11 12  2  0  0  0  0
 10 13  1  0  0  0  0
  9 14  1  0  0  0  0
 14 15  2  0  0  0  0
 15 16  1  0  0  0  0
 16 17  2  0  0  0  0
 17 18  1  0  0  0  0
 18 19  2  0  0  0  0
 14 19  1  0  0  0  0
 18 20  1  0  0  0  0
 17 21  1  0  0  0  0
 16 22  1  0  0  0  0
  1 23  1  0  0  0  0
  2 24  1  0  0  0  0
  5 25  1  0  0  0  0
  7 26  1  0  0  0  0
 13 27  1  0  0  0  0
 15 28  1  0  0  0  0
 19 29  1  0  0  0  0
 20 30  1  0  0  0  0
 21 31  1  0  0  0  0
 22 32  1  0  0  0  0
M  END
$$$$
