C13H11NO4
APtclcactv06281816483D 0   0.00000     0.00000
 
 29 31  0  0  0  0  0  0  0  0999 V2000
   -2.2588    2.8610    1.0810 C   0  0  0  0  0  0  0  0  0  0  0  0
   -1.9837    2.2577   -0.1849 O   0  0  0  0  0  0  0  0  0  0  0  0
   -1.3771    1.0457   -0.1701 C   0  0  0  0  0  0  0  0  0  0  0  0
   -2.1198   -0.1308   -0.1397 C   0  0  0  0  0  0  0  0  0  0  0  0
   -3.5566   -0.4342   -0.1160 C   0  0  0  0  0  0  0  0  0  0  0  0
   -3.6544   -1.7687   -0.0905 C   0  0  0  0  0  0  0  0  0  0  0  0
   -2.4300   -2.3271   -0.0959 O   0  0  0  0  0  0  0  0  0  0  0  0
   -1.4663   -1.3822   -0.1253 C   0  0  0  0  0  0  0  0  0  0  0  0
   -0.1484   -1.4523   -0.1403 N   0  0  0  0  0  0  0  0  0  0  0  0
    0.6168   -0.3564   -0.1696 C   0  0  0  0  0  0  0  0  0  0  0  0
    0.0289    0.9332   -0.1910 C   0  0  0  0  0  0  0  0  0  0  0  0
    0.8457    2.0758   -0.2232 C   0  0  0  0  0  0  0  0  0  0  0  0
    2.1997    1.9421   -0.2337 C   0  0  0  0  0  0  0  0  0  0  0  0
    2.7939    0.6776   -0.2129 C   0  0  0  0  0  0  0  0  0  0  0  0
    2.0220   -0.4651   -0.1850 C   0  0  0  0  0  0  0  0  0  0  0  0
    2.6137   -1.6899   -0.1649 O   0  0  0  0  0  0  0  0  0  0  0  0
    2.9045   -2.2489    1.1176 C   0  0  0  0  0  0  0  0  0  0  0  0
    4.1495    0.5723   -0.2240 O   0  0  0  0  0  0  0  0  0  0  0  0
   -2.7442    3.8246    0.9264 H   0  0  0  0  0  0  0  0  0  0  0  0
   -2.9167    2.2111    1.6579 H   0  0  0  0  0  0  0  0  0  0  0  0
   -1.3252    3.0074    1.6242 H   0  0  0  0  0  0  0  0  0  0  0  0
   -4.3701    0.2762   -0.1182 H   0  0  0  0  0  0  0  0  0  0  0  0
   -4.5834   -2.3189   -0.0687 H   0  0  0  0  0  0  0  0  0  0  0  0
    0.3994    3.0591   -0.2400 H   0  0  0  0  0  0  0  0  0  0  0  0
    2.8227    2.8240   -0.2589 H   0  0  0  0  0  0  0  0  0  0  0  0
    3.3735   -3.2246    0.9908 H   0  0  0  0  0  0  0  0  0  0  0  0
    3.5824   -1.5873    1.6571 H   0  0  0  0  0  0  0  0  0  0  0  0
    1.9796   -2.3611    1.6833 H   0  0  0  0  0  0  0  0  0  0  0  0
    4.5503    0.5605    0.6559 H   0  0  0  0  0  0  0  0  0  0  0  0
  1  2  1  0  0  0  0
  2  3  1  0  0  0  0
  3  4  2  0  0  0  0
  4  5  1  0  0  0  0
  5  6  2  0  0  0  0
  6  7  1  0  0  0  0
  7  8  1  0  0  0  0
  4  8  1  0  0  0  0
  8  9  2  0  0  0  0
  9 10  1  0  0  0  0
 10 11  2  0  0  0  0
  3 11  1  0  0  0  0
 11 12  1  0  0  0  0
 12 13  2  0  0  0  0
 13 14  1  0  0  0  0
 14 15  2  0  0  0  0
 10 15  1  0  0  0  0
 15 16  1  0  0  0  0
 16 17  1  0  0  0  0
 14 18  1  0  0  0  0
  1 19  1  0  0  0  0
  1 20  1  0  0  0  0
  1 21  1  0  0  0  0
  5 22  1  0  0  0  0
  6 23  1  0  0  0  0
 12 24  1  0  0  0  0
 13 25  1  0  0  0  0
 17 26  1  0  0  0  0
 17 27  1  0  0  0  0
 17 28  1  0  0  0  0
 18 29  1  0  0  0  0
M  END
$$$$
