C6H11NO3S
APtclcactv06281816433D 0   0.00000     0.00000
 
 22 21  0  0  0  0  0  0  0  0999 V2000
    4.7401   -1.0716    0.4767 C   0  0  0  0  0  0  0  0  0  0  0  0
    3.6160   -0.1046    0.2077 C   0  0  0  0  0  0  0  0  0  0  0  0
    2.3734   -0.5177    0.2461 C   0  0  0  0  0  0  0  0  0  0  0  0
    1.0591    0.6129   -0.0684 S   0  0  0  0  0  0  0  0  0  0  0  0
    1.2476    0.9498   -1.4360 O   0  0  0  0  0  0  0  0  0  0  0  0
   -0.4200   -0.4236    0.1006 C   0  0  0  0  0  0  0  0  0  0  0  0
   -1.6686    0.4253   -0.1471 C   0  0  0  0  0  0  0  0  0  0  0  0
   -2.8974   -0.4358   -0.0067 C   0  0  0  0  0  0  0  0  0  0  0  0
   -3.5395   -0.4099    1.0165 O   0  0  0  0  0  0  0  0  0  0  0  0
   -3.2785   -1.2315   -1.0182 O   0  0  0  0  0  0  0  0  0  0  0  0
   -1.7211    1.5172    0.8342 N   0  0  0  0  0  0  0  0  0  0  0  0
    4.6311   -1.4857    1.4791 H   0  0  0  0  0  0  0  0  0  0  0  0
    4.7082   -1.8786   -0.2553 H   0  0  0  0  0  0  0  0  0  0  0  0
    5.6942   -0.5499    0.4009 H   0  0  0  0  0  0  0  0  0  0  0  0
    3.8348    0.9289   -0.0167 H   0  0  0  0  0  0  0  0  0  0  0  0
    2.1546   -1.5512    0.4705 H   0  0  0  0  0  0  0  0  0  0  0  0
   -0.3811   -1.2338   -0.6275 H   0  0  0  0  0  0  0  0  0  0  0  0
   -0.4581   -0.8409    1.1069 H   0  0  0  0  0  0  0  0  0  0  0  0
   -1.6305    0.8426   -1.1534 H   0  0  0  0  0  0  0  0  0  0  0  0
   -4.0731   -1.7654   -0.8815 H   0  0  0  0  0  0  0  0  0  0  0  0
   -2.5017    2.1299    0.6519 H   0  0  0  0  0  0  0  0  0  0  0  0
   -1.7570    1.1559    1.7756 H   0  0  0  0  0  0  0  0  0  0  0  0
  1  2  1  0  0  0  0
  2  3  2  0  0  0  0
  3  4  1  0  0  0  0
  4  5  2  0  0  0  0
  4  6  1  0  0  0  0
  6  7  1  0  0  0  0
  7  8  1  0  0  0  0
  8  9  2  0  0  0  0
  8 10  1  0  0  0  0
  7 11  1  0  0  0  0
  1 12  1  0  0  0  0
  1 13  1  0  0  0  0
  1 14  1  0  0  0  0
  2 15  1  0  0  0  0
  3 16  1  0  0  0  0
  6 17  1  0  0  0  0
  6 18  1  0  0  0  0
  7 19  1  0  0  0  0
 10 20  1  0  0  0  0
 11 21  1  0  0  0  0
 11 22  1  0  0  0  0
M  END
$$$$
