C40H56O
APtclcactv06281816443D 0   0.00000     0.00000
 
 97 99  0  0  0  0  0  0  0  0999 V2000
  -10.8000    2.1882    0.7769 C   0  0  0  0  0  0  0  0  0  0  0  0
  -11.8977    1.3716    0.1450 C   0  0  0  0  0  0  0  0  0  0  0  0
  -11.6941    0.0758   -0.0223 C   0  0  0  0  0  0  0  0  0  0  0  0
  -12.6969   -0.8514   -0.6450 C   0  0  0  0  0  0  0  0  0  0  0  0
  -14.0818   -0.2010   -0.6521 C   0  0  0  0  0  0  0  0  0  0  0  0
  -13.9548    1.2098   -1.2397 C   0  0  0  0  0  0  0  0  0  0  0  0
  -13.1629    2.0741   -0.2536 C   0  0  0  0  0  0  0  0  0  0  0  0
  -12.2755   -1.1629   -2.0825 C   0  0  0  0  0  0  0  0  0  0  0  0
  -12.7517   -2.1526    0.1579 C   0  0  0  0  0  0  0  0  0  0  0  0
  -10.4586   -0.4685    0.4107 C   0  0  0  0  0  0  0  0  0  0  0  0
   -9.2906    0.0222   -0.0807 C   0  0  0  0  0  0  0  0  0  0  0  0
   -8.0646   -0.4255    0.4423 C   0  0  0  0  0  0  0  0  0  0  0  0
   -6.8917    0.0672   -0.0511 C   0  0  0  0  0  0  0  0  0  0  0  0
   -5.6691   -0.3793    0.4704 C   0  0  0  0  0  0  0  0  0  0  0  0
   -4.4860    0.1177   -0.0273 C   0  0  0  0  0  0  0  0  0  0  0  0
   -3.2647   -0.3283    0.4937 C   0  0  0  0  0  0  0  0  0  0  0  0
   -2.0811    0.1689   -0.0042 C   0  0  0  0  0  0  0  0  0  0  0  0
   -0.8597   -0.2771    0.5168 C   0  0  0  0  0  0  0  0  0  0  0  0
    0.3233    0.2198    0.0192 C   0  0  0  0  0  0  0  0  0  0  0  0
    1.5459   -0.2266    0.5407 C   0  0  0  0  0  0  0  0  0  0  0  0
    2.7188    0.2661    0.0473 C   0  0  0  0  0  0  0  0  0  0  0  0
    2.7002    1.2901   -1.0582 C   0  0  0  0  0  0  0  0  0  0  0  0
    3.9448   -0.1816    0.5703 C   0  0  0  0  0  0  0  0  0  0  0  0
    5.1128    0.3091    0.0789 C   0  0  0  0  0  0  0  0  0  0  0  0
    6.3490   -0.1424    0.6062 C   0  0  0  0  0  0  0  0  0  0  0  0
    7.4978    0.3402    0.1230 C   0  0  0  0  0  0  0  0  0  0  0  0
    7.4791    1.3643   -0.9825 C   0  0  0  0  0  0  0  0  0  0  0  0
    8.8118   -0.1396    0.6835 C   0  0  0  0  0  0  0  0  0  0  0  0
    9.5916   -0.8907   -0.3775 C   0  0  0  0  0  0  0  0  0  0  0  0
   10.8287   -0.5136   -0.3077 C   0  0  0  0  0  0  0  0  0  0  0  0
   12.0283   -0.8961   -1.1444 C   0  0  0  0  0  0  0  0  0  0  0  0
   13.2647   -0.4535   -0.3515 C   0  0  0  0  0  0  0  0  0  0  0  0
   13.2575    1.0384   -0.0651 C   0  0  0  0  0  0  0  0  0  0  0  0
   11.8822    1.6048    0.2638 C   0  0  0  0  0  0  0  0  0  0  0  0
   10.9720    0.5070    0.8170 C   0  0  0  0  0  0  0  0  0  0  0  0
    9.6407    0.9861    1.0477 O   0  0  0  0  0  0  0  0  0  0  0  0
   11.5730   -0.1290    2.0721 C   0  0  0  0  0  0  0  0  0  0  0  0
   12.0571   -2.4105   -1.3602 C   0  0  0  0  0  0  0  0  0  0  0  0
   11.9815   -0.1725   -2.4917 C   0  0  0  0  0  0  0  0  0  0  0  0
   -3.2460   -1.3524    1.5992 C   0  0  0  0  0  0  0  0  0  0  0  0
   -8.0460   -1.4496    1.5478 C   0  0  0  0  0  0  0  0  0  0  0  0
  -10.0847    2.4894    0.0116 H   0  0  0  0  0  0  0  0  0  0  0  0
  -11.2292    3.0754    1.2425 H   0  0  0  0  0  0  0  0  0  0  0  0
  -10.2922    1.5903    1.5337 H   0  0  0  0  0  0  0  0  0  0  0  0
  -14.7612   -0.7931   -1.2653 H   0  0  0  0  0  0  0  0  0  0  0  0
  -14.4630   -0.1401    0.3672 H   0  0  0  0  0  0  0  0  0  0  0  0
  -13.4307    1.1631   -2.1942 H   0  0  0  0  0  0  0  0  0  0  0  0
  -14.9471    1.6370   -1.3842 H   0  0  0  0  0  0  0  0  0  0  0  0
  -13.7719    2.2642    0.6302 H   0  0  0  0  0  0  0  0  0  0  0  0
  -12.9104    3.0230   -0.7269 H   0  0  0  0  0  0  0  0  0  0  0  0
  -11.2941   -1.6372   -2.0787 H   0  0  0  0  0  0  0  0  0  0  0  0
  -13.0026   -1.8361   -2.5365 H   0  0  0  0  0  0  0  0  0  0  0  0
  -12.2295   -0.2373   -2.6563 H   0  0  0  0  0  0  0  0  0  0  0  0
  -13.1189   -1.9443    1.1628 H   0  0  0  0  0  0  0  0  0  0  0  0
  -13.4225   -2.8560   -0.3355 H   0  0  0  0  0  0  0  0  0  0  0  0
  -11.7528   -2.5846    0.2183 H   0  0  0  0  0  0  0  0  0  0  0  0
  -10.4458   -1.2731    1.1310 H   0  0  0  0  0  0  0  0  0  0  0  0
   -9.3040    0.7561   -0.8729 H   0  0  0  0  0  0  0  0  0  0  0  0
   -6.9050    0.8011   -0.8434 H   0  0  0  0  0  0  0  0  0  0  0  0
   -5.6557   -1.1132    1.2626 H   0  0  0  0  0  0  0  0  0  0  0  0
   -4.4994    0.8516   -0.8195 H   0  0  0  0  0  0  0  0  0  0  0  0
   -2.0945    0.9028   -0.7964 H   0  0  0  0  0  0  0  0  0  0  0  0
   -0.8464   -1.0110    1.3091 H   0  0  0  0  0  0  0  0  0  0  0  0
    0.3099    0.9537   -0.7731 H   0  0  0  0  0  0  0  0  0  0  0  0
    1.5592   -0.9605    1.3329 H   0  0  0  0  0  0  0  0  0  0  0  0
    2.6730    2.2906   -0.6263 H   0  0  0  0  0  0  0  0  0  0  0  0
    3.5968    1.1822   -1.6686 H   0  0  0  0  0  0  0  0  0  0  0  0
    1.8174    1.1383   -1.6792 H   0  0  0  0  0  0  0  0  0  0  0  0
    3.9582   -0.9155    1.3625 H   0  0  0  0  0  0  0  0  0  0  0  0
    5.0995    1.0429   -0.7133 H   0  0  0  0  0  0  0  0  0  0  0  0
    6.3624   -0.8763    1.3985 H   0  0  0  0  0  0  0  0  0  0  0  0
    7.4519    2.3647   -0.5506 H   0  0  0  0  0  0  0  0  0  0  0  0
    8.3757    1.2563   -1.5929 H   0  0  0  0  0  0  0  0  0  0  0  0
    6.5963    1.2125   -1.6035 H   0  0  0  0  0  0  0  0  0  0  0  0
    8.6407   -0.7793    1.5493 H   0  0  0  0  0  0  0  0  0  0  0  0
    9.1867   -1.6139   -1.0699 H   0  0  0  0  0  0  0  0  0  0  0  0
   13.2915   -0.9952    0.5939 H   0  0  0  0  0  0  0  0  0  0  0  0
   14.1590   -0.6996   -0.9240 H   0  0  0  0  0  0  0  0  0  0  0  0
   13.9226    1.2329    0.7763 H   0  0  0  0  0  0  0  0  0  0  0  0
   13.6476    1.5609   -0.9387 H   0  0  0  0  0  0  0  0  0  0  0  0
   11.9861    2.3955    1.0068 H   0  0  0  0  0  0  0  0  0  0  0  0
   11.4376    2.0200   -0.6407 H   0  0  0  0  0  0  0  0  0  0  0  0
   11.5756    0.5994    2.8829 H   0  0  0  0  0  0  0  0  0  0  0  0
   10.9764   -0.9938    2.3624 H   0  0  0  0  0  0  0  0  0  0  0  0
   12.5952   -0.4458    1.8649 H   0  0  0  0  0  0  0  0  0  0  0  0
   11.1480   -2.7214   -1.8750 H   0  0  0  0  0  0  0  0  0  0  0  0
   12.9251   -2.6751   -1.9640 H   0  0  0  0  0  0  0  0  0  0  0  0
   12.1185   -2.9139   -0.3954 H   0  0  0  0  0  0  0  0  0  0  0  0
   11.9896    0.9048   -2.3260 H   0  0  0  0  0  0  0  0  0  0  0  0
   12.8501   -0.4552   -3.0863 H   0  0  0  0  0  0  0  0  0  0  0  0
   11.0713   -0.4517   -3.0225 H   0  0  0  0  0  0  0  0  0  0  0  0
   -3.2188   -2.3528    1.1673 H   0  0  0  0  0  0  0  0  0  0  0  0
   -2.3632   -1.2006    2.2202 H   0  0  0  0  0  0  0  0  0  0  0  0
   -4.1426   -1.2444    2.2096 H   0  0  0  0  0  0  0  0  0  0  0  0
   -8.0187   -2.4500    1.1159 H   0  0  0  0  0  0  0  0  0  0  0  0
   -7.1632   -1.2978    2.1688 H   0  0  0  0  0  0  0  0  0  0  0  0
   -8.9426   -1.3416    2.1582 H   0  0  0  0  0  0  0  0  0  0  0  0
  1  2  1  0  0  0  0
  2  3  2  0  0  0  0
  3  4  1  0  0  0  0
  4  5  1  0  0  0  0
  5  6  1  0  0  0  0
  6  7  1  0  0  0  0
  2  7  1  0  0  0  0
  4  8  1  0  0  0  0
  4  9  1  0  0  0  0
  3 10  1  0  0  0  0
 10 11  2  0  0  0  0
 11 12  1  0  0  0  0
 12 13  2  0  0  0  0
 13 14  1  0  0  0  0
 14 15  2  0  0  0  0
 15 16  1  0  0  0  0
 16 17  2  0  0  0  0
 17 18  1  0  0  0  0
 18 19  2  0  0  0  0
 19 20  1  0  0  0  0
 20 21  2  0  0  0  0
 21 22  1  0  0  0  0
 21 23  1  0  0  0  0
 23 24  2  0  0  0  0
 24 25  1  0  0  0  0
 25 26  2  0  0  0  0
 26 27  1  0  0  0  0
 26 28  1  0  0  0  0
 28 29  1  0  0  0  0
 29 30  2  0  0  0  0
 30 31  1  0  0  0  0
 31 32  1  0  0  0  0
 32 33  1  0  0  0  0
 33 34  1  0  0  0  0
 34 35  1  0  0  0  0
 30 35  1  0  0  0  0
 35 36  1  0  0  0  0
 28 36  1  0  0  0  0
 35 37  1  0  0  0  0
 31 38  1  0  0  0  0
 31 39  1  0  0  0  0
 16 40  1  0  0  0  0
 12 41  1  0  0  0  0
  1 42  1  0  0  0  0
  1 43  1  0  0  0  0
  1 44  1  0  0  0  0
  5 45  1  0  0  0  0
  5 46  1  0  0  0  0
  6 47  1  0  0  0  0
  6 48  1  0  0  0  0
  7 49  1  0  0  0  0
  7 50  1  0  0  0  0
  8 51  1  0  0  0  0
  8 52  1  0  0  0  0
  8 53  1  0  0  0  0
  9 54  1  0  0  0  0
  9 55  1  0  0  0  0
  9 56  1  0  0  0  0
 10 57  1  0  0  0  0
 11 58  1  0  0  0  0
 13 59  1  0  0  0  0
 14 60  1  0  0  0  0
 15 61  1  0  0  0  0
 17 62  1  0  0  0  0
 18 63  1  0  0  0  0
 19 64  1  0  0  0  0
 20 65  1  0  0  0  0
 22 66  1  0  0  0  0
 22 67  1  0  0  0  0
 22 68  1  0  0  0  0
 23 69  1  0  0  0  0
 24 70  1  0  0  0  0
 25 71  1  0  0  0  0
 27 72  1  0  0  0  0
 27 73  1  0  0  0  0
 27 74  1  0  0  0  0
 28 75  1  0  0  0  0
 29 76  1  0  0  0  0
 32 77  1  0  0  0  0
 32 78  1  0  0  0  0
 33 79  1  0  0  0  0
 33 80  1  0  0  0  0
 34 81  1  0  0  0  0
 34 82  1  0  0  0  0
 37 83  1  0  0  0  0
 37 84  1  0  0  0  0
 37 85  1  0  0  0  0
 38 86  1  0  0  0  0
 38 87  1  0  0  0  0
 38 88  1  0  0  0  0
 39 89  1  0  0  0  0
 39 90  1  0  0  0  0
 39 91  1  0  0  0  0
 40 92  1  0  0  0  0
 40 93  1  0  0  0  0
 40 94  1  0  0  0  0
 41 95  1  0  0  0  0
 41 96  1  0  0  0  0
 41 97  1  0  0  0  0
M  END
$$$$
