C14H10O5
APtclcactv06281816463D 0   0.00000     0.00000
 
 29 31  0  0  0  0  0  0  0  0999 V2000
    5.5221    0.5028   -0.3379 C   0  0  0  0  0  0  0  0  0  0  0  0
    4.3750    1.3361   -0.1595 O   0  0  0  0  0  0  0  0  0  0  0  0
    3.1721    0.7156   -0.0598 C   0  0  0  0  0  0  0  0  0  0  0  0
    3.1061   -0.6710   -0.1335 C   0  0  0  0  0  0  0  0  0  0  0  0
    1.8837   -1.3111   -0.0376 C   0  0  0  0  0  0  0  0  0  0  0  0
    0.7188   -0.5513    0.1294 C   0  0  0  0  0  0  0  0  0  0  0  0
    0.7864    0.8510    0.2153 C   0  0  0  0  0  0  0  0  0  0  0  0
    2.0238    1.4717    0.1200 C   0  0  0  0  0  0  0  0  0  0  0  0
   -0.3253    1.5911    0.3996 O   0  0  0  0  0  0  0  0  0  0  0  0
   -1.5594    1.0885    0.1894 C   0  0  0  0  0  0  0  0  0  0  0  0
   -1.7705   -0.2950    0.0901 C   0  0  0  0  0  0  0  0  0  0  0  0
   -0.6034   -1.1966    0.2106 C   0  0  0  0  0  0  0  0  0  0  0  0
   -0.7280   -2.3979    0.3665 O   0  0  0  0  0  0  0  0  0  0  0  0
   -3.0507   -0.8030   -0.1206 C   0  0  0  0  0  0  0  0  0  0  0  0
   -4.1189    0.0674   -0.2365 C   0  0  0  0  0  0  0  0  0  0  0  0
   -3.9111    1.4397   -0.1423 C   0  0  0  0  0  0  0  0  0  0  0  0
   -2.6476    1.9474    0.0681 C   0  0  0  0  0  0  0  0  0  0  0  0
   -5.3723   -0.4180   -0.4422 O   0  0  0  0  0  0  0  0  0  0  0  0
    1.8134   -2.6643   -0.1051 O   0  0  0  0  0  0  0  0  0  0  0  0
    5.6125   -0.1771    0.5093 H   0  0  0  0  0  0  0  0  0  0  0  0
    5.4129   -0.0738   -1.2565 H   0  0  0  0  0  0  0  0  0  0  0  0
    6.4157    1.1236   -0.4026 H   0  0  0  0  0  0  0  0  0  0  0  0
    4.0091   -1.2485   -0.2660 H   0  0  0  0  0  0  0  0  0  0  0  0
    2.0918    2.5480    0.1777 H   0  0  0  0  0  0  0  0  0  0  0  0
   -3.2075   -1.8691   -0.1932 H   0  0  0  0  0  0  0  0  0  0  0  0
   -4.7492    2.1145   -0.2352 H   0  0  0  0  0  0  0  0  0  0  0  0
   -2.5014    3.0150    0.1399 H   0  0  0  0  0  0  0  0  0  0  0  0
   -5.8625   -0.5988    0.3716 H   0  0  0  0  0  0  0  0  0  0  0  0
    1.8874   -3.1052    0.7523 H   0  0  0  0  0  0  0  0  0  0  0  0
  1  2  1  0  0  0  0
  2  3  1  0  0  0  0
  3  4  2  0  0  0  0
  4  5  1  0  0  0  0
  5  6  2  0  0  0  0
  6  7  1  0  0  0  0
  7  8  2  0  0  0  0
  3  8  1  0  0  0  0
  7  9  1  0  0  0  0
  9 10  1  0  0  0  0
 10 11  2  0  0  0  0
 11 12  1  0  0  0  0
  6 12  1  0  0  0  0
 12 13  2  0  0  0  0
 11 14  1  0  0  0  0
 14 15  2  0  0  0  0
 15 16  1  0  0  0  0
 16 17  2  0  0  0  0
 10 17  1  0  0  0  0
 15 18  1  0  0  0  0
  5 19  1  0  0  0  0
  1 20  1  0  0  0  0
  1 21  1  0  0  0  0
  1 22  1  0  0  0  0
  4 23  1  0  0  0  0
  8 24  1  0  0  0  0
 14 25  1  0  0  0  0
 16 26  1  0  0  0  0
 17 27  1  0  0  0  0
 18 28  1  0  0  0  0
 19 29  1  0  0  0  0
M  END
$$$$
