C17H16O4
APtclcactv06281816473D 0   0.00000     0.00000
 
 37 38  0  0  0  0  0  0  0  0999 V2000
   -7.7043   -0.5122   -0.0072 C   0  0  0  0  0  0  0  0  0  0  0  0
   -7.0679   -0.2452    1.1906 C   0  0  0  0  0  0  0  0  0  0  0  0
   -5.7913    0.2849    1.1919 C   0  0  0  0  0  0  0  0  0  0  0  0
   -5.1509    0.5478   -0.0046 C   0  0  0  0  0  0  0  0  0  0  0  0
   -5.7868    0.2800   -1.2024 C   0  0  0  0  0  0  0  0  0  0  0  0
   -7.0640   -0.2489   -1.2037 C   0  0  0  0  0  0  0  0  0  0  0  0
   -3.7595    1.1267   -0.0032 C   0  0  0  0  0  0  0  0  0  0  0  0
   -2.7345   -0.0092    0.0013 C   0  0  0  0  0  0  0  0  0  0  0  0
   -1.4151    0.5398    0.0027 O   0  0  0  0  0  0  0  0  0  0  0  0
   -0.3877   -0.3349    0.0066 C   0  0  0  0  0  0  0  0  0  0  0  0
   -0.6075   -1.5313    0.0089 O   0  0  0  0  0  0  0  0  0  0  0  0
    0.9480    0.1405    0.0082 C   0  0  0  0  0  0  0  0  0  0  0  0
    1.9767   -0.7352    0.0121 C   0  0  0  0  0  0  0  0  0  0  0  0
    3.3612   -0.2424    0.0137 C   0  0  0  0  0  0  0  0  0  0  0  0
    4.4286   -1.1481    0.0178 C   0  0  0  0  0  0  0  0  0  0  0  0
    5.7273   -0.6789    0.0188 C   0  0  0  0  0  0  0  0  0  0  0  0
    5.9732    0.6937    0.0162 C   0  0  0  0  0  0  0  0  0  0  0  0
    4.9150    1.5929    0.0126 C   0  0  0  0  0  0  0  0  0  0  0  0
    3.6164    1.1338    0.0053 C   0  0  0  0  0  0  0  0  0  0  0  0
    7.2516    1.1525    0.0176 O   0  0  0  0  0  0  0  0  0  0  0  0
    6.7668   -1.5558    0.0228 O   0  0  0  0  0  0  0  0  0  0  0  0
   -8.6999   -0.9306   -0.0082 H   0  0  0  0  0  0  0  0  0  0  0  0
   -7.5683   -0.4506    2.1254 H   0  0  0  0  0  0  0  0  0  0  0  0
   -5.2944    0.4942    2.1277 H   0  0  0  0  0  0  0  0  0  0  0  0
   -5.2867    0.4860   -2.1372 H   0  0  0  0  0  0  0  0  0  0  0  0
   -7.5610   -0.4577   -2.1395 H   0  0  0  0  0  0  0  0  0  0  0  0
   -3.6197    1.7387   -0.8943 H   0  0  0  0  0  0  0  0  0  0  0  0
   -3.6232    1.7427    0.8857 H   0  0  0  0  0  0  0  0  0  0  0  0
   -2.8743   -0.6211    0.8924 H   0  0  0  0  0  0  0  0  0  0  0  0
   -2.8708   -0.6251   -0.8875 H   0  0  0  0  0  0  0  0  0  0  0  0
    1.1431    1.2028    0.0062 H   0  0  0  0  0  0  0  0  0  0  0  0
    1.7816   -1.7974    0.0141 H   0  0  0  0  0  0  0  0  0  0  0  0
    4.2369   -2.2109    0.0205 H   0  0  0  0  0  0  0  0  0  0  0  0
    5.1107    2.6550    0.0109 H   0  0  0  0  0  0  0  0  0  0  0  0
    2.7954    1.8355    0.0024 H   0  0  0  0  0  0  0  0  0  0  0  0
    7.6235    1.2834   -0.8654 H   0  0  0  0  0  0  0  0  0  0  0  0
    7.0689   -1.8116   -0.8595 H   0  0  0  0  0  0  0  0  0  0  0  0
  1  2  2  0  0  0  0
  2  3  1  0  0  0  0
  3  4  2  0  0  0  0
  4  5  1  0  0  0  0
  5  6  2  0  0  0  0
  1  6  1  0  0  0  0
  4  7  1  0  0  0  0
  7  8  1  0  0  0  0
  8  9  1  0  0  0  0
  9 10  1  0  0  0  0
 10 11  2  0  0  0  0
 10 12  1  0  0  0  0
 12 13  2  0  0  0  0
 13 14  1  0  0  0  0
 14 15  2  0  0  0  0
 15 16  1  0  0  0  0
 16 17  2  0  0  0  0
 17 18  1  0  0  0  0
 18 19  2  0  0  0  0
 14 19  1  0  0  0  0
 17 20  1  0  0  0  0
 16 21  1  0  0  0  0
  1 22  1  0  0  0  0
  2 23  1  0  0  0  0
  3 24  1  0  0  0  0
  5 25  1  0  0  0  0
  6 26  1  0  0  0  0
  7 27  1  0  0  0  0
  7 28  1  0  0  0  0
  8 29  1  0  0  0  0
  8 30  1  0  0  0  0
 12 31  1  0  0  0  0
 13 32  1  0  0  0  0
 15 33  1  0  0  0  0
 18 34  1  0  0  0  0
 19 35  1  0  0  0  0
 20 36  1  0  0  0  0
 21 37  1  0  0  0  0
M  END
$$$$
