C18H16O7
APtclcactv06281816463D 0   0.00000     0.00000
 
 41 43  0  0  0  0  0  0  0  0999 V2000
   -6.7592   -1.7043    0.7442 C   0  0  0  0  0  0  0  0  0  0  0  0
   -6.2921   -0.7140   -0.1740 O   0  0  0  0  0  0  0  0  0  0  0  0
   -4.9693   -0.4102   -0.1330 C   0  0  0  0  0  0  0  0  0  0  0  0
   -4.4506    0.5444   -0.9993 C   0  0  0  0  0  0  0  0  0  0  0  0
   -3.1094    0.8561   -0.9608 C   0  0  0  0  0  0  0  0  0  0  0  0
   -2.2698    0.2104   -0.0485 C   0  0  0  0  0  0  0  0  0  0  0  0
   -2.7961   -0.7492    0.8211 C   0  0  0  0  0  0  0  0  0  0  0  0
   -4.1395   -1.0507    0.7792 C   0  0  0  0  0  0  0  0  0  0  0  0
   -0.8334    0.5403   -0.0039 C   0  0  0  0  0  0  0  0  0  0  0  0
   -0.4615    1.8511    0.0158 C   0  0  0  0  0  0  0  0  0  0  0  0
    0.9168    2.1852    0.0592 C   0  0  0  0  0  0  0  0  0  0  0  0
    1.2870    3.3483    0.0784 O   0  0  0  0  0  0  0  0  0  0  0  0
    1.8827    1.0750    0.0806 C   0  0  0  0  0  0  0  0  0  0  0  0
    1.3922   -0.2422    0.0573 C   0  0  0  0  0  0  0  0  0  0  0  0
    0.0605   -0.4629    0.0213 O   0  0  0  0  0  0  0  0  0  0  0  0
    2.2883   -1.3042    0.0770 C   0  0  0  0  0  0  0  0  0  0  0  0
    3.6543   -1.0585    0.1192 C   0  0  0  0  0  0  0  0  0  0  0  0
    4.1390    0.2447    0.1428 C   0  0  0  0  0  0  0  0  0  0  0  0
    3.2625    1.3131    0.1229 C   0  0  0  0  0  0  0  0  0  0  0  0
    3.7358    2.5858    0.1459 O   0  0  0  0  0  0  0  0  0  0  0  0
    4.5254   -2.1009    0.1382 O   0  0  0  0  0  0  0  0  0  0  0  0
    5.9177   -1.7822    0.1818 C   0  0  0  0  0  0  0  0  0  0  0  0
    1.8270   -2.5852    0.0552 O   0  0  0  0  0  0  0  0  0  0  0  0
    1.6448   -3.1874   -1.2278 C   0  0  0  0  0  0  0  0  0  0  0  0
   -1.4046    2.8320   -0.0063 O   0  0  0  0  0  0  0  0  0  0  0  0
   -6.5662   -1.3735    1.7647 H   0  0  0  0  0  0  0  0  0  0  0  0
   -7.8304   -1.8513    0.6063 H   0  0  0  0  0  0  0  0  0  0  0  0
   -6.2371   -2.6437    0.5620 H   0  0  0  0  0  0  0  0  0  0  0  0
   -5.0999    1.0425   -1.7040 H   0  0  0  0  0  0  0  0  0  0  0  0
   -2.7070    1.5979   -1.6348 H   0  0  0  0  0  0  0  0  0  0  0  0
   -2.1511   -1.2505    1.5276 H   0  0  0  0  0  0  0  0  0  0  0  0
   -4.5470   -1.7918    1.4509 H   0  0  0  0  0  0  0  0  0  0  0  0
    5.2037    0.4225    0.1764 H   0  0  0  0  0  0  0  0  0  0  0  0
    3.9001    2.9602   -0.7304 H   0  0  0  0  0  0  0  0  0  0  0  0
    6.5011   -2.7029    0.1930 H   0  0  0  0  0  0  0  0  0  0  0  0
    6.1836   -1.1944   -0.6968 H   0  0  0  0  0  0  0  0  0  0  0  0
    6.1306   -1.2062    1.0823 H   0  0  0  0  0  0  0  0  0  0  0  0
    0.9234   -2.6066   -1.8026 H   0  0  0  0  0  0  0  0  0  0  0  0
    2.5973   -3.2101   -1.7572 H   0  0  0  0  0  0  0  0  0  0  0  0
    1.2745   -4.2049   -1.1024 H   0  0  0  0  0  0  0  0  0  0  0  0
   -1.0408    3.7279    0.0105 H   0  0  0  0  0  0  0  0  0  0  0  0
  1  2  1  0  0  0  0
  2  3  1  0  0  0  0
  3  4  2  0  0  0  0
  4  5  1  0  0  0  0
  5  6  2  0  0  0  0
  6  7  1  0  0  0  0
  7  8  2  0  0  0  0
  3  8  1  0  0  0  0
  6  9  1  0  0  0  0
  9 10  2  0  0  0  0
 10 11  1  0  0  0  0
 11 12  2  0  0  0  0
 11 13  1  0  0  0  0
 13 14  2  0  0  0  0
 14 15  1  0  0  0  0
  9 15  1  0  0  0  0
 14 16  1  0  0  0  0
 16 17  2  0  0  0  0
 17 18  1  0  0  0  0
 18 19  2  0  0  0  0
 13 19  1  0  0  0  0
 19 20  1  0  0  0  0
 17 21  1  0  0  0  0
 21 22  1  0  0  0  0
 16 23  1  0  0  0  0
 23 24  1  0  0  0  0
 10 25  1  0  0  0  0
  1 26  1  0  0  0  0
  1 27  1  0  0  0  0
  1 28  1  0  0  0  0
  4 29  1  0  0  0  0
  5 30  1  0  0  0  0
  7 31  1  0  0  0  0
  8 32  1  0  0  0  0
 18 33  1  0  0  0  0
 20 34  1  0  0  0  0
 22 35  1  0  0  0  0
 22 36  1  0  0  0  0
 22 37  1  0  0  0  0
 24 38  1  0  0  0  0
 24 39  1  0  0  0  0
 24 40  1  0  0  0  0
 25 41  1  0  0  0  0
M  END
$$$$
