C21H20O11
APtclcactv06281816443D 0   0.00000     0.00000
 
 52 54  0  0  0  0  0  0  0  0999 V2000
   -3.9276   -0.8955    0.5077 C   0  0  0  0  0  0  0  0  0  0  0  0
   -5.1763   -0.8245    1.0818 C   0  0  0  0  0  0  0  0  0  0  0  0
   -6.1659   -0.0361    0.5047 C   0  0  0  0  0  0  0  0  0  0  0  0
   -5.8999    0.6845   -0.6547 C   0  0  0  0  0  0  0  0  0  0  0  0
   -4.6545    0.6210   -1.2368 C   0  0  0  0  0  0  0  0  0  0  0  0
   -3.6541   -0.1715   -0.6597 C   0  0  0  0  0  0  0  0  0  0  0  0
   -2.3231   -0.2427   -1.2763 C   0  0  0  0  0  0  0  0  0  0  0  0
   -1.3587   -1.0087   -0.7170 C   0  0  0  0  0  0  0  0  0  0  0  0
   -0.0343   -1.0795   -1.3305 C   0  0  0  0  0  0  0  0  0  0  0  0
    0.1808   -0.5057   -2.3833 O   0  0  0  0  0  0  0  0  0  0  0  0
    1.0414   -1.8454   -0.6753 C   0  0  0  0  0  0  0  0  0  0  0  0
    2.2328   -1.2236   -0.3682 C   0  0  0  0  0  0  0  0  0  0  0  0
    3.3039   -2.0143    0.2921 C   0  0  0  0  0  0  0  0  0  0  0  0
    4.3622   -1.5062    0.5780 O   0  0  0  0  0  0  0  0  0  0  0  0
    3.0380   -3.4571    0.5948 C   0  0  0  0  0  0  0  0  0  0  0  0
    3.8881   -4.1393    1.1348 O   0  0  0  0  0  0  0  0  0  0  0  0
    1.7964   -4.0126    0.2483 C   0  0  0  0  0  0  0  0  0  0  0  0
    0.8318   -3.2627   -0.3504 C   0  0  0  0  0  0  0  0  0  0  0  0
   -0.3483   -3.8409   -0.6652 O   0  0  0  0  0  0  0  0  0  0  0  0
    2.4234    0.0806   -0.6625 O   0  0  0  0  0  0  0  0  0  0  0  0
    2.6692    0.9638    0.4337 C   0  0  0  0  0  0  0  0  0  0  0  0
    3.1989    2.2992   -0.0954 C   0  0  0  0  0  0  0  0  0  0  0  0
    2.1322    2.9467   -0.9839 C   0  0  0  0  0  0  0  0  0  0  0  0
    0.8418    3.1125   -0.1753 C   0  0  0  0  0  0  0  0  0  0  0  0
    0.4032    1.7457    0.3569 C   0  0  0  0  0  0  0  0  0  0  0  0
    1.4522    1.1855    1.1493 O   0  0  0  0  0  0  0  0  0  0  0  0
   -0.8521    1.9115    1.2158 C   0  0  0  0  0  0  0  0  0  0  0  0
   -1.3284    0.6252    1.6165 O   0  0  0  0  0  0  0  0  0  0  0  0
    1.0757    3.9991    0.9207 O   0  0  0  0  0  0  0  0  0  0  0  0
    2.5890    4.2275   -1.4231 O   0  0  0  0  0  0  0  0  0  0  0  0
    3.4951    3.1643    1.0027 O   0  0  0  0  0  0  0  0  0  0  0  0
   -7.3958    0.0300    1.0747 O   0  0  0  0  0  0  0  0  0  0  0  0
   -3.1585   -1.5049    0.9590 H   0  0  0  0  0  0  0  0  0  0  0  0
   -5.3882   -1.3823    1.9820 H   0  0  0  0  0  0  0  0  0  0  0  0
   -6.6723    1.2946   -1.0992 H   0  0  0  0  0  0  0  0  0  0  0  0
   -4.4492    1.1807   -2.1373 H   0  0  0  0  0  0  0  0  0  0  0  0
   -2.1142    0.3167   -2.1763 H   0  0  0  0  0  0  0  0  0  0  0  0
   -1.5676   -1.5680    0.1830 H   0  0  0  0  0  0  0  0  0  0  0  0
    1.6016   -5.0526    0.4648 H   0  0  0  0  0  0  0  0  0  0  0  0
   -0.4040   -4.7763   -0.4265 H   0  0  0  0  0  0  0  0  0  0  0  0
    3.4074    0.5186    1.1008 H   0  0  0  0  0  0  0  0  0  0  0  0
    4.1033    2.1269   -0.6789 H   0  0  0  0  0  0  0  0  0  0  0  0
    1.9418    2.3101   -1.8479 H   0  0  0  0  0  0  0  0  0  0  0  0
    0.0606    3.5217   -0.8159 H   0  0  0  0  0  0  0  0  0  0  0  0
    0.1861    1.0822   -0.4802 H   0  0  0  0  0  0  0  0  0  0  0  0
   -0.6119    2.5017    2.1002 H   0  0  0  0  0  0  0  0  0  0  0  0
   -1.6232    2.4206    0.6377 H   0  0  0  0  0  0  0  0  0  0  0  0
   -2.1241    0.6538    2.1652 H   0  0  0  0  0  0  0  0  0  0  0  0
    1.3619    4.8841    0.6564 H   0  0  0  0  0  0  0  0  0  0  0  0
    3.4078    4.1982   -1.9367 H   0  0  0  0  0  0  0  0  0  0  0  0
    4.1609    2.8145    1.6105 H   0  0  0  0  0  0  0  0  0  0  0  0
   -7.4890    0.7369    1.7279 H   0  0  0  0  0  0  0  0  0  0  0  0
  1  2  2  0  0  0  0
  2  3  1  0  0  0  0
  3  4  2  0  0  0  0
  4  5  1  0  0  0  0
  5  6  2  0  0  0  0
  1  6  1  0  0  0  0
  6  7  1  0  0  0  0
  7  8  2  0  0  0  0
  8  9  1  0  0  0  0
  9 10  2  0  0  0  0
  9 11  1  0  0  0  0
 11 12  2  0  0  0  0
 12 13  1  0  0  0  0
 13 14  2  0  0  0  0
 13 15  1  0  0  0  0
 15 16  2  0  0  0  0
 15 17  1  0  0  0  0
 17 18  2  0  0  0  0
 11 18  1  0  0  0  0
 18 19  1  0  0  0  0
 12 20  1  0  0  0  0
 20 21  1  0  0  0  0
 21 22  1  0  0  0  0
 22 23  1  0  0  0  0
 23 24  1  0  0  0  0
 24 25  1  0  0  0  0
 25 26  1  0  0  0  0
 21 26  1  0  0  0  0
 25 27  1  0  0  0  0
 27 28  1  0  0  0  0
 24 29  1  0  0  0  0
 23 30  1  0  0  0  0
 22 31  1  0  0  0  0
  3 32  1  0  0  0  0
  1 33  1  0  0  0  0
  2 34  1  0  0  0  0
  4 35  1  0  0  0  0
  5 36  1  0  0  0  0
  7 37  1  0  0  0  0
  8 38  1  0  0  0  0
 17 39  1  0  0  0  0
 19 40  1  0  0  0  0
 21 41  1  0  0  0  0
 22 42  1  0  0  0  0
 23 43  1  0  0  0  0
 24 44  1  0  0  0  0
 25 45  1  0  0  0  0
 27 46  1  0  0  0  0
 27 47  1  0  0  0  0
 28 48  1  0  0  0  0
 29 49  1  0  0  0  0
 30 50  1  0  0  0  0
 31 51  1  0  0  0  0
 32 52  1  0  0  0  0
M  END
$$$$
