C10H16O2
APtclcactv06281816443D 0   0.00000     0.00000
 
 28 27  0  0  0  0  0  0  0  0999 V2000
    5.7834   -0.2086   -0.4282 C   0  0  0  0  0  0  0  0  0  0  0  0
    4.4377    0.4763   -0.1811 C   0  0  0  0  0  0  0  0  0  0  0  0
    3.3253   -0.5741   -0.1697 C   0  0  0  0  0  0  0  0  0  0  0  0
    1.9999    0.1004    0.0737 C   0  0  0  0  0  0  0  0  0  0  0  0
    1.9501    1.2984    0.2226 O   0  0  0  0  0  0  0  0  0  0  0  0
    0.8747   -0.6296    0.1249 O   0  0  0  0  0  0  0  0  0  0  0  0
   -0.3657    0.0868    0.3628 C   0  0  0  0  0  0  0  0  0  0  0  0
   -1.5306   -0.9048    0.3877 C   0  0  0  0  0  0  0  0  0  0  0  0
   -2.8180   -0.1612    0.6346 C   0  0  0  0  0  0  0  0  0  0  0  0
   -3.8333   -0.2915   -0.2125 C   0  0  0  0  0  0  0  0  0  0  0  0
   -5.0901    0.4344    0.0285 C   0  0  0  0  0  0  0  0  0  0  0  0
   -6.1054    0.3041   -0.8185 C   0  0  0  0  0  0  0  0  0  0  0  0
    6.5758    0.5398   -0.4363 H   0  0  0  0  0  0  0  0  0  0  0  0
    5.9743   -0.9313    0.3652 H   0  0  0  0  0  0  0  0  0  0  0  0
    5.7587   -0.7221   -1.3893 H   0  0  0  0  0  0  0  0  0  0  0  0
    4.4624    0.9899    0.7800 H   0  0  0  0  0  0  0  0  0  0  0  0
    4.2468    1.1990   -0.9744 H   0  0  0  0  0  0  0  0  0  0  0  0
    3.3006   -1.0877   -1.1308 H   0  0  0  0  0  0  0  0  0  0  0  0
    3.5163   -1.2968    0.6237 H   0  0  0  0  0  0  0  0  0  0  0  0
   -0.3085    0.6043    1.3204 H   0  0  0  0  0  0  0  0  0  0  0  0
   -0.5241    0.8135   -0.4341 H   0  0  0  0  0  0  0  0  0  0  0  0
   -1.5878   -1.4223   -0.5699 H   0  0  0  0  0  0  0  0  0  0  0  0
   -1.3722   -1.6314    1.1846 H   0  0  0  0  0  0  0  0  0  0  0  0
   -2.9152    0.4775    1.5000 H   0  0  0  0  0  0  0  0  0  0  0  0
   -3.7361   -0.9302   -1.0779 H   0  0  0  0  0  0  0  0  0  0  0  0
   -5.1873    1.0732    0.8939 H   0  0  0  0  0  0  0  0  0  0  0  0
   -7.0280    0.8370   -0.6416 H   0  0  0  0  0  0  0  0  0  0  0  0
   -6.0082   -0.3346   -1.6840 H   0  0  0  0  0  0  0  0  0  0  0  0
  1  2  1  0  0  0  0
  2  3  1  0  0  0  0
  3  4  1  0  0  0  0
  4  5  2  0  0  0  0
  4  6  1  0  0  0  0
  6  7  1  0  0  0  0
  7  8  1  0  0  0  0
  8  9  1  0  0  0  0
  9 10  2  0  0  0  0
 10 11  1  0  0  0  0
 11 12  2  0  0  0  0
  1 13  1  0  0  0  0
  1 14  1  0  0  0  0
  1 15  1  0  0  0  0
  2 16  1  0  0  0  0
  2 17  1  0  0  0  0
  3 18  1  0  0  0  0
  3 19  1  0  0  0  0
  7 20  1  0  0  0  0
  7 21  1  0  0  0  0
  8 22  1  0  0  0  0
  8 23  1  0  0  0  0
  9 24  1  0  0  0  0
 10 25  1  0  0  0  0
 11 26  1  0  0  0  0
 12 27  1  0  0  0  0
 12 28  1  0  0  0  0
M  END
$$$$
