C25H28O4
APtclcactv06281816443D 0   0.00000     0.00000
 
 57 59  0  0  0  0  0  0  0  0999 V2000
   -5.2008    1.4828   -0.3920 C   0  0  0  0  0  0  0  0  0  0  0  0
   -5.0792    2.9225   -0.8202 C   0  0  0  0  0  0  0  0  0  0  0  0
   -4.0742    3.6489   -0.3977 C   0  0  0  0  0  0  0  0  0  0  0  0
   -2.9781    3.0156    0.4200 C   0  0  0  0  0  0  0  0  0  0  0  0
   -1.6221    3.3264   -0.2170 C   0  0  0  0  0  0  0  0  0  0  0  0
   -0.5260    2.6932    0.6007 C   0  0  0  0  0  0  0  0  0  0  0  0
   -0.0597    1.5145    0.2699 C   0  0  0  0  0  0  0  0  0  0  0  0
    0.9379    0.8215    1.1618 C   0  0  0  0  0  0  0  0  0  0  0  0
    2.1860    0.5136    0.3754 C   0  0  0  0  0  0  0  0  0  0  0  0
    3.2191    1.4343    0.3259 C   0  0  0  0  0  0  0  0  0  0  0  0
    4.3688    1.1518   -0.3981 C   0  0  0  0  0  0  0  0  0  0  0  0
    4.4885   -0.0532   -1.0749 C   0  0  0  0  0  0  0  0  0  0  0  0
    3.4597   -0.9796   -1.0311 C   0  0  0  0  0  0  0  0  0  0  0  0
    2.3046   -0.7022   -0.2994 C   0  0  0  0  0  0  0  0  0  0  0  0
    1.2044   -1.6880   -0.2493 C   0  0  0  0  0  0  0  0  0  0  0  0
    0.6498   -2.2904   -1.3276 C   0  0  0  0  0  0  0  0  0  0  0  0
   -0.3921   -3.1786   -0.8057 C   0  0  0  0  0  0  0  0  0  0  0  0
   -0.3625   -3.0185    0.5912 C   0  0  0  0  0  0  0  0  0  0  0  0
    0.6072   -2.1260    0.8772 O   0  0  0  0  0  0  0  0  0  0  0  0
   -1.2504   -3.7423    1.3760 C   0  0  0  0  0  0  0  0  0  0  0  0
   -2.1490   -4.6078    0.7780 C   0  0  0  0  0  0  0  0  0  0  0  0
   -2.1715   -4.7610   -0.6058 C   0  0  0  0  0  0  0  0  0  0  0  0
   -1.3054   -4.0561   -1.3929 C   0  0  0  0  0  0  0  0  0  0  0  0
   -3.0171   -5.3152    1.5481 O   0  0  0  0  0  0  0  0  0  0  0  0
    5.6166   -0.3249   -1.7824 O   0  0  0  0  0  0  0  0  0  0  0  0
    3.1068    2.6165    0.9868 O   0  0  0  0  0  0  0  0  0  0  0  0
    4.2102    3.5197    0.8929 C   0  0  0  0  0  0  0  0  0  0  0  0
    0.0336    3.4158    1.7989 C   0  0  0  0  0  0  0  0  0  0  0  0
   -6.1137    3.5267   -1.7344 C   0  0  0  0  0  0  0  0  0  0  0  0
   -5.1866    1.4249    0.6964 H   0  0  0  0  0  0  0  0  0  0  0  0
   -6.1382    1.0705   -0.7656 H   0  0  0  0  0  0  0  0  0  0  0  0
   -4.3656    0.9114   -0.7971 H   0  0  0  0  0  0  0  0  0  0  0  0
   -4.0312    4.7015   -0.6354 H   0  0  0  0  0  0  0  0  0  0  0  0
   -3.0036    3.4156    1.4336 H   0  0  0  0  0  0  0  0  0  0  0  0
   -3.1258    1.9361    0.4515 H   0  0  0  0  0  0  0  0  0  0  0  0
   -1.5966    2.9264   -1.2306 H   0  0  0  0  0  0  0  0  0  0  0  0
   -1.4745    4.4059   -0.2486 H   0  0  0  0  0  0  0  0  0  0  0  0
   -0.3901    1.0396   -0.6420 H   0  0  0  0  0  0  0  0  0  0  0  0
    1.1880    1.4710    2.0007 H   0  0  0  0  0  0  0  0  0  0  0  0
    0.5066   -0.1066    1.5369 H   0  0  0  0  0  0  0  0  0  0  0  0
    5.1726    1.8723   -0.4349 H   0  0  0  0  0  0  0  0  0  0  0  0
    3.5535   -1.9173   -1.5586 H   0  0  0  0  0  0  0  0  0  0  0  0
    0.9203   -2.1453   -2.3630 H   0  0  0  0  0  0  0  0  0  0  0  0
   -1.2393   -3.6302    2.4501 H   0  0  0  0  0  0  0  0  0  0  0  0
   -2.8780   -5.4404   -1.0594 H   0  0  0  0  0  0  0  0  0  0  0  0
   -1.3267   -4.1779   -2.4658 H   0  0  0  0  0  0  0  0  0  0  0  0
   -3.8576   -4.8648    1.7084 H   0  0  0  0  0  0  0  0  0  0  0  0
    6.3047   -0.7706   -1.2697 H   0  0  0  0  0  0  0  0  0  0  0  0
    4.3764    3.7828   -0.1517 H   0  0  0  0  0  0  0  0  0  0  0  0
    3.9910    4.4216    1.4644 H   0  0  0  0  0  0  0  0  0  0  0  0
    5.1046    3.0435    1.2945 H   0  0  0  0  0  0  0  0  0  0  0  0
   -0.4735    3.0716    2.7003 H   0  0  0  0  0  0  0  0  0  0  0  0
    1.1008    3.2102    1.8814 H   0  0  0  0  0  0  0  0  0  0  0  0
   -0.1219    4.4883    1.6816 H   0  0  0  0  0  0  0  0  0  0  0  0
   -6.9157    3.9619   -1.1381 H   0  0  0  0  0  0  0  0  0  0  0  0
   -5.6512    4.3034   -2.3434 H   0  0  0  0  0  0  0  0  0  0  0  0
   -6.5225    2.7518   -2.3828 H   0  0  0  0  0  0  0  0  0  0  0  0
  1  2  1  0  0  0  0
  2  3  2  0  0  0  0
  3  4  1  0  0  0  0
  4  5  1  0  0  0  0
  5  6  1  0  0  0  0
  6  7  2  0  0  0  0
  7  8  1  0  0  0  0
  8  9  1  0  0  0  0
  9 10  2  0  0  0  0
 10 11  1  0  0  0  0
 11 12  2  0  0  0  0
 12 13  1  0  0  0  0
 13 14  2  0  0  0  0
  9 14  1  0  0  0  0
 14 15  1  0  0  0  0
 15 16  2  0  0  0  0
 16 17  1  0  0  0  0
 17 18  2  0  0  0  0
 18 19  1  0  0  0  0
 15 19  1  0  0  0  0
 18 20  1  0  0  0  0
 20 21  2  0  0  0  0
 21 22  1  0  0  0  0
 22 23  2  0  0  0  0
 17 23  1  0  0  0  0
 21 24  1  0  0  0  0
 12 25  1  0  0  0  0
 10 26  1  0  0  0  0
 26 27  1  0  0  0  0
  6 28  1  0  0  0  0
  2 29  1  0  0  0  0
  1 30  1  0  0  0  0
  1 31  1  0  0  0  0
  1 32  1  0  0  0  0
  3 33  1  0  0  0  0
  4 34  1  0  0  0  0
  4 35  1  0  0  0  0
  5 36  1  0  0  0  0
  5 37  1  0  0  0  0
  7 38  1  0  0  0  0
  8 39  1  0  0  0  0
  8 40  1  0  0  0  0
 11 41  1  0  0  0  0
 13 42  1  0  0  0  0
 16 43  1  0  0  0  0
 20 44  1  0  0  0  0
 22 45  1  0  0  0  0
 23 46  1  0  0  0  0
 24 47  1  0  0  0  0
 25 48  1  0  0  0  0
 27 49  1  0  0  0  0
 27 50  1  0  0  0  0
 27 51  1  0  0  0  0
 28 52  1  0  0  0  0
 28 53  1  0  0  0  0
 28 54  1  0  0  0  0
 29 55  1  0  0  0  0
 29 56  1  0  0  0  0
 29 57  1  0  0  0  0
M  END
$$$$
