C19H27NO7
APtclcactv06281816473D 0   0.00000     0.00000
 
 54 56  0  0  0  0  0  0  0  0999 V2000
    4.4905   -0.6694    0.7052 C   0  0  0  0  0  0  0  0  0  0  0  0
    3.0544   -0.3592    0.2399 C   0  0  0  0  0  0  0  0  0  0  0  0
    3.0933    0.8487   -0.6750 C   0  0  0  0  0  0  0  0  0  0  0  0
    2.0529    1.8908   -0.2424 C   0  0  0  0  0  0  0  0  0  0  0  0
    2.5548    3.0901    0.5641 C   0  0  0  0  0  0  0  0  0  0  0  0
    2.1684    3.2005   -0.8077 O   0  0  0  0  0  0  0  0  0  0  0  0
    1.6241    3.6986    1.6143 C   0  0  0  0  0  0  0  0  0  0  0  0
    0.6743    1.3675    0.0400 C   0  0  0  0  0  0  0  0  0  0  0  0
    0.4504    0.7943    1.0807 O   0  0  0  0  0  0  0  0  0  0  0  0
   -0.3287    1.5293   -0.8431 O   0  0  0  0  0  0  0  0  0  0  0  0
   -1.6003    0.9374   -0.4250 C   0  0  0  0  0  0  0  0  0  0  0  0
   -2.7402    1.5377   -1.2425 C   0  0  0  0  0  0  0  0  0  0  0  0
   -4.0263    1.5222   -0.4178 C   0  0  0  0  0  0  0  0  0  0  0  0
   -4.3574    0.0959   -0.0875 N   0  0  0  0  0  0  0  0  0  0  0  0
   -3.7737   -0.1386    1.2748 C   0  0  0  0  0  0  0  0  0  0  0  0
   -2.8813   -1.3381    1.2159 C   0  0  0  0  0  0  0  0  0  0  0  0
   -1.8960   -1.5067    0.3593 C   0  0  0  0  0  0  0  0  0  0  0  0
   -1.5167   -0.5376   -0.6425 C   0  0  0  0  0  0  0  0  0  0  0  0
   -1.1253   -0.9414   -1.7229 O   0  0  0  0  0  0  0  0  0  0  0  0
   -1.0791   -2.7893    0.4441 C   0  0  0  0  0  0  0  0  0  0  0  0
    0.1721   -2.5772   -0.2614 O   0  0  0  0  0  0  0  0  0  0  0  0
    1.1713   -1.9711    0.3968 C   0  0  0  0  0  0  0  0  0  0  0  0
    1.0567   -1.7008    1.5664 O   0  0  0  0  0  0  0  0  0  0  0  0
    2.4491   -1.6262   -0.3358 C   0  0  0  0  0  0  0  0  0  0  0  0
    2.1510   -1.5456   -1.8279 C   0  0  0  0  0  0  0  0  0  0  0  0
    3.3756   -2.7096   -0.1239 O   0  0  0  0  0  0  0  0  0  0  0  0
   -5.8456    0.1050    0.1426 C   0  0  0  0  0  0  0  0  0  0  0  0
    4.8922    0.1901    1.2419 H   0  0  0  0  0  0  0  0  0  0  0  0
    4.4793   -1.5370    1.3650 H   0  0  0  0  0  0  0  0  0  0  0  0
    5.1158   -0.8807   -0.1623 H   0  0  0  0  0  0  0  0  0  0  0  0
    2.4866   -0.0852    1.1472 H   0  0  0  0  0  0  0  0  0  0  0  0
    4.0891    1.3293   -0.5462 H   0  0  0  0  0  0  0  0  0  0  0  0
    3.0050    0.6539   -1.7270 H   0  0  0  0  0  0  0  0  0  0  0  0
    3.6199    3.1361    0.7954 H   0  0  0  0  0  0  0  0  0  0  0  0
    1.3753    2.9438    2.3603 H   0  0  0  0  0  0  0  0  0  0  0  0
    2.1228    4.5380    2.0990 H   0  0  0  0  0  0  0  0  0  0  0  0
    0.7110    4.0477    1.1321 H   0  0  0  0  0  0  0  0  0  0  0  0
   -1.7347    1.1707    0.6300 H   0  0  0  0  0  0  0  0  0  0  0  0
   -2.4927    2.5658   -1.5102 H   0  0  0  0  0  0  0  0  0  0  0  0
   -2.8841    0.9548   -2.1525 H   0  0  0  0  0  0  0  0  0  0  0  0
   -3.8940    2.0694    0.5066 H   0  0  0  0  0  0  0  0  0  0  0  0
   -4.8483    1.9300   -0.9978 H   0  0  0  0  0  0  0  0  0  0  0  0
   -3.2190    0.7386    1.5744 H   0  0  0  0  0  0  0  0  0  0  0  0
   -4.5990   -0.3234    1.9582 H   0  0  0  0  0  0  0  0  0  0  0  0
   -3.0614   -2.1317    1.9327 H   0  0  0  0  0  0  0  0  0  0  0  0
   -0.8833   -3.0258    1.4882 H   0  0  0  0  0  0  0  0  0  0  0  0
   -1.6330   -3.6024   -0.0223 H   0  0  0  0  0  0  0  0  0  0  0  0
    1.4018   -0.7745   -2.0076 H   0  0  0  0  0  0  0  0  0  0  0  0
    3.0646   -1.2973   -2.3681 H   0  0  0  0  0  0  0  0  0  0  0  0
    1.7733   -2.5072   -2.1755 H   0  0  0  0  0  0  0  0  0  0  0  0
    3.0616   -3.5647   -0.4482 H   0  0  0  0  0  0  0  0  0  0  0  0
   -6.3511    0.4430   -0.7620 H   0  0  0  0  0  0  0  0  0  0  0  0
   -6.1809   -0.9019    0.3915 H   0  0  0  0  0  0  0  0  0  0  0  0
   -6.0820    0.7803    0.9648 H   0  0  0  0  0  0  0  0  0  0  0  0
  1  2  1  0  0  0  0
  2  3  1  0  0  0  0
  3  4  1  0  0  0  0
  4  5  1  0  0  0  0
  5  6  1  0  0  0  0
  4  6  1  0  0  0  0
  5  7  1  0  0  0  0
  4  8  1  0  0  0  0
  8  9  2  0  0  0  0
  8 10  1  0  0  0  0
 10 11  1  0  0  0  0
 11 12  1  0  0  0  0
 12 13  1  0  0  0  0
 13 14  1  0  0  0  0
 14 15  1  0  0  0  0
 15 16  1  0  0  0  0
 16 17  2  0  0  0  0
 17 18  1  0  0  0  0
 11 18  1  0  0  0  0
 18 19  2  0  0  0  0
 17 20  1  0  0  0  0
 20 21  1  0  0  0  0
 21 22  1  0  0  0  0
 22 23  2  0  0  0  0
 22 24  1  0  0  0  0
  2 24  1  0  0  0  0
 24 25  1  0  0  0  0
 24 26  1  0  0  0  0
 14 27  1  0  0  0  0
  1 28  1  0  0  0  0
  1 29  1  0  0  0  0
  1 30  1  0  0  0  0
  2 31  1  0  0  0  0
  3 32  1  0  0  0  0
  3 33  1  0  0  0  0
  5 34  1  0  0  0  0
  7 35  1  0  0  0  0
  7 36  1  0  0  0  0
  7 37  1  0  0  0  0
 11 38  1  0  0  0  0
 12 39  1  0  0  0  0
 12 40  1  0  0  0  0
 13 41  1  0  0  0  0
 13 42  1  0  0  0  0
 15 43  1  0  0  0  0
 15 44  1  0  0  0  0
 16 45  1  0  0  0  0
 20 46  1  0  0  0  0
 20 47  1  0  0  0  0
 25 48  1  0  0  0  0
 25 49  1  0  0  0  0
 25 50  1  0  0  0  0
 26 51  1  0  0  0  0
 27 52  1  0  0  0  0
 27 53  1  0  0  0  0
 27 54  1  0  0  0  0
M  END
$$$$
