C40H56O
APtclcactv06281816443D 0   0.00000     0.00000
 
 97 96  0  0  0  0  0  0  0  0999 V2000
  -15.3394    1.9639   -2.5225 C   0  0  0  0  0  0  0  0  0  0  0  0
  -16.4577    1.4224   -1.6697 C   0  0  0  0  0  0  0  0  0  0  0  0
  -16.2845    0.3184   -0.9862 C   0  0  0  0  0  0  0  0  0  0  0  0
  -14.9306   -0.3425   -0.9526 C   0  0  0  0  0  0  0  0  0  0  0  0
  -14.4242   -0.3947    0.4902 C   0  0  0  0  0  0  0  0  0  0  0  0
  -13.0702   -1.0556    0.5238 C   0  0  0  0  0  0  0  0  0  0  0  0
  -11.9615   -0.3095    0.4987 C   0  0  0  0  0  0  0  0  0  0  0  0
  -10.6880   -0.9312    0.5303 C   0  0  0  0  0  0  0  0  0  0  0  0
   -9.5606   -0.1724    0.5047 C   0  0  0  0  0  0  0  0  0  0  0  0
   -8.2977   -0.7889    0.5360 C   0  0  0  0  0  0  0  0  0  0  0  0
   -7.1653   -0.0268    0.5104 C   0  0  0  0  0  0  0  0  0  0  0  0
   -5.9062   -0.6415    0.5416 C   0  0  0  0  0  0  0  0  0  0  0  0
   -4.7637    0.1274    0.5157 C   0  0  0  0  0  0  0  0  0  0  0  0
   -3.5063   -0.4864    0.5469 C   0  0  0  0  0  0  0  0  0  0  0  0
   -2.3628    0.2831    0.5210 C   0  0  0  0  0  0  0  0  0  0  0  0
   -1.1061   -0.3303    0.5522 C   0  0  0  0  0  0  0  0  0  0  0  0
    0.0377    0.4394    0.5263 C   0  0  0  0  0  0  0  0  0  0  0  0
    1.2944   -0.1740    0.5574 C   0  0  0  0  0  0  0  0  0  0  0  0
    2.4380    0.5955    0.5315 C   0  0  0  0  0  0  0  0  0  0  0  0
    2.3341    2.0976    0.4696 C   0  0  0  0  0  0  0  0  0  0  0  0
    3.6953   -0.0183    0.5627 C   0  0  0  0  0  0  0  0  0  0  0  0
    4.8378    0.7506    0.5368 C   0  0  0  0  0  0  0  0  0  0  0  0
    6.0969    0.1359    0.5680 C   0  0  0  0  0  0  0  0  0  0  0  0
    7.2293    0.8980    0.5424 C   0  0  0  0  0  0  0  0  0  0  0  0
    7.1254    2.4002    0.4805 C   0  0  0  0  0  0  0  0  0  0  0  0
    8.4922    0.2816    0.5737 C   0  0  0  0  0  0  0  0  0  0  0  0
    9.6196    1.0403    0.5482 C   0  0  0  0  0  0  0  0  0  0  0  0
   10.8931    0.4186    0.5797 C   0  0  0  0  0  0  0  0  0  0  0  0
   12.0019    1.1647    0.5546 C   0  0  0  0  0  0  0  0  0  0  0  0
   11.8980    2.6668    0.4927 C   0  0  0  0  0  0  0  0  0  0  0  0
   13.3558    0.5038    0.5882 C   0  0  0  0  0  0  0  0  0  0  0  0
   13.8761    0.3343   -0.8406 C   0  0  0  0  0  0  0  0  0  0  0  0
   15.2301   -0.3267   -0.8070 C   0  0  0  0  0  0  0  0  0  0  0  0
   15.4204   -1.4621   -1.4321 C   0  0  0  0  0  0  0  0  0  0  0  0
   14.2561   -2.1756   -2.0696 C   0  0  0  0  0  0  0  0  0  0  0  0
   16.8035   -2.0547   -1.5136 C   0  0  0  0  0  0  0  0  0  0  0  0
   17.7287   -1.1995   -0.8392 O   0  0  0  0  0  0  0  0  0  0  0  0
   -3.4025   -1.9885    0.6088 C   0  0  0  0  0  0  0  0  0  0  0  0
   -8.1938   -2.2910    0.5980 C   0  0  0  0  0  0  0  0  0  0  0  0
  -12.9664   -2.5577    0.5857 C   0  0  0  0  0  0  0  0  0  0  0  0
  -17.7752    2.1510   -1.6032 C   0  0  0  0  0  0  0  0  0  0  0  0
  -15.0081    1.1937   -3.2191 H   0  0  0  0  0  0  0  0  0  0  0  0
  -15.6948    2.8301   -3.0807 H   0  0  0  0  0  0  0  0  0  0  0  0
  -14.5064    2.2595   -1.8846 H   0  0  0  0  0  0  0  0  0  0  0  0
  -17.1121   -0.1182   -0.4467 H   0  0  0  0  0  0  0  0  0  0  0  0
  -15.0111   -1.3558   -1.3462 H   0  0  0  0  0  0  0  0  0  0  0  0
  -14.2317    0.2298   -1.5625 H   0  0  0  0  0  0  0  0  0  0  0  0
  -14.3437    0.6186    0.8839 H   0  0  0  0  0  0  0  0  0  0  0  0
  -15.1231   -0.9670    1.1002 H   0  0  0  0  0  0  0  0  0  0  0  0
  -12.0360    0.7671    0.4543 H   0  0  0  0  0  0  0  0  0  0  0  0
  -10.6135   -2.0077    0.5746 H   0  0  0  0  0  0  0  0  0  0  0  0
   -9.6350    0.9041    0.4604 H   0  0  0  0  0  0  0  0  0  0  0  0
   -7.2397    1.0497    0.4660 H   0  0  0  0  0  0  0  0  0  0  0  0
   -5.8318   -1.7180    0.5860 H   0  0  0  0  0  0  0  0  0  0  0  0
   -4.8382    1.2039    0.4714 H   0  0  0  0  0  0  0  0  0  0  0  0
   -2.4372    1.3597    0.4766 H   0  0  0  0  0  0  0  0  0  0  0  0
   -1.0317   -1.4068    0.5965 H   0  0  0  0  0  0  0  0  0  0  0  0
   -0.0367    1.5159    0.4819 H   0  0  0  0  0  0  0  0  0  0  0  0
    1.3689   -1.2506    0.6018 H   0  0  0  0  0  0  0  0  0  0  0  0
    2.3041    2.5018    1.4815 H   0  0  0  0  0  0  0  0  0  0  0  0
    3.1994    2.5003   -0.0569 H   0  0  0  0  0  0  0  0  0  0  0  0
    1.4237    2.3774   -0.0605 H   0  0  0  0  0  0  0  0  0  0  0  0
    3.7698   -1.0948    0.6071 H   0  0  0  0  0  0  0  0  0  0  0  0
    4.7634    1.8271    0.4924 H   0  0  0  0  0  0  0  0  0  0  0  0
    6.1713   -0.9406    0.6124 H   0  0  0  0  0  0  0  0  0  0  0  0
    7.0954    2.8043    1.4923 H   0  0  0  0  0  0  0  0  0  0  0  0
    7.9907    2.8028   -0.0461 H   0  0  0  0  0  0  0  0  0  0  0  0
    6.2150    2.6799   -0.0496 H   0  0  0  0  0  0  0  0  0  0  0  0
    8.5666   -0.7950    0.6181 H   0  0  0  0  0  0  0  0  0  0  0  0
    9.5452    2.1168    0.5038 H   0  0  0  0  0  0  0  0  0  0  0  0
   10.9676   -0.6579    0.6241 H   0  0  0  0  0  0  0  0  0  0  0  0
   11.8680    3.0710    1.5046 H   0  0  0  0  0  0  0  0  0  0  0  0
   12.7633    3.0695   -0.0338 H   0  0  0  0  0  0  0  0  0  0  0  0
   10.9876    2.9465   -0.0374 H   0  0  0  0  0  0  0  0  0  0  0  0
   14.0490    1.1242    1.1561 H   0  0  0  0  0  0  0  0  0  0  0  0
   13.2711   -0.4740    1.0624 H   0  0  0  0  0  0  0  0  0  0  0  0
   13.1829   -0.2862   -1.4085 H   0  0  0  0  0  0  0  0  0  0  0  0
   13.9608    1.3120   -1.3148 H   0  0  0  0  0  0  0  0  0  0  0  0
   16.0435    0.1358   -0.2676 H   0  0  0  0  0  0  0  0  0  0  0  0
   14.0859   -1.7731   -3.0682 H   0  0  0  0  0  0  0  0  0  0  0  0
   14.4771   -3.2406   -2.1399 H   0  0  0  0  0  0  0  0  0  0  0  0
   13.3632   -2.0291   -1.4618 H   0  0  0  0  0  0  0  0  0  0  0  0
   16.8063   -3.0371   -1.0416 H   0  0  0  0  0  0  0  0  0  0  0  0
   17.0956   -2.1532   -2.5592 H   0  0  0  0  0  0  0  0  0  0  0  0
   18.6411   -1.5195   -0.8517 H   0  0  0  0  0  0  0  0  0  0  0  0
   -3.3724   -2.3927   -0.4030 H   0  0  0  0  0  0  0  0  0  0  0  0
   -2.4921   -2.2683    1.1389 H   0  0  0  0  0  0  0  0  0  0  0  0
   -4.2678   -2.3912    1.1353 H   0  0  0  0  0  0  0  0  0  0  0  0
   -8.1638   -2.6952   -0.4139 H   0  0  0  0  0  0  0  0  0  0  0  0
   -7.2834   -2.5708    1.1281 H   0  0  0  0  0  0  0  0  0  0  0  0
   -9.0591   -2.6937    1.1245 H   0  0  0  0  0  0  0  0  0  0  0  0
  -12.9363   -2.9619   -0.4262 H   0  0  0  0  0  0  0  0  0  0  0  0
  -12.0560   -2.8374    1.1158 H   0  0  0  0  0  0  0  0  0  0  0  0
  -13.8317   -2.9604    1.1122 H   0  0  0  0  0  0  0  0  0  0  0  0
  -18.4363    1.7784   -2.3857 H   0  0  0  0  0  0  0  0  0  0  0  0
  -18.2345    1.9831   -0.6291 H   0  0  0  0  0  0  0  0  0  0  0  0
  -17.6077    3.2184   -1.7469 H   0  0  0  0  0  0  0  0  0  0  0  0
  1  2  1  0  0  0  0
  2  3  2  0  0  0  0
  3  4  1  0  0  0  0
  4  5  1  0  0  0  0
  5  6  1  0  0  0  0
  6  7  2  0  0  0  0
  7  8  1  0  0  0  0
  8  9  2  0  0  0  0
  9 10  1  0  0  0  0
 10 11  2  0  0  0  0
 11 12  1  0  0  0  0
 12 13  2  0  0  0  0
 13 14  1  0  0  0  0
 14 15  2  0  0  0  0
 15 16  1  0  0  0  0
 16 17  2  0  0  0  0
 17 18  1  0  0  0  0
 18 19  2  0  0  0  0
 19 20  1  0  0  0  0
 19 21  1  0  0  0  0
 21 22  2  0  0  0  0
 22 23  1  0  0  0  0
 23 24  2  0  0  0  0
 24 25  1  0  0  0  0
 24 26  1  0  0  0  0
 26 27  2  0  0  0  0
 27 28  1  0  0  0  0
 28 29  2  0  0  0  0
 29 30  1  0  0  0  0
 29 31  1  0  0  0  0
 31 32  1  0  0  0  0
 32 33  1  0  0  0  0
 33 34  2  0  0  0  0
 34 35  1  0  0  0  0
 34 36  1  0  0  0  0
 36 37  1  0  0  0  0
 14 38  1  0  0  0  0
 10 39  1  0  0  0  0
  6 40  1  0  0  0  0
  2 41  1  0  0  0  0
  1 42  1  0  0  0  0
  1 43  1  0  0  0  0
  1 44  1  0  0  0  0
  3 45  1  0  0  0  0
  4 46  1  0  0  0  0
  4 47  1  0  0  0  0
  5 48  1  0  0  0  0
  5 49  1  0  0  0  0
  7 50  1  0  0  0  0
  8 51  1  0  0  0  0
  9 52  1  0  0  0  0
 11 53  1  0  0  0  0
 12 54  1  0  0  0  0
 13 55  1  0  0  0  0
 15 56  1  0  0  0  0
 16 57  1  0  0  0  0
 17 58  1  0  0  0  0
 18 59  1  0  0  0  0
 20 60  1  0  0  0  0
 20 61  1  0  0  0  0
 20 62  1  0  0  0  0
 21 63  1  0  0  0  0
 22 64  1  0  0  0  0
 23 65  1  0  0  0  0
 25 66  1  0  0  0  0
 25 67  1  0  0  0  0
 25 68  1  0  0  0  0
 26 69  1  0  0  0  0
 27 70  1  0  0  0  0
 28 71  1  0  0  0  0
 30 72  1  0  0  0  0
 30 73  1  0  0  0  0
 30 74  1  0  0  0  0
 31 75  1  0  0  0  0
 31 76  1  0  0  0  0
 32 77  1  0  0  0  0
 32 78  1  0  0  0  0
 33 79  1  0  0  0  0
 35 80  1  0  0  0  0
 35 81  1  0  0  0  0
 35 82  1  0  0  0  0
 36 83  1  0  0  0  0
 36 84  1  0  0  0  0
 37 85  1  0  0  0  0
 38 86  1  0  0  0  0
 38 87  1  0  0  0  0
 38 88  1  0  0  0  0
 39 89  1  0  0  0  0
 39 90  1  0  0  0  0
 39 91  1  0  0  0  0
 40 92  1  0  0  0  0
 40 93  1  0  0  0  0
 40 94  1  0  0  0  0
 41 95  1  0  0  0  0
 41 96  1  0  0  0  0
 41 97  1  0  0  0  0
M  END
$$$$
