C30H18O10
APtclcactv06281816453D 0   0.00000     0.00000
 
 58 63  0  0  0  0  0  0  0  0999 V2000
   -6.5907    0.7004   -0.7820 C   0  0  0  0  0  0  0  0  0  0  0  0
   -7.9087    0.3642   -0.5658 C   0  0  0  0  0  0  0  0  0  0  0  0
   -8.2380   -0.5780    0.4011 C   0  0  0  0  0  0  0  0  0  0  0  0
   -7.2399   -1.1851    1.1539 C   0  0  0  0  0  0  0  0  0  0  0  0
   -5.9194   -0.8546    0.9446 C   0  0  0  0  0  0  0  0  0  0  0  0
   -5.5836    0.0923   -0.0272 C   0  0  0  0  0  0  0  0  0  0  0  0
   -4.1707    0.4491   -0.2552 C   0  0  0  0  0  0  0  0  0  0  0  0
   -3.7429    0.6427   -1.5319 C   0  0  0  0  0  0  0  0  0  0  0  0
   -2.3911    0.9856   -1.7703 C   0  0  0  0  0  0  0  0  0  0  0  0
   -1.9732    1.1669   -2.9025 O   0  0  0  0  0  0  0  0  0  0  0  0
   -1.5076    1.1156   -0.5985 C   0  0  0  0  0  0  0  0  0  0  0  0
   -0.1579    1.4518   -0.7431 C   0  0  0  0  0  0  0  0  0  0  0  0
    0.6447    1.5653    0.3912 C   0  0  0  0  0  0  0  0  0  0  0  0
    0.0950    1.3428    1.6607 C   0  0  0  0  0  0  0  0  0  0  0  0
   -1.2413    1.0098    1.7994 C   0  0  0  0  0  0  0  0  0  0  0  0
   -2.0515    0.8938    0.6796 C   0  0  0  0  0  0  0  0  0  0  0  0
   -3.3578    0.5756    0.8053 O   0  0  0  0  0  0  0  0  0  0  0  0
    0.8792    1.4542    2.7631 O   0  0  0  0  0  0  0  0  0  0  0  0
    2.0776    1.9206    0.2543 C   0  0  0  0  0  0  0  0  0  0  0  0
    2.4722    3.2607    0.2723 C   0  0  0  0  0  0  0  0  0  0  0  0
    3.8119    3.6025    0.1452 C   0  0  0  0  0  0  0  0  0  0  0  0
    4.7726    2.6181   -0.0008 C   0  0  0  0  0  0  0  0  0  0  0  0
    4.3900    1.2702   -0.0204 C   0  0  0  0  0  0  0  0  0  0  0  0
    3.0384    0.9159    0.1128 C   0  0  0  0  0  0  0  0  0  0  0  0
    2.6803   -0.3849    0.0936 O   0  0  0  0  0  0  0  0  0  0  0  0
    3.5771   -1.3735   -0.0500 C   0  0  0  0  0  0  0  0  0  0  0  0
    4.9098   -1.1366   -0.1859 C   0  0  0  0  0  0  0  0  0  0  0  0
    5.3860    0.1957   -0.1737 C   0  0  0  0  0  0  0  0  0  0  0  0
    6.5746    0.4452   -0.2935 O   0  0  0  0  0  0  0  0  0  0  0  0
    3.0995   -2.7691   -0.0602 C   0  0  0  0  0  0  0  0  0  0  0  0
    1.9168   -3.1002   -0.7275 C   0  0  0  0  0  0  0  0  0  0  0  0
    1.4745   -4.4045   -0.7345 C   0  0  0  0  0  0  0  0  0  0  0  0
    2.2023   -5.3907   -0.0794 C   0  0  0  0  0  0  0  0  0  0  0  0
    3.3788   -5.0659    0.5852 C   0  0  0  0  0  0  0  0  0  0  0  0
    3.8314   -3.7651    0.5924 C   0  0  0  0  0  0  0  0  0  0  0  0
    1.7625   -6.6751   -0.0884 O   0  0  0  0  0  0  0  0  0  0  0  0
    6.0811    2.9565   -0.1252 O   0  0  0  0  0  0  0  0  0  0  0  0
    1.5387    4.2360    0.4146 O   0  0  0  0  0  0  0  0  0  0  0  0
    0.3661    1.6651   -1.9766 O   0  0  0  0  0  0  0  0  0  0  0  0
   -9.5385   -0.9061    0.6113 O   0  0  0  0  0  0  0  0  0  0  0  0
   -6.3353    1.4295   -1.5368 H   0  0  0  0  0  0  0  0  0  0  0  0
   -8.6875    0.8339   -1.1484 H   0  0  0  0  0  0  0  0  0  0  0  0
   -7.5002   -1.9169    1.9043 H   0  0  0  0  0  0  0  0  0  0  0  0
   -5.1444   -1.3263    1.5305 H   0  0  0  0  0  0  0  0  0  0  0  0
   -4.4303    0.5351   -2.3580 H   0  0  0  0  0  0  0  0  0  0  0  0
   -1.6544    0.8397    2.7826 H   0  0  0  0  0  0  0  0  0  0  0  0
    0.8996    2.3431    3.1431 H   0  0  0  0  0  0  0  0  0  0  0  0
    4.1052    4.6418    0.1602 H   0  0  0  0  0  0  0  0  0  0  0  0
    5.5998   -1.9598   -0.2986 H   0  0  0  0  0  0  0  0  0  0  0  0
    1.3504   -2.3344   -1.2365 H   0  0  0  0  0  0  0  0  0  0  0  0
    0.5606   -4.6613   -1.2495 H   0  0  0  0  0  0  0  0  0  0  0  0
    3.9411   -5.8353    1.0934 H   0  0  0  0  0  0  0  0  0  0  0  0
    4.7459   -3.5136    1.1089 H   0  0  0  0  0  0  0  0  0  0  0  0
    2.0944   -7.1992   -0.8302 H   0  0  0  0  0  0  0  0  0  0  0  0
    6.5538    3.0156    0.7163 H   0  0  0  0  0  0  0  0  0  0  0  0
    1.3612    4.4794    1.3335 H   0  0  0  0  0  0  0  0  0  0  0  0
    0.3110    2.5836   -2.2739 H   0  0  0  0  0  0  0  0  0  0  0  0
   -9.8508   -1.6430    0.0686 H   0  0  0  0  0  0  0  0  0  0  0  0
  1  2  2  0  0  0  0
  2  3  1  0  0  0  0
  3  4  2  0  0  0  0
  4  5  1  0  0  0  0
  5  6  2  0  0  0  0
  1  6  1  0  0  0  0
  6  7  1  0  0  0  0
  7  8  2  0  0  0  0
  8  9  1  0  0  0  0
  9 10  2  0  0  0  0
  9 11  1  0  0  0  0
 11 12  2  0  0  0  0
 12 13  1  0  0  0  0
 13 14  2  0  0  0  0
 14 15  1  0  0  0  0
 15 16  2  0  0  0  0
 11 16  1  0  0  0  0
 16 17  1  0  0  0  0
  7 17  1  0  0  0  0
 14 18  1  0  0  0  0
 13 19  1  0  0  0  0
 19 20  2  0  0  0  0
 20 21  1  0  0  0  0
 21 22  2  0  0  0  0
 22 23  1  0  0  0  0
 23 24  2  0  0  0  0
 19 24  1  0  0  0  0
 24 25  1  0  0  0  0
 25 26  1  0  0  0  0
 26 27  2  0  0  0  0
 27 28  1  0  0  0  0
 23 28  1  0  0  0  0
 28 29  2  0  0  0  0
 26 30  1  0  0  0  0
 30 31  2  0  0  0  0
 31 32  1  0  0  0  0
 32 33  2  0  0  0  0
 33 34  1  0  0  0  0
 34 35  2  0  0  0  0
 30 35  1  0  0  0  0
 33 36  1  0  0  0  0
 22 37  1  0  0  0  0
 20 38  1  0  0  0  0
 12 39  1  0  0  0  0
  3 40  1  0  0  0  0
  1 41  1  0  0  0  0
  2 42  1  0  0  0  0
  4 43  1  0  0  0  0
  5 44  1  0  0  0  0
  8 45  1  0  0  0  0
 15 46  1  0  0  0  0
 18 47  1  0  0  0  0
 21 48  1  0  0  0  0
 27 49  1  0  0  0  0
 31 50  1  0  0  0  0
 32 51  1  0  0  0  0
 34 52  1  0  0  0  0
 35 53  1  0  0  0  0
 36 54  1  0  0  0  0
 37 55  1  0  0  0  0
 38 56  1  0  0  0  0
 39 57  1  0  0  0  0
 40 58  1  0  0  0  0
M  END
$$$$
