C15H10O6
APtclcactv06281816453D 0   0.00000     0.00000
 
 31 33  0  0  0  0  0  0  0  0999 V2000
   -2.0376    1.3149   -0.9341 C   0  0  0  0  0  0  0  0  0  0  0  0
   -3.3718    1.6603   -0.9512 C   0  0  0  0  0  0  0  0  0  0  0  0
   -4.2847    0.9553   -0.1792 C   0  0  0  0  0  0  0  0  0  0  0  0
   -3.8569   -0.1058    0.6167 C   0  0  0  0  0  0  0  0  0  0  0  0
   -2.5210   -0.4581    0.6391 C   0  0  0  0  0  0  0  0  0  0  0  0
   -1.6013    0.2518   -0.1383 C   0  0  0  0  0  0  0  0  0  0  0  0
   -0.1747   -0.1198   -0.1188 C   0  0  0  0  0  0  0  0  0  0  0  0
    0.1632   -1.4337   -0.2540 C   0  0  0  0  0  0  0  0  0  0  0  0
    1.5308   -1.8075   -0.2378 C   0  0  0  0  0  0  0  0  0  0  0  0
    1.8710   -2.9737   -0.3565 O   0  0  0  0  0  0  0  0  0  0  0  0
    2.5256   -0.7325   -0.0725 C   0  0  0  0  0  0  0  0  0  0  0  0
    2.0679    0.5899    0.0585 C   0  0  0  0  0  0  0  0  0  0  0  0
    0.7445    0.8497    0.0260 O   0  0  0  0  0  0  0  0  0  0  0  0
    2.9900    1.6152    0.2151 C   0  0  0  0  0  0  0  0  0  0  0  0
    4.3436    1.3243    0.2402 C   0  0  0  0  0  0  0  0  0  0  0  0
    4.7884    0.0105    0.1092 C   0  0  0  0  0  0  0  0  0  0  0  0
    3.8932   -1.0095   -0.0447 C   0  0  0  0  0  0  0  0  0  0  0  0
    5.2450    2.3279    0.3934 O   0  0  0  0  0  0  0  0  0  0  0  0
   -0.8044   -2.3790   -0.4029 O   0  0  0  0  0  0  0  0  0  0  0  0
   -4.7543   -0.7943    1.3717 O   0  0  0  0  0  0  0  0  0  0  0  0
   -5.5987    1.3007   -0.1992 O   0  0  0  0  0  0  0  0  0  0  0  0
   -1.3301    1.8626   -1.5390 H   0  0  0  0  0  0  0  0  0  0  0  0
   -3.7077    2.4819   -1.5665 H   0  0  0  0  0  0  0  0  0  0  0  0
   -2.1881   -1.2797    1.2560 H   0  0  0  0  0  0  0  0  0  0  0  0
    2.6531    2.6363    0.3165 H   0  0  0  0  0  0  0  0  0  0  0  0
    5.8469   -0.2027    0.1301 H   0  0  0  0  0  0  0  0  0  0  0  0
    4.2424   -2.0265   -0.1456 H   0  0  0  0  0  0  0  0  0  0  0  0
    5.4683    2.5188    1.3147 H   0  0  0  0  0  0  0  0  0  0  0  0
   -0.4641   -3.2798   -0.4909 H   0  0  0  0  0  0  0  0  0  0  0  0
   -5.1501   -1.5517    0.9191 H   0  0  0  0  0  0  0  0  0  0  0  0
   -6.1155    0.8426   -0.8760 H   0  0  0  0  0  0  0  0  0  0  0  0
  1  2  2  0  0  0  0
  2  3  1  0  0  0  0
  3  4  2  0  0  0  0
  4  5  1  0  0  0  0
  5  6  2  0  0  0  0
  1  6  1  0  0  0  0
  6  7  1  0  0  0  0
  7  8  2  0  0  0  0
  8  9  1  0  0  0  0
  9 10  2  0  0  0  0
  9 11  1  0  0  0  0
 11 12  2  0  0  0  0
 12 13  1  0  0  0  0
  7 13  1  0  0  0  0
 12 14  1  0  0  0  0
 14 15  2  0  0  0  0
 15 16  1  0  0  0  0
 16 17  2  0  0  0  0
 11 17  1  0  0  0  0
 15 18  1  0  0  0  0
  8 19  1  0  0  0  0
  4 20  1  0  0  0  0
  3 21  1  0  0  0  0
  1 22  1  0  0  0  0
  2 23  1  0  0  0  0
  5 24  1  0  0  0  0
 14 25  1  0  0  0  0
 16 26  1  0  0  0  0
 17 27  1  0  0  0  0
 18 28  1  0  0  0  0
 19 29  1  0  0  0  0
 20 30  1  0  0  0  0
 21 31  1  0  0  0  0
M  END
$$$$
