C12H14O3
APtclcactv06281816473D 0   0.00000     0.00000
 
 29 29  0  0  0  0  0  0  0  0999 V2000
   -5.9979    1.4991    0.0005 C   0  0  0  0  0  0  0  0  0  0  0  0
   -5.1064    0.2556    0.0005 C   0  0  0  0  0  0  0  0  0  0  0  0
   -3.7339    0.6535    0.0003 O   0  0  0  0  0  0  0  0  0  0  0  0
   -2.8109   -0.3307    0.0003 C   0  0  0  0  0  0  0  0  0  0  0  0
   -3.1632   -1.4951    0.0004 O   0  0  0  0  0  0  0  0  0  0  0  0
   -1.4303   -0.0078    0.0001 C   0  0  0  0  0  0  0  0  0  0  0  0
   -0.5062   -0.9931    0.0001 C   0  0  0  0  0  0  0  0  0  0  0  0
    0.9248   -0.6584   -0.0000 C   0  0  0  0  0  0  0  0  0  0  0  0
    1.8845   -1.6776   -0.0001 C   0  0  0  0  0  0  0  0  0  0  0  0
    3.2236   -1.3587   -0.0001 C   0  0  0  0  0  0  0  0  0  0  0  0
    3.6236   -0.0272    0.0003 C   0  0  0  0  0  0  0  0  0  0  0  0
    2.6745    0.9888    0.0003 C   0  0  0  0  0  0  0  0  0  0  0  0
    1.3329    0.6807   -0.0059 C   0  0  0  0  0  0  0  0  0  0  0  0
    4.9452    0.2819    0.0011 O   0  0  0  0  0  0  0  0  0  0  0  0
    5.2869    1.6695    0.0015 C   0  0  0  0  0  0  0  0  0  0  0  0
   -5.7920    2.0937   -0.8896 H   0  0  0  0  0  0  0  0  0  0  0  0
   -7.0448    1.1957    0.0006 H   0  0  0  0  0  0  0  0  0  0  0  0
   -5.7919    2.0938    0.8904 H   0  0  0  0  0  0  0  0  0  0  0  0
   -5.3123   -0.3390    0.8905 H   0  0  0  0  0  0  0  0  0  0  0  0
   -5.3124   -0.3391   -0.8895 H   0  0  0  0  0  0  0  0  0  0  0  0
   -1.1175    1.0259    0.0001 H   0  0  0  0  0  0  0  0  0  0  0  0
   -0.8189   -2.0269    0.0002 H   0  0  0  0  0  0  0  0  0  0  0  0
    1.5749   -2.7123    0.0003 H   0  0  0  0  0  0  0  0  0  0  0  0
    3.9648   -2.1442   -0.0002 H   0  0  0  0  0  0  0  0  0  0  0  0
    2.9904    2.0215    0.0010 H   0  0  0  0  0  0  0  0  0  0  0  0
    0.5964    1.4706   -0.0059 H   0  0  0  0  0  0  0  0  0  0  0  0
    4.8754    2.1453   -0.8887 H   0  0  0  0  0  0  0  0  0  0  0  0
    4.8744    2.1450    0.8913 H   0  0  0  0  0  0  0  0  0  0  0  0
    6.3716    1.7765    0.0021 H   0  0  0  0  0  0  0  0  0  0  0  0
  1  2  1  0  0  0  0
  2  3  1  0  0  0  0
  3  4  1  0  0  0  0
  4  5  2  0  0  0  0
  4  6  1  0  0  0  0
  6  7  2  0  0  0  0
  7  8  1  0  0  0  0
  8  9  2  0  0  0  0
  9 10  1  0  0  0  0
 10 11  2  0  0  0  0
 11 12  1  0  0  0  0
 12 13  2  0  0  0  0
  8 13  1  0  0  0  0
 11 14  1  0  0  0  0
 14 15  1  0  0  0  0
  1 16  1  0  0  0  0
  1 17  1  0  0  0  0
  1 18  1  0  0  0  0
  2 19  1  0  0  0  0
  2 20  1  0  0  0  0
  6 21  1  0  0  0  0
  7 22  1  0  0  0  0
  9 23  1  0  0  0  0
 10 24  1  0  0  0  0
 12 25  1  0  0  0  0
 13 26  1  0  0  0  0
 15 27  1  0  0  0  0
 15 28  1  0  0  0  0
 15 29  1  0  0  0  0
M  END
$$$$
