C16H12O7
APtclcactv06281816443D 0   0.00000     0.00000
 
 35 37  0  0  0  0  0  0  0  0999 V2000
   -5.2812    1.5848   -1.1141 C   0  0  0  0  0  0  0  0  0  0  0  0
   -4.6698    1.3407    0.1542 O   0  0  0  0  0  0  0  0  0  0  0  0
   -3.3706    0.9335    0.1460 C   0  0  0  0  0  0  0  0  0  0  0  0
   -2.3457    1.8762    0.1892 C   0  0  0  0  0  0  0  0  0  0  0  0
   -1.0187    1.4764    0.1810 C   0  0  0  0  0  0  0  0  0  0  0  0
   -0.6997    0.1287    0.1294 C   0  0  0  0  0  0  0  0  0  0  0  0
   -1.7305   -0.8255    0.0861 C   0  0  0  0  0  0  0  0  0  0  0  0
   -3.0692   -0.4186    0.1003 C   0  0  0  0  0  0  0  0  0  0  0  0
   -4.0655   -1.3410    0.0585 O   0  0  0  0  0  0  0  0  0  0  0  0
   -1.3645   -2.2517    0.0317 C   0  0  0  0  0  0  0  0  0  0  0  0
   -2.2173   -3.1243   -0.0078 O   0  0  0  0  0  0  0  0  0  0  0  0
    0.0115   -2.5695    0.0265 C   0  0  0  0  0  0  0  0  0  0  0  0
    0.9305   -1.5714    0.0709 C   0  0  0  0  0  0  0  0  0  0  0  0
    0.5887   -0.2772    0.1198 O   0  0  0  0  0  0  0  0  0  0  0  0
    2.2409   -1.8961    0.0651 O   0  0  0  0  0  0  0  0  0  0  0  0
    3.1487   -0.8854    0.0091 C   0  0  0  0  0  0  0  0  0  0  0  0
    3.4278   -0.1400    1.1453 C   0  0  0  0  0  0  0  0  0  0  0  0
    4.3499    0.8867    1.0883 C   0  0  0  0  0  0  0  0  0  0  0  0
    4.9969    1.1725   -0.1050 C   0  0  0  0  0  0  0  0  0  0  0  0
    4.7174    0.4275   -1.2412 C   0  0  0  0  0  0  0  0  0  0  0  0
    3.7999   -0.6032   -1.1829 C   0  0  0  0  0  0  0  0  0  0  0  0
    5.9046    2.1832   -0.1610 O   0  0  0  0  0  0  0  0  0  0  0  0
   -2.6498    3.1992    0.2394 O   0  0  0  0  0  0  0  0  0  0  0  0
   -4.7323    2.3676   -1.6375 H   0  0  0  0  0  0  0  0  0  0  0  0
   -5.2646    0.6706   -1.7074 H   0  0  0  0  0  0  0  0  0  0  0  0
   -6.3132    1.9023   -0.9649 H   0  0  0  0  0  0  0  0  0  0  0  0
   -0.2323    2.2159    0.2145 H   0  0  0  0  0  0  0  0  0  0  0  0
   -4.3561   -1.6458    0.9290 H   0  0  0  0  0  0  0  0  0  0  0  0
    0.3308   -3.6005   -0.0123 H   0  0  0  0  0  0  0  0  0  0  0  0
    2.9239   -0.3623    2.0743 H   0  0  0  0  0  0  0  0  0  0  0  0
    4.5670    1.4672    1.9728 H   0  0  0  0  0  0  0  0  0  0  0  0
    5.2207    0.6506   -2.1704 H   0  0  0  0  0  0  0  0  0  0  0  0
    3.5826   -1.1834   -2.0675 H   0  0  0  0  0  0  0  0  0  0  0  0
    6.8108    1.9094    0.0362 H   0  0  0  0  0  0  0  0  0  0  0  0
   -2.7431    3.5476    1.1367 H   0  0  0  0  0  0  0  0  0  0  0  0
  1  2  1  0  0  0  0
  2  3  1  0  0  0  0
  3  4  2  0  0  0  0
  4  5  1  0  0  0  0
  5  6  2  0  0  0  0
  6  7  1  0  0  0  0
  7  8  2  0  0  0  0
  3  8  1  0  0  0  0
  8  9  1  0  0  0  0
  7 10  1  0  0  0  0
 10 11  2  0  0  0  0
 10 12  1  0  0  0  0
 12 13  2  0  0  0  0
 13 14  1  0  0  0  0
  6 14  1  0  0  0  0
 13 15  1  0  0  0  0
 15 16  1  0  0  0  0
 16 17  2  0  0  0  0
 17 18  1  0  0  0  0
 18 19  2  0  0  0  0
 19 20  1  0  0  0  0
 20 21  2  0  0  0  0
 16 21  1  0  0  0  0
 19 22  1  0  0  0  0
  4 23  1  0  0  0  0
  1 24  1  0  0  0  0
  1 25  1  0  0  0  0
  1 26  1  0  0  0  0
  5 27  1  0  0  0  0
  9 28  1  0  0  0  0
 12 29  1  0  0  0  0
 17 30  1  0  0  0  0
 18 31  1  0  0  0  0
 20 32  1  0  0  0  0
 21 33  1  0  0  0  0
 22 34  1  0  0  0  0
 23 35  1  0  0  0  0
M  END
$$$$
