C15H8O5
APtclcactv06281816473D 0   0.00000     0.00000
 
 28 31  0  0  0  0  0  0  0  0999 V2000
    4.2884   -0.7325   -0.0167 C   0  0  0  0  0  0  0  0  0  0  0  0
    3.0351   -1.3046   -0.0107 C   0  0  0  0  0  0  0  0  0  0  0  0
    1.9040   -0.4927   -0.0068 C   0  0  0  0  0  0  0  0  0  0  0  0
    2.0361    0.9048   -0.0089 C   0  0  0  0  0  0  0  0  0  0  0  0
    3.3062    1.4670   -0.0139 C   0  0  0  0  0  0  0  0  0  0  0  0
    4.4240    0.6520   -0.0188 C   0  0  0  0  0  0  0  0  0  0  0  0
    5.6642    1.2082   -0.0233 O   0  0  0  0  0  0  0  0  0  0  0  0
    0.7985    1.4467   -0.0045 O   0  0  0  0  0  0  0  0  0  0  0  0
   -0.1523    0.5004    0.0003 C   0  0  0  0  0  0  0  0  0  0  0  0
    0.4550   -0.7525   -0.0008 C   0  0  0  0  0  0  0  0  0  0  0  0
   -0.3419   -1.9175    0.0036 C   0  0  0  0  0  0  0  0  0  0  0  0
    0.1972   -3.0093    0.0027 O   0  0  0  0  0  0  0  0  0  0  0  0
   -1.6833   -1.8456    0.0092 O   0  0  0  0  0  0  0  0  0  0  0  0
   -2.3372   -0.6633    0.0106 C   0  0  0  0  0  0  0  0  0  0  0  0
   -1.6201    0.5457    0.0056 C   0  0  0  0  0  0  0  0  0  0  0  0
   -2.3013    1.7660    0.0058 C   0  0  0  0  0  0  0  0  0  0  0  0
   -3.6668    1.7822    0.0108 C   0  0  0  0  0  0  0  0  0  0  0  0
   -4.3843    0.5887    0.0161 C   0  0  0  0  0  0  0  0  0  0  0  0
   -3.7244   -0.6290    0.0164 C   0  0  0  0  0  0  0  0  0  0  0  0
   -5.7418    0.6190    0.0219 O   0  0  0  0  0  0  0  0  0  0  0  0
    5.1673   -1.3602   -0.0153 H   0  0  0  0  0  0  0  0  0  0  0  0
    2.9304   -2.3795   -0.0094 H   0  0  0  0  0  0  0  0  0  0  0  0
    3.4211    2.5408   -0.0156 H   0  0  0  0  0  0  0  0  0  0  0  0
    6.0266    1.3685    0.8588 H   0  0  0  0  0  0  0  0  0  0  0  0
   -1.7490    2.6941    0.0024 H   0  0  0  0  0  0  0  0  0  0  0  0
   -4.1930    2.7254    0.0109 H   0  0  0  0  0  0  0  0  0  0  0  0
   -4.2883   -1.5500    0.0198 H   0  0  0  0  0  0  0  0  0  0  0  0
   -6.1388    0.6261   -0.8598 H   0  0  0  0  0  0  0  0  0  0  0  0
  1  2  2  0  0  0  0
  2  3  1  0  0  0  0
  3  4  2  0  0  0  0
  4  5  1  0  0  0  0
  5  6  2  0  0  0  0
  1  6  1  0  0  0  0
  6  7  1  0  0  0  0
  4  8  1  0  0  0  0
  8  9  1  0  0  0  0
  9 10  2  0  0  0  0
  3 10  1  0  0  0  0
 10 11  1  0  0  0  0
 11 12  2  0  0  0  0
 11 13  1  0  0  0  0
 13 14  1  0  0  0  0
 14 15  2  0  0  0  0
  9 15  1  0  0  0  0
 15 16  1  0  0  0  0
 16 17  2  0  0  0  0
 17 18  1  0  0  0  0
 18 19  2  0  0  0  0
 14 19  1  0  0  0  0
 18 20  1  0  0  0  0
  1 21  1  0  0  0  0
  2 22  1  0  0  0  0
  5 23  1  0  0  0  0
  7 24  1  0  0  0  0
 16 25  1  0  0  0  0
 17 26  1  0  0  0  0
 19 27  1  0  0  0  0
 20 28  1  0  0  0  0
M  END
$$$$
