C16H16O3
APtclcactv06281816473D 0   0.00000     0.00000
 
 35 36  0  0  0  0  0  0  0  0999 V2000
    4.7956    2.5682   -0.0077 C   0  0  0  0  0  0  0  0  0  0  0  0
    3.3731    2.4316   -0.0052 O   0  0  0  0  0  0  0  0  0  0  0  0
    2.8747    1.1673   -0.0028 C   0  0  0  0  0  0  0  0  0  0  0  0
    3.7394    0.0819   -0.0030 C   0  0  0  0  0  0  0  0  0  0  0  0
    3.2366   -1.2115   -0.0006 C   0  0  0  0  0  0  0  0  0  0  0  0
    1.8686   -1.4250    0.0020 C   0  0  0  0  0  0  0  0  0  0  0  0
    0.9941   -0.3358    0.0026 C   0  0  0  0  0  0  0  0  0  0  0  0
    1.5051    0.9642    0.0055 C   0  0  0  0  0  0  0  0  0  0  0  0
   -0.4631   -0.5575    0.0052 C   0  0  0  0  0  0  0  0  0  0  0  0
   -1.3017    0.4911    0.0058 C   0  0  0  0  0  0  0  0  0  0  0  0
   -2.7583    0.2695    0.0085 C   0  0  0  0  0  0  0  0  0  0  0  0
   -3.6334    1.3596    0.0091 C   0  0  0  0  0  0  0  0  0  0  0  0
   -4.9949    1.1473    0.0111 C   0  0  0  0  0  0  0  0  0  0  0  0
   -5.4982   -0.1473    0.0125 C   0  0  0  0  0  0  0  0  0  0  0  0
   -4.6326   -1.2337    0.0124 C   0  0  0  0  0  0  0  0  0  0  0  0
   -3.2696   -1.0314    0.0046 C   0  0  0  0  0  0  0  0  0  0  0  0
   -6.8412   -0.3516    0.0145 O   0  0  0  0  0  0  0  0  0  0  0  0
    4.0885   -2.2705   -0.0012 O   0  0  0  0  0  0  0  0  0  0  0  0
    5.4872   -1.9779   -0.0043 C   0  0  0  0  0  0  0  0  0  0  0  0
    5.0590    3.6259   -0.0095 H   0  0  0  0  0  0  0  0  0  0  0  0
    5.2079    2.0926    0.8821 H   0  0  0  0  0  0  0  0  0  0  0  0
    5.2049    2.0904   -0.8978 H   0  0  0  0  0  0  0  0  0  0  0  0
    4.8071    0.2443   -0.0053 H   0  0  0  0  0  0  0  0  0  0  0  0
    1.4783   -2.4320    0.0031 H   0  0  0  0  0  0  0  0  0  0  0  0
    0.8330    1.8096    0.0063 H   0  0  0  0  0  0  0  0  0  0  0  0
   -0.8563   -1.5634    0.0067 H   0  0  0  0  0  0  0  0  0  0  0  0
   -0.9085    1.4970    0.0043 H   0  0  0  0  0  0  0  0  0  0  0  0
   -3.2429    2.3666    0.0083 H   0  0  0  0  0  0  0  0  0  0  0  0
   -5.6717    1.9889    0.0119 H   0  0  0  0  0  0  0  0  0  0  0  0
   -5.0286   -2.2385    0.0139 H   0  0  0  0  0  0  0  0  0  0  0  0
   -2.5974   -1.8767    0.0041 H   0  0  0  0  0  0  0  0  0  0  0  0
   -7.2313   -0.4113   -0.8683 H   0  0  0  0  0  0  0  0  0  0  0  0
    5.7358   -1.4015   -0.8954 H   0  0  0  0  0  0  0  0  0  0  0  0
    5.7395   -1.3996    0.8846 H   0  0  0  0  0  0  0  0  0  0  0  0
    6.0533   -2.9094   -0.0045 H   0  0  0  0  0  0  0  0  0  0  0  0
  1  2  1  0  0  0  0
  2  3  1  0  0  0  0
  3  4  2  0  0  0  0
  4  5  1  0  0  0  0
  5  6  2  0  0  0  0
  6  7  1  0  0  0  0
  7  8  2  0  0  0  0
  3  8  1  0  0  0  0
  7  9  1  0  0  0  0
  9 10  2  0  0  0  0
 10 11  1  0  0  0  0
 11 12  2  0  0  0  0
 12 13  1  0  0  0  0
 13 14  2  0  0  0  0
 14 15  1  0  0  0  0
 15 16  2  0  0  0  0
 11 16  1  0  0  0  0
 14 17  1  0  0  0  0
  5 18  1  0  0  0  0
 18 19  1  0  0  0  0
  1 20  1  0  0  0  0
  1 21  1  0  0  0  0
  1 22  1  0  0  0  0
  4 23  1  0  0  0  0
  6 24  1  0  0  0  0
  8 25  1  0  0  0  0
  9 26  1  0  0  0  0
 10 27  1  0  0  0  0
 12 28  1  0  0  0  0
 13 29  1  0  0  0  0
 15 30  1  0  0  0  0
 16 31  1  0  0  0  0
 17 32  1  0  0  0  0
 19 33  1  0  0  0  0
 19 34  1  0  0  0  0
 19 35  1  0  0  0  0
M  END
$$$$
