C15H18O9
APtclcactv06281816473D 0   0.00000     0.00000
 
 42 43  0  0  0  0  0  0  0  0999 V2000
   -2.7840   -1.8904   -0.4553 C   0  0  0  0  0  0  0  0  0  0  0  0
   -1.8737   -2.8854   -0.7357 C   0  0  0  0  0  0  0  0  0  0  0  0
   -0.5308   -2.7094   -0.4291 C   0  0  0  0  0  0  0  0  0  0  0  0
   -0.0963   -1.5248    0.1647 C   0  0  0  0  0  0  0  0  0  0  0  0
   -1.0019   -0.5221    0.4493 C   0  0  0  0  0  0  0  0  0  0  0  0
   -2.3558   -0.6983    0.1402 C   0  0  0  0  0  0  0  0  0  0  0  0
   -3.3246    0.3652    0.4401 C   0  0  0  0  0  0  0  0  0  0  0  0
   -4.6308    0.1931    0.1409 C   0  0  0  0  0  0  0  0  0  0  0  0
   -5.5655    1.2191    0.4302 C   0  0  0  0  0  0  0  0  0  0  0  0
   -5.1914    2.2544    0.9478 O   0  0  0  0  0  0  0  0  0  0  0  0
   -6.8700    1.0471    0.1315 O   0  0  0  0  0  0  0  0  0  0  0  0
    1.2197   -1.3573    0.4640 O   0  0  0  0  0  0  0  0  0  0  0  0
    1.5945   -0.1191    1.0710 C   0  0  0  0  0  0  0  0  0  0  0  0
    3.0782   -0.1627    1.4456 C   0  0  0  0  0  0  0  0  0  0  0  0
    3.9136   -0.3278    0.1724 C   0  0  0  0  0  0  0  0  0  0  0  0
    3.5904    0.8196   -0.7896 C   0  0  0  0  0  0  0  0  0  0  0  0
    2.0868    0.8252   -1.0778 C   0  0  0  0  0  0  0  0  0  0  0  0
    1.3680    0.9505    0.1509 O   0  0  0  0  0  0  0  0  0  0  0  0
    1.7467    2.0051   -1.9906 C   0  0  0  0  0  0  0  0  0  0  0  0
    0.3660    1.9437   -2.3538 O   0  0  0  0  0  0  0  0  0  0  0  0
    3.9670    2.0627   -0.1938 O   0  0  0  0  0  0  0  0  0  0  0  0
    5.3031   -0.2958    0.5048 O   0  0  0  0  0  0  0  0  0  0  0  0
    3.4413    1.0544    2.1005 O   0  0  0  0  0  0  0  0  0  0  0  0
    0.3621   -3.6941   -0.7080 O   0  0  0  0  0  0  0  0  0  0  0  0
   -3.8271   -2.0283   -0.6990 H   0  0  0  0  0  0  0  0  0  0  0  0
   -2.2053   -3.8049   -1.1949 H   0  0  0  0  0  0  0  0  0  0  0  0
   -0.6666    0.3957    0.9095 H   0  0  0  0  0  0  0  0  0  0  0  0
   -2.9925    1.2844    0.8996 H   0  0  0  0  0  0  0  0  0  0  0  0
   -4.9629   -0.7261   -0.3186 H   0  0  0  0  0  0  0  0  0  0  0  0
   -7.4297    1.8002    0.3655 H   0  0  0  0  0  0  0  0  0  0  0  0
    0.9974    0.0409    1.9688 H   0  0  0  0  0  0  0  0  0  0  0  0
    3.2609   -1.0050    2.1129 H   0  0  0  0  0  0  0  0  0  0  0  0
    3.6725   -1.2795   -0.3011 H   0  0  0  0  0  0  0  0  0  0  0  0
    4.1393    0.6798   -1.7208 H   0  0  0  0  0  0  0  0  0  0  0  0
    1.8074   -0.1069   -1.5690 H   0  0  0  0  0  0  0  0  0  0  0  0
    1.9429    2.9395   -1.4648 H   0  0  0  0  0  0  0  0  0  0  0  0
    2.3613    1.9580   -2.8895 H   0  0  0  0  0  0  0  0  0  0  0  0
    0.0794    2.6628   -2.9334 H   0  0  0  0  0  0  0  0  0  0  0  0
    4.9078    2.1271    0.0204 H   0  0  0  0  0  0  0  0  0  0  0  0
    5.5771   -0.9921    1.1173 H   0  0  0  0  0  0  0  0  0  0  0  0
    2.9471    1.2260    2.9138 H   0  0  0  0  0  0  0  0  0  0  0  0
    0.7572   -3.6290   -1.5882 H   0  0  0  0  0  0  0  0  0  0  0  0
  1  2  2  0  0  0  0
  2  3  1  0  0  0  0
  3  4  2  0  0  0  0
  4  5  1  0  0  0  0
  5  6  2  0  0  0  0
  1  6  1  0  0  0  0
  6  7  1  0  0  0  0
  7  8  2  0  0  0  0
  8  9  1  0  0  0  0
  9 10  2  0  0  0  0
  9 11  1  0  0  0  0
  4 12  1  0  0  0  0
 12 13  1  0  0  0  0
 13 14  1  0  0  0  0
 14 15  1  0  0  0  0
 15 16  1  0  0  0  0
 16 17  1  0  0  0  0
 17 18  1  0  0  0  0
 13 18  1  0  0  0  0
 17 19  1  0  0  0  0
 19 20  1  0  0  0  0
 16 21  1  0  0  0  0
 15 22  1  0  0  0  0
 14 23  1  0  0  0  0
  3 24  1  0  0  0  0
  1 25  1  0  0  0  0
  2 26  1  0  0  0  0
  5 27  1  0  0  0  0
  7 28  1  0  0  0  0
  8 29  1  0  0  0  0
 11 30  1  0  0  0  0
 13 31  1  0  0  0  0
 14 32  1  0  0  0  0
 15 33  1  0  0  0  0
 16 34  1  0  0  0  0
 17 35  1  0  0  0  0
 19 36  1  0  0  0  0
 19 37  1  0  0  0  0
 20 38  1  0  0  0  0
 21 39  1  0  0  0  0
 22 40  1  0  0  0  0
 23 41  1  0  0  0  0
 24 42  1  0  0  0  0
M  END
$$$$
