C14H10O5
APtclcactv06281816463D 0   0.00000     0.00000
 
 29 31  0  0  0  0  0  0  0  0999 V2000
    5.7966    0.2557   -0.3590 C   0  0  0  0  0  0  0  0  0  0  0  0
    4.6959   -0.6511   -0.2674 O   0  0  0  0  0  0  0  0  0  0  0  0
    3.4601   -0.1075   -0.1061 C   0  0  0  0  0  0  0  0  0  0  0  0
    2.3510   -0.9279   -0.0103 C   0  0  0  0  0  0  0  0  0  0  0  0
    1.0892   -0.3605    0.1548 C   0  0  0  0  0  0  0  0  0  0  0  0
    0.9377    1.0323    0.2300 C   0  0  0  0  0  0  0  0  0  0  0  0
    2.0663    1.8402    0.1291 C   0  0  0  0  0  0  0  0  0  0  0  0
    3.3119    1.2738   -0.0317 C   0  0  0  0  0  0  0  0  0  0  0  0
   -0.2773    1.5920    0.4042 O   0  0  0  0  0  0  0  0  0  0  0  0
   -1.4160    0.9013    0.1942 C   0  0  0  0  0  0  0  0  0  0  0  0
   -2.6190    1.5771    0.0487 C   0  0  0  0  0  0  0  0  0  0  0  0
   -3.7951    0.8723   -0.1582 C   0  0  0  0  0  0  0  0  0  0  0  0
   -3.7900   -0.5164   -0.2206 C   0  0  0  0  0  0  0  0  0  0  0  0
   -2.6018   -1.2106   -0.0813 C   0  0  0  0  0  0  0  0  0  0  0  0
   -1.4093   -0.5032    0.1182 C   0  0  0  0  0  0  0  0  0  0  0  0
   -0.1210   -1.2070    0.2460 C   0  0  0  0  0  0  0  0  0  0  0  0
   -0.0564   -2.4111    0.4161 O   0  0  0  0  0  0  0  0  0  0  0  0
   -2.5914   -2.5661   -0.1369 O   0  0  0  0  0  0  0  0  0  0  0  0
   -4.9646    1.5460   -0.3009 O   0  0  0  0  0  0  0  0  0  0  0  0
    5.8547    0.8499    0.5529 H   0  0  0  0  0  0  0  0  0  0  0  0
    6.7214   -0.3071   -0.4855 H   0  0  0  0  0  0  0  0  0  0  0  0
    5.6531    0.9160   -1.2144 H   0  0  0  0  0  0  0  0  0  0  0  0
    2.4620   -2.0008   -0.0633 H   0  0  0  0  0  0  0  0  0  0  0  0
    1.9659    2.9143    0.1813 H   0  0  0  0  0  0  0  0  0  0  0  0
    4.1818    1.9092   -0.1089 H   0  0  0  0  0  0  0  0  0  0  0  0
   -2.6396    2.6558    0.0972 H   0  0  0  0  0  0  0  0  0  0  0  0
   -4.7139   -1.0533   -0.3775 H   0  0  0  0  0  0  0  0  0  0  0  0
   -2.4644   -2.9222   -1.0269 H   0  0  0  0  0  0  0  0  0  0  0  0
   -5.1739    1.7812   -1.2152 H   0  0  0  0  0  0  0  0  0  0  0  0
  1  2  1  0  0  0  0
  2  3  1  0  0  0  0
  3  4  2  0  0  0  0
  4  5  1  0  0  0  0
  5  6  2  0  0  0  0
  6  7  1  0  0  0  0
  7  8  2  0  0  0  0
  3  8  1  0  0  0  0
  6  9  1  0  0  0  0
  9 10  1  0  0  0  0
 10 11  2  0  0  0  0
 11 12  1  0  0  0  0
 12 13  2  0  0  0  0
 13 14  1  0  0  0  0
 14 15  2  0  0  0  0
 10 15  1  0  0  0  0
 15 16  1  0  0  0  0
  5 16  1  0  0  0  0
 16 17  2  0  0  0  0
 14 18  1  0  0  0  0
 12 19  1  0  0  0  0
  1 20  1  0  0  0  0
  1 21  1  0  0  0  0
  1 22  1  0  0  0  0
  4 23  1  0  0  0  0
  7 24  1  0  0  0  0
  8 25  1  0  0  0  0
 11 26  1  0  0  0  0
 13 27  1  0  0  0  0
 18 28  1  0  0  0  0
 19 29  1  0  0  0  0
M  END
$$$$
