C13H8O6
APtclcactv06281816463D 0   0.00000     0.00000
 
 27 29  0  0  0  0  0  0  0  0999 V2000
   -3.7775    0.3591    0.2396 C   0  0  0  0  0  0  0  0  0  0  0  0
   -3.6870   -1.0259    0.1616 C   0  0  0  0  0  0  0  0  0  0  0  0
   -2.4643   -1.6460   -0.0458 C   0  0  0  0  0  0  0  0  0  0  0  0
   -1.3097   -0.8877   -0.1771 C   0  0  0  0  0  0  0  0  0  0  0  0
   -1.4003    0.5128   -0.0886 C   0  0  0  0  0  0  0  0  0  0  0  0
   -2.6389    1.1344    0.1137 C   0  0  0  0  0  0  0  0  0  0  0  0
   -2.7215    2.4867    0.1856 O   0  0  0  0  0  0  0  0  0  0  0  0
   -0.1635    1.3059   -0.2066 C   0  0  0  0  0  0  0  0  0  0  0  0
   -0.1829    2.5139   -0.3618 O   0  0  0  0  0  0  0  0  0  0  0  0
    1.1012    0.5465   -0.1247 C   0  0  0  0  0  0  0  0  0  0  0  0
    2.3217    1.2021    0.0411 C   0  0  0  0  0  0  0  0  0  0  0  0
    3.4858    0.4656    0.1221 C   0  0  0  0  0  0  0  0  0  0  0  0
    3.4365   -0.9279    0.0387 C   0  0  0  0  0  0  0  0  0  0  0  0
    2.2284   -1.5812   -0.1286 C   0  0  0  0  0  0  0  0  0  0  0  0
    1.0477   -0.8541   -0.2158 C   0  0  0  0  0  0  0  0  0  0  0  0
   -0.1258   -1.4958   -0.3930 O   0  0  0  0  0  0  0  0  0  0  0  0
    4.5848   -1.6479    0.1221 O   0  0  0  0  0  0  0  0  0  0  0  0
    4.6805    1.0961    0.2826 O   0  0  0  0  0  0  0  0  0  0  0  0
   -4.8083   -1.7797    0.2905 O   0  0  0  0  0  0  0  0  0  0  0  0
   -4.7372    0.8298    0.3939 H   0  0  0  0  0  0  0  0  0  0  0  0
   -2.4104   -2.7230   -0.1049 H   0  0  0  0  0  0  0  0  0  0  0  0
   -2.8686    2.9177   -0.6674 H   0  0  0  0  0  0  0  0  0  0  0  0
    2.3551    2.2797    0.1053 H   0  0  0  0  0  0  0  0  0  0  0  0
    2.2031   -2.6591   -0.1915 H   0  0  0  0  0  0  0  0  0  0  0  0
    4.8229   -1.9056    1.0233 H   0  0  0  0  0  0  0  0  0  0  0  0
    4.9339    1.2295    1.2063 H   0  0  0  0  0  0  0  0  0  0  0  0
   -5.2610   -1.9574   -0.5454 H   0  0  0  0  0  0  0  0  0  0  0  0
  1  2  2  0  0  0  0
  2  3  1  0  0  0  0
  3  4  2  0  0  0  0
  4  5  1  0  0  0  0
  5  6  2  0  0  0  0
  1  6  1  0  0  0  0
  6  7  1  0  0  0  0
  5  8  1  0  0  0  0
  8  9  2  0  0  0  0
  8 10  1  0  0  0  0
 10 11  2  0  0  0  0
 11 12  1  0  0  0  0
 12 13  2  0  0  0  0
 13 14  1  0  0  0  0
 14 15  2  0  0  0  0
 10 15  1  0  0  0  0
 15 16  1  0  0  0  0
  4 16  1  0  0  0  0
 13 17  1  0  0  0  0
 12 18  1  0  0  0  0
  2 19  1  0  0  0  0
  1 20  1  0  0  0  0
  3 21  1  0  0  0  0
  7 22  1  0  0  0  0
 11 23  1  0  0  0  0
 14 24  1  0  0  0  0
 17 25  1  0  0  0  0
 18 26  1  0  0  0  0
 19 27  1  0  0  0  0
M  END
$$$$
