C17H24O3
APtclcactv06281816473D 0   0.00000     0.00000
 
 44 44  0  0  0  0  0  0  0  0999 V2000
    9.2700    0.7204   -1.0804 C   0  0  0  0  0  0  0  0  0  0  0  0
    8.0281    0.8202   -0.1925 C   0  0  0  0  0  0  0  0  0  0  0  0
    6.9289   -0.0868   -0.7493 C   0  0  0  0  0  0  0  0  0  0  0  0
    5.6869    0.0130    0.1387 C   0  0  0  0  0  0  0  0  0  0  0  0
    4.5877   -0.8940   -0.4181 C   0  0  0  0  0  0  0  0  0  0  0  0
    3.3644   -0.7957    0.4564 C   0  0  0  0  0  0  0  0  0  0  0  0
    2.1861   -0.4690   -0.0785 C   0  0  0  0  0  0  0  0  0  0  0  0
    0.9989   -0.3736    0.7704 C   0  0  0  0  0  0  0  0  0  0  0  0
    1.0851   -0.5915    1.9608 O   0  0  0  0  0  0  0  0  0  0  0  0
   -0.3316   -0.0046    0.1663 C   0  0  0  0  0  0  0  0  0  0  0  0
   -1.3987    0.0250    1.2624 C   0  0  0  0  0  0  0  0  0  0  0  0
   -2.7291    0.3940    0.6584 C   0  0  0  0  0  0  0  0  0  0  0  0
   -3.5707   -0.5961    0.1866 C   0  0  0  0  0  0  0  0  0  0  0  0
   -4.7944   -0.2585   -0.3690 C   0  0  0  0  0  0  0  0  0  0  0  0
   -5.1730    1.0780   -0.4507 C   0  0  0  0  0  0  0  0  0  0  0  0
   -4.3247    2.0655    0.0240 C   0  0  0  0  0  0  0  0  0  0  0  0
   -3.1077    1.7215    0.5824 C   0  0  0  0  0  0  0  0  0  0  0  0
   -6.3727    1.4144   -0.9956 O   0  0  0  0  0  0  0  0  0  0  0  0
   -5.6233   -1.2313   -0.8340 O   0  0  0  0  0  0  0  0  0  0  0  0
   -5.1688   -2.5811   -0.7178 C   0  0  0  0  0  0  0  0  0  0  0  0
   10.0531    1.3665   -0.6837 H   0  0  0  0  0  0  0  0  0  0  0  0
    9.6232   -0.3107   -1.0966 H   0  0  0  0  0  0  0  0  0  0  0  0
    9.0185    1.0342   -2.0935 H   0  0  0  0  0  0  0  0  0  0  0  0
    8.2796    0.5063    0.8206 H   0  0  0  0  0  0  0  0  0  0  0  0
    7.6749    1.8512   -0.1763 H   0  0  0  0  0  0  0  0  0  0  0  0
    6.6774    0.2270   -1.7624 H   0  0  0  0  0  0  0  0  0  0  0  0
    7.2821   -1.1179   -0.7654 H   0  0  0  0  0  0  0  0  0  0  0  0
    5.9384   -0.3009    1.1518 H   0  0  0  0  0  0  0  0  0  0  0  0
    5.3337    1.0440    0.1548 H   0  0  0  0  0  0  0  0  0  0  0  0
    4.3362   -0.5802   -1.4312 H   0  0  0  0  0  0  0  0  0  0  0  0
    4.9409   -1.9251   -0.4343 H   0  0  0  0  0  0  0  0  0  0  0  0
    3.4411   -0.9897    1.5161 H   0  0  0  0  0  0  0  0  0  0  0  0
    2.1093   -0.2750   -1.1381 H   0  0  0  0  0  0  0  0  0  0  0  0
   -0.2597    0.9792   -0.2975 H   0  0  0  0  0  0  0  0  0  0  0  0
   -0.6055   -0.7426   -0.5876 H   0  0  0  0  0  0  0  0  0  0  0  0
   -1.4705   -0.9588    1.7262 H   0  0  0  0  0  0  0  0  0  0  0  0
   -1.1247    0.7630    2.0163 H   0  0  0  0  0  0  0  0  0  0  0  0
   -3.2743   -1.6327    0.2509 H   0  0  0  0  0  0  0  0  0  0  0  0
   -4.6161    3.1035   -0.0382 H   0  0  0  0  0  0  0  0  0  0  0  0
   -2.4474    2.4920    0.9520 H   0  0  0  0  0  0  0  0  0  0  0  0
   -7.0977    1.4532   -0.3569 H   0  0  0  0  0  0  0  0  0  0  0  0
   -5.9228   -3.2546   -1.1252 H   0  0  0  0  0  0  0  0  0  0  0  0
   -4.2378   -2.7000   -1.2721 H   0  0  0  0  0  0  0  0  0  0  0  0
   -4.9991   -2.8182    0.3325 H   0  0  0  0  0  0  0  0  0  0  0  0
  1  2  1  0  0  0  0
  2  3  1  0  0  0  0
  3  4  1  0  0  0  0
  4  5  1  0  0  0  0
  5  6  1  0  0  0  0
  6  7  2  0  0  0  0
  7  8  1  0  0  0  0
  8  9  2  0  0  0  0
  8 10  1  0  0  0  0
 10 11  1  0  0  0  0
 11 12  1  0  0  0  0
 12 13  2  0  0  0  0
 13 14  1  0  0  0  0
 14 15  2  0  0  0  0
 15 16  1  0  0  0  0
 16 17  2  0  0  0  0
 12 17  1  0  0  0  0
 15 18  1  0  0  0  0
 14 19  1  0  0  0  0
 19 20  1  0  0  0  0
  1 21  1  0  0  0  0
  1 22  1  0  0  0  0
  1 23  1  0  0  0  0
  2 24  1  0  0  0  0
  2 25  1  0  0  0  0
  3 26  1  0  0  0  0
  3 27  1  0  0  0  0
  4 28  1  0  0  0  0
  4 29  1  0  0  0  0
  5 30  1  0  0  0  0
  5 31  1  0  0  0  0
  6 32  1  0  0  0  0
  7 33  1  0  0  0  0
 10 34  1  0  0  0  0
 10 35  1  0  0  0  0
 11 36  1  0  0  0  0
 11 37  1  0  0  0  0
 13 38  1  0  0  0  0
 16 39  1  0  0  0  0
 17 40  1  0  0  0  0
 18 41  1  0  0  0  0
 20 42  1  0  0  0  0
 20 43  1  0  0  0  0
 20 44  1  0  0  0  0
M  END
$$$$
