C16H16O3
APtclcactv06281816443D 0   0.00000     0.00000
 
 35 36  0  0  0  0  0  0  0  0999 V2000
   -3.1937    2.9986   -0.1388 C   0  0  0  0  0  0  0  0  0  0  0  0
   -2.4354    1.9296   -0.7083 O   0  0  0  0  0  0  0  0  0  0  0  0
   -2.7612    0.6681   -0.3220 C   0  0  0  0  0  0  0  0  0  0  0  0
   -2.0655   -0.4169   -0.8359 C   0  0  0  0  0  0  0  0  0  0  0  0
   -2.3960   -1.7000   -0.4431 C   0  0  0  0  0  0  0  0  0  0  0  0
   -3.4194   -1.9058    0.4618 C   0  0  0  0  0  0  0  0  0  0  0  0
   -4.1183   -0.8238    0.9788 C   0  0  0  0  0  0  0  0  0  0  0  0
   -3.7852    0.4644    0.5904 C   0  0  0  0  0  0  0  0  0  0  0  0
   -5.1252   -1.0270    1.8685 O   0  0  0  0  0  0  0  0  0  0  0  0
   -0.9490   -0.1959   -1.8236 C   0  0  0  0  0  0  0  0  0  0  0  0
    0.3306    0.0885   -1.0799 C   0  0  0  0  0  0  0  0  0  0  0  0
    1.4089   -0.6479   -1.3102 C   0  0  0  0  0  0  0  0  0  0  0  0
    2.6636   -0.3690   -0.5810 C   0  0  0  0  0  0  0  0  0  0  0  0
    3.7998   -1.1430   -0.8221 C   0  0  0  0  0  0  0  0  0  0  0  0
    4.9686   -0.8794   -0.1401 C   0  0  0  0  0  0  0  0  0  0  0  0
    5.0164    0.1546    0.7855 C   0  0  0  0  0  0  0  0  0  0  0  0
    3.8880    0.9265    1.0284 C   0  0  0  0  0  0  0  0  0  0  0  0
    2.7171    0.6728    0.3463 C   0  0  0  0  0  0  0  0  0  0  0  0
    6.1700    0.4113    1.4556 O   0  0  0  0  0  0  0  0  0  0  0  0
   -2.8322    3.9494   -0.5305 H   0  0  0  0  0  0  0  0  0  0  0  0
   -4.2455    2.8757   -0.3969 H   0  0  0  0  0  0  0  0  0  0  0  0
   -3.0817    2.9862    0.9454 H   0  0  0  0  0  0  0  0  0  0  0  0
   -1.8536   -2.5432   -0.8445 H   0  0  0  0  0  0  0  0  0  0  0  0
   -3.6761   -2.9095    0.7670 H   0  0  0  0  0  0  0  0  0  0  0  0
   -4.3279    1.3077    0.9915 H   0  0  0  0  0  0  0  0  0  0  0  0
   -4.8390   -1.0310    2.7922 H   0  0  0  0  0  0  0  0  0  0  0  0
   -0.8228   -1.0893   -2.4352 H   0  0  0  0  0  0  0  0  0  0  0  0
   -1.1929    0.6515   -2.4642 H   0  0  0  0  0  0  0  0  0  0  0  0
    0.3692    0.8921   -0.3594 H   0  0  0  0  0  0  0  0  0  0  0  0
    1.3703   -1.4515   -2.0308 H   0  0  0  0  0  0  0  0  0  0  0  0
    3.7633   -1.9475   -1.5416 H   0  0  0  0  0  0  0  0  0  0  0  0
    5.8480   -1.4781   -0.3258 H   0  0  0  0  0  0  0  0  0  0  0  0
    3.9288    1.7294    1.7496 H   0  0  0  0  0  0  0  0  0  0  0  0
    1.8399    1.2737    0.5358 H   0  0  0  0  0  0  0  0  0  0  0  0
    6.7499    1.0452    1.0118 H   0  0  0  0  0  0  0  0  0  0  0  0
  1  2  1  0  0  0  0
  2  3  1  0  0  0  0
  3  4  2  0  0  0  0
  4  5  1  0  0  0  0
  5  6  2  0  0  0  0
  6  7  1  0  0  0  0
  7  8  2  0  0  0  0
  3  8  1  0  0  0  0
  7  9  1  0  0  0  0
  4 10  1  0  0  0  0
 10 11  1  0  0  0  0
 11 12  2  0  0  0  0
 12 13  1  0  0  0  0
 13 14  2  0  0  0  0
 14 15  1  0  0  0  0
 15 16  2  0  0  0  0
 16 17  1  0  0  0  0
 17 18  2  0  0  0  0
 13 18  1  0  0  0  0
 16 19  1  0  0  0  0
  1 20  1  0  0  0  0
  1 21  1  0  0  0  0
  1 22  1  0  0  0  0
  5 23  1  0  0  0  0
  6 24  1  0  0  0  0
  8 25  1  0  0  0  0
  9 26  1  0  0  0  0
 10 27  1  0  0  0  0
 10 28  1  0  0  0  0
 11 29  1  0  0  0  0
 12 30  1  0  0  0  0
 14 31  1  0  0  0  0
 15 32  1  0  0  0  0
 17 33  1  0  0  0  0
 18 34  1  0  0  0  0
 19 35  1  0  0  0  0
M  END
$$$$
