C16H18O8
APtclcactv06281816473D 0   0.00000     0.00000
 
 42 43  0  0  0  0  0  0  0  0999 V2000
    3.8459    0.2284   -1.3166 C   0  0  0  0  0  0  0  0  0  0  0  0
    2.4278    0.7947   -1.2212 C   0  0  0  0  0  0  0  0  0  0  0  0
    1.5386   -0.1837   -0.4512 C   0  0  0  0  0  0  0  0  0  0  0  0
    2.1027   -0.3861    0.9565 C   0  0  0  0  0  0  0  0  0  0  0  0
    3.5208   -0.9525    0.8611 C   0  0  0  0  0  0  0  0  0  0  0  0
    4.4100    0.0260    0.0911 C   0  0  0  0  0  0  0  0  0  0  0  0
    5.8068   -0.5319   -0.0028 C   0  0  0  0  0  0  0  0  0  0  0  0
    5.9868   -1.7247    0.0659 O   0  0  0  0  0  0  0  0  0  0  0  0
    6.8509    0.2963   -0.1628 O   0  0  0  0  0  0  0  0  0  0  0  0
    4.4429    1.2798    0.7759 O   0  0  0  0  0  0  0  0  0  0  0  0
    2.1356    0.8677    1.6413 O   0  0  0  0  0  0  0  0  0  0  0  0
    0.2141    0.3453   -0.3621 O   0  0  0  0  0  0  0  0  0  0  0  0
   -0.7985   -0.5447   -0.3062 C   0  0  0  0  0  0  0  0  0  0  0  0
   -0.5619   -1.7377   -0.3325 O   0  0  0  0  0  0  0  0  0  0  0  0
   -2.1383   -0.0895   -0.2168 C   0  0  0  0  0  0  0  0  0  0  0  0
   -3.1521   -0.9806   -0.1609 C   0  0  0  0  0  0  0  0  0  0  0  0
   -4.5408   -0.5087   -0.0682 C   0  0  0  0  0  0  0  0  0  0  0  0
   -5.5933   -1.4300   -0.0101 C   0  0  0  0  0  0  0  0  0  0  0  0
   -6.8922   -0.9828    0.0766 C   0  0  0  0  0  0  0  0  0  0  0  0
   -7.1599    0.3811    0.1059 C   0  0  0  0  0  0  0  0  0  0  0  0
   -6.1184    1.3003    0.0485 C   0  0  0  0  0  0  0  0  0  0  0  0
   -4.8154    0.8635   -0.0321 C   0  0  0  0  0  0  0  0  0  0  0  0
   -8.4426    0.8169    0.1905 O   0  0  0  0  0  0  0  0  0  0  0  0
    2.4607    2.0486   -0.5364 O   0  0  0  0  0  0  0  0  0  0  0  0
    3.8208   -0.7280   -1.8389 H   0  0  0  0  0  0  0  0  0  0  0  0
    4.4794    0.9254   -1.8651 H   0  0  0  0  0  0  0  0  0  0  0  0
    2.0259    0.9389   -2.2241 H   0  0  0  0  0  0  0  0  0  0  0  0
    1.5135   -1.1401   -0.9736 H   0  0  0  0  0  0  0  0  0  0  0  0
    1.4692   -1.0831    1.5050 H   0  0  0  0  0  0  0  0  0  0  0  0
    3.9227   -1.0966    1.8640 H   0  0  0  0  0  0  0  0  0  0  0  0
    3.4957   -1.9088    0.3388 H   0  0  0  0  0  0  0  0  0  0  0  0
    7.7276   -0.1080   -0.2179 H   0  0  0  0  0  0  0  0  0  0  0  0
    4.9894    1.9500    0.3432 H   0  0  0  0  0  0  0  0  0  0  0  0
    2.4829    0.8149    2.5422 H   0  0  0  0  0  0  0  0  0  0  0  0
   -2.3484    0.9696   -0.1935 H   0  0  0  0  0  0  0  0  0  0  0  0
   -2.9421   -2.0397   -0.1842 H   0  0  0  0  0  0  0  0  0  0  0  0
   -5.3864   -2.4898   -0.0336 H   0  0  0  0  0  0  0  0  0  0  0  0
   -7.7049   -1.6927    0.1215 H   0  0  0  0  0  0  0  0  0  0  0  0
   -6.3317    2.3588    0.0712 H   0  0  0  0  0  0  0  0  0  0  0  0
   -4.0071    1.5784   -0.0766 H   0  0  0  0  0  0  0  0  0  0  0  0
   -8.7588    0.9351    1.0967 H   0  0  0  0  0  0  0  0  0  0  0  0
    3.0072    2.7188   -0.9692 H   0  0  0  0  0  0  0  0  0  0  0  0
  1  2  1  0  0  0  0
  2  3  1  0  0  0  0
  3  4  1  0  0  0  0
  4  5  1  0  0  0  0
  5  6  1  0  0  0  0
  1  6  1  0  0  0  0
  6  7  1  0  0  0  0
  7  8  2  0  0  0  0
  7  9  1  0  0  0  0
  6 10  1  0  0  0  0
  4 11  1  0  0  0  0
  3 12  1  0  0  0  0
 12 13  1  0  0  0  0
 13 14  2  0  0  0  0
 13 15  1  0  0  0  0
 15 16  2  0  0  0  0
 16 17  1  0  0  0  0
 17 18  2  0  0  0  0
 18 19  1  0  0  0  0
 19 20  2  0  0  0  0
 20 21  1  0  0  0  0
 21 22  2  0  0  0  0
 17 22  1  0  0  0  0
 20 23  1  0  0  0  0
  2 24  1  0  0  0  0
  1 25  1  0  0  0  0
  1 26  1  0  0  0  0
  2 27  1  0  0  0  0
  3 28  1  0  0  0  0
  4 29  1  0  0  0  0
  5 30  1  0  0  0  0
  5 31  1  0  0  0  0
  9 32  1  0  0  0  0
 10 33  1  0  0  0  0
 11 34  1  0  0  0  0
 15 35  1  0  0  0  0
 16 36  1  0  0  0  0
 18 37  1  0  0  0  0
 19 38  1  0  0  0  0
 21 39  1  0  0  0  0
 22 40  1  0  0  0  0
 23 41  1  0  0  0  0
 24 42  1  0  0  0  0
M  END
$$$$
