C15H10O4
APtclcactv06281816473D 0   0.00000     0.00000
 
 29 31  0  0  0  0  0  0  0  0999 V2000
   -2.5146    0.5890   -0.9900 C   0  0  0  0  0  0  0  0  0  0  0  0
   -3.8814    0.7523   -1.0786 C   0  0  0  0  0  0  0  0  0  0  0  0
   -4.7183    0.1122   -0.1750 C   0  0  0  0  0  0  0  0  0  0  0  0
   -4.1832   -0.6940    0.8202 C   0  0  0  0  0  0  0  0  0  0  0  0
   -2.8173   -0.8614    0.9141 C   0  0  0  0  0  0  0  0  0  0  0  0
   -1.9742   -0.2203    0.0080 C   0  0  0  0  0  0  0  0  0  0  0  0
   -0.5048   -0.3985    0.1058 C   0  0  0  0  0  0  0  0  0  0  0  0
    0.0674   -1.6125   -0.1040 C   0  0  0  0  0  0  0  0  0  0  0  0
    1.3800   -1.8248   -0.0101 O   0  0  0  0  0  0  0  0  0  0  0  0
    2.2564   -0.8030   -0.0106 C   0  0  0  0  0  0  0  0  0  0  0  0
    1.8198    0.5141    0.2164 C   0  0  0  0  0  0  0  0  0  0  0  0
    0.3781    0.7392    0.4277 C   0  0  0  0  0  0  0  0  0  0  0  0
   -0.0576    1.7965    0.8500 O   0  0  0  0  0  0  0  0  0  0  0  0
    2.7294    1.5711    0.2287 C   0  0  0  0  0  0  0  0  0  0  0  0
    4.0553    1.3254    0.0109 C   0  0  0  0  0  0  0  0  0  0  0  0
    4.4993    0.0253   -0.2224 C   0  0  0  0  0  0  0  0  0  0  0  0
    3.6085   -1.0339   -0.2335 C   0  0  0  0  0  0  0  0  0  0  0  0
    5.8192   -0.2046   -0.4411 O   0  0  0  0  0  0  0  0  0  0  0  0
   -6.0646    0.2755   -0.2646 O   0  0  0  0  0  0  0  0  0  0  0  0
   -1.8642    1.0841   -1.6958 H   0  0  0  0  0  0  0  0  0  0  0  0
   -4.3007    1.3793   -1.8515 H   0  0  0  0  0  0  0  0  0  0  0  0
   -4.8370   -1.1905    1.5220 H   0  0  0  0  0  0  0  0  0  0  0  0
   -2.4015   -1.4882    1.6890 H   0  0  0  0  0  0  0  0  0  0  0  0
   -0.5715   -2.4452   -0.3586 H   0  0  0  0  0  0  0  0  0  0  0  0
    2.3870    2.5794    0.4091 H   0  0  0  0  0  0  0  0  0  0  0  0
    4.7622    2.1419    0.0194 H   0  0  0  0  0  0  0  0  0  0  0  0
    3.9635   -2.0377   -0.4144 H   0  0  0  0  0  0  0  0  0  0  0  0
    6.3255   -0.3846    0.3628 H   0  0  0  0  0  0  0  0  0  0  0  0
   -6.5030   -0.3751   -0.8301 H   0  0  0  0  0  0  0  0  0  0  0  0
  1  2  2  0  0  0  0
  2  3  1  0  0  0  0
  3  4  2  0  0  0  0
  4  5  1  0  0  0  0
  5  6  2  0  0  0  0
  1  6  1  0  0  0  0
  6  7  1  0  0  0  0
  7  8  2  0  0  0  0
  8  9  1  0  0  0  0
  9 10  1  0  0  0  0
 10 11  2  0  0  0  0
 11 12  1  0  0  0  0
  7 12  1  0  0  0  0
 12 13  2  0  0  0  0
 11 14  1  0  0  0  0
 14 15  2  0  0  0  0
 15 16  1  0  0  0  0
 16 17  2  0  0  0  0
 10 17  1  0  0  0  0
 16 18  1  0  0  0  0
  3 19  1  0  0  0  0
  1 20  1  0  0  0  0
  2 21  1  0  0  0  0
  4 22  1  0  0  0  0
  5 23  1  0  0  0  0
  8 24  1  0  0  0  0
 14 25  1  0  0  0  0
 15 26  1  0  0  0  0
 17 27  1  0  0  0  0
 18 28  1  0  0  0  0
 19 29  1  0  0  0  0
M  END
$$$$
