C6H12O
APtclcactv06281816443D 0   0.00000     0.00000
 
 19 18  0  0  0  0  0  0  0  0999 V2000
   -3.2967    0.9376   -0.1151 C   0  0  0  0  0  0  0  0  0  0  0  0
   -2.5913   -0.3721    0.2428 C   0  0  0  0  0  0  0  0  0  0  0  0
   -1.2256   -0.3972   -0.3938 C   0  0  0  0  0  0  0  0  0  0  0  0
   -0.1620   -0.5942    0.3452 C   0  0  0  0  0  0  0  0  0  0  0  0
    1.2037   -0.6193   -0.2914 C   0  0  0  0  0  0  0  0  0  0  0  0
    2.1082    0.4019    0.4013 C   0  0  0  0  0  0  0  0  0  0  0  0
    3.4032    0.3781   -0.2023 O   0  0  0  0  0  0  0  0  0  0  0  0
   -2.7091    1.7790    0.2523 H   0  0  0  0  0  0  0  0  0  0  0  0
   -3.3991    1.0111   -1.1977 H   0  0  0  0  0  0  0  0  0  0  0  0
   -4.2845    0.9558    0.3454 H   0  0  0  0  0  0  0  0  0  0  0  0
   -2.4889   -0.4456    1.3255 H   0  0  0  0  0  0  0  0  0  0  0  0
   -3.1789   -1.2134   -0.1246 H   0  0  0  0  0  0  0  0  0  0  0  0
   -1.1237   -0.2528   -1.4593 H   0  0  0  0  0  0  0  0  0  0  0  0
   -0.2639   -0.7386    1.4106 H   0  0  0  0  0  0  0  0  0  0  0  0
    1.6345   -1.6153   -0.1881 H   0  0  0  0  0  0  0  0  0  0  0  0
    1.1164   -0.3691   -1.3487 H   0  0  0  0  0  0  0  0  0  0  0  0
    1.6774    1.3978    0.2980 H   0  0  0  0  0  0  0  0  0  0  0  0
    2.1955    0.1517    1.4586 H   0  0  0  0  0  0  0  0  0  0  0  0
    4.0305    1.0021    0.1877 H   0  0  0  0  0  0  0  0  0  0  0  0
  1  2  1  0  0  0  0
  2  3  1  0  0  0  0
  3  4  2  0  0  0  0
  4  5  1  0  0  0  0
  5  6  1  0  0  0  0
  6  7  1  0  0  0  0
  1  8  1  0  0  0  0
  1  9  1  0  0  0  0
  1 10  1  0  0  0  0
  2 11  1  0  0  0  0
  2 12  1  0  0  0  0
  3 13  1  0  0  0  0
  4 14  1  0  0  0  0
  5 15  1  0  0  0  0
  5 16  1  0  0  0  0
  6 17  1  0  0  0  0
  6 18  1  0  0  0  0
  7 19  1  0  0  0  0
M  END
$$$$
