C28H38N8O4
APtclcactv06281816433D 0   0.00000     0.00000
 
 78 80  0  0  0  0  0  0  0  0999 V2000
    5.2124   -4.0654   -0.9694 C   0  0  0  0  0  0  0  0  0  0  0  0
    6.3620   -4.5163   -1.5888 C   0  0  0  0  0  0  0  0  0  0  0  0
    7.6047   -4.1329   -1.1059 C   0  0  0  0  0  0  0  0  0  0  0  0
    7.6896   -3.2973   -0.0017 C   0  0  0  0  0  0  0  0  0  0  0  0
    6.5371   -2.8492    0.6142 C   0  0  0  0  0  0  0  0  0  0  0  0
    5.2997   -3.2328    0.1310 C   0  0  0  0  0  0  0  0  0  0  0  0
    4.0441   -2.7424    0.8048 C   0  0  0  0  0  0  0  0  0  0  0  0
    3.4317   -1.5550    0.0248 C   0  0  0  0  0  0  0  0  0  0  0  0
    1.9450   -1.8066    0.1892 C   0  0  0  0  0  0  0  0  0  0  0  0
    1.8005   -3.1220    0.6216 C   0  0  0  0  0  0  0  0  0  0  0  0
    3.0084   -3.7368    0.7370 O   0  0  0  0  0  0  0  0  0  0  0  0
    0.5194   -3.6209    0.8649 C   0  0  0  0  0  0  0  0  0  0  0  0
   -0.5856   -2.8263    0.6747 C   0  0  0  0  0  0  0  0  0  0  0  0
   -0.4354   -1.5061    0.2337 C   0  0  0  0  0  0  0  0  0  0  0  0
    0.8493   -1.0036   -0.0078 C   0  0  0  0  0  0  0  0  0  0  0  0
   -1.6157   -0.6548    0.0265 C   0  0  0  0  0  0  0  0  0  0  0  0
   -2.8511   -1.1450    0.2615 C   0  0  0  0  0  0  0  0  0  0  0  0
   -4.0255   -0.2980    0.0553 C   0  0  0  0  0  0  0  0  0  0  0  0
   -3.8887    0.8491   -0.3283 O   0  0  0  0  0  0  0  0  0  0  0  0
   -5.2591   -0.7875    0.2899 N   0  0  0  0  0  0  0  0  0  0  0  0
   -6.4354    0.0609    0.0834 C   0  0  0  0  0  0  0  0  0  0  0  0
   -7.7007   -0.7311    0.4189 C   0  0  0  0  0  0  0  0  0  0  0  0
   -8.9292    0.1550    0.2032 C   0  0  0  0  0  0  0  0  0  0  0  0
  -10.1945   -0.6369    0.5387 C   0  0  0  0  0  0  0  0  0  0  0  0
  -11.3708    0.2115    0.3321 N   0  0  0  0  0  0  0  0  0  0  0  0
  -12.2540   -0.1076   -0.5718 C   0  0  0  0  0  0  0  0  0  0  0  0
  -12.1511   -1.3041   -1.2411 N   0  0  0  0  0  0  0  0  0  0  0  0
  -13.2884    0.7522   -0.8560 N   0  0  0  0  0  0  0  0  0  0  0  0
    3.8277   -0.2406    0.6465 C   0  0  0  0  0  0  0  0  0  0  0  0
    4.5378   -0.2242    1.6296 O   0  0  0  0  0  0  0  0  0  0  0  0
    3.3926    0.9168    0.1101 N   0  0  0  0  0  0  0  0  0  0  0  0
    3.7775    2.1946    0.7145 C   0  0  0  0  0  0  0  0  0  0  0  0
    3.1551    3.3434   -0.0816 C   0  0  0  0  0  0  0  0  0  0  0  0
    3.5570    4.6779    0.5496 C   0  0  0  0  0  0  0  0  0  0  0  0
    2.9346    5.8266   -0.2465 C   0  0  0  0  0  0  0  0  0  0  0  0
    3.3195    7.1044    0.3579 N   0  0  0  0  0  0  0  0  0  0  0  0
    4.0396    7.9546   -0.3185 C   0  0  0  0  0  0  0  0  0  0  0  0
    4.3293    7.7116   -1.6403 N   0  0  0  0  0  0  0  0  0  0  0  0
    4.5096    9.0944    0.2899 N   0  0  0  0  0  0  0  0  0  0  0  0
    8.7371   -4.5755   -1.7132 O   0  0  0  0  0  0  0  0  0  0  0  0
    4.2447   -4.3600   -1.3477 H   0  0  0  0  0  0  0  0  0  0  0  0
    6.2933   -5.1670   -2.4480 H   0  0  0  0  0  0  0  0  0  0  0  0
    8.6559   -2.9978    0.3764 H   0  0  0  0  0  0  0  0  0  0  0  0
    6.6027   -2.1990    1.4740 H   0  0  0  0  0  0  0  0  0  0  0  0
    4.2467   -2.4619    1.8384 H   0  0  0  0  0  0  0  0  0  0  0  0
    3.7189   -1.5895   -1.0261 H   0  0  0  0  0  0  0  0  0  0  0  0
    0.3959   -4.6384    1.2053 H   0  0  0  0  0  0  0  0  0  0  0  0
   -1.5724   -3.2213    0.8657 H   0  0  0  0  0  0  0  0  0  0  0  0
    0.9776    0.0134   -0.3478 H   0  0  0  0  0  0  0  0  0  0  0  0
   -1.4944    0.3630   -0.3139 H   0  0  0  0  0  0  0  0  0  0  0  0
   -2.9725   -2.1628    0.6018 H   0  0  0  0  0  0  0  0  0  0  0  0
   -5.3681   -1.7016    0.5956 H   0  0  0  0  0  0  0  0  0  0  0  0
   -6.3713    0.9350    0.7315 H   0  0  0  0  0  0  0  0  0  0  0  0
   -6.4732    0.3824   -0.9575 H   0  0  0  0  0  0  0  0  0  0  0  0
   -7.7648   -1.6051   -0.2292 H   0  0  0  0  0  0  0  0  0  0  0  0
   -7.6628   -1.0525    1.4597 H   0  0  0  0  0  0  0  0  0  0  0  0
   -8.8651    1.0291    0.8513 H   0  0  0  0  0  0  0  0  0  0  0  0
   -8.9671    0.4765   -0.8377 H   0  0  0  0  0  0  0  0  0  0  0  0
  -10.2587   -1.5110   -0.1094 H   0  0  0  0  0  0  0  0  0  0  0  0
  -10.1567   -0.9584    1.5795 H   0  0  0  0  0  0  0  0  0  0  0  0
  -11.5115   -1.9712   -0.9464 H   0  0  0  0  0  0  0  0  0  0  0  0
  -12.7180   -1.4812   -2.0080 H   0  0  0  0  0  0  0  0  0  0  0  0
  -13.3610    1.5964   -0.3838 H   0  0  0  0  0  0  0  0  0  0  0  0
  -13.9456    0.5147   -1.5288 H   0  0  0  0  0  0  0  0  0  0  0  0
    2.8247    0.9037   -0.6761 H   0  0  0  0  0  0  0  0  0  0  0  0
    3.4216    2.2314    1.7441 H   0  0  0  0  0  0  0  0  0  0  0  0
    4.8633    2.2902    0.7018 H   0  0  0  0  0  0  0  0  0  0  0  0
    3.5110    3.3066   -1.1112 H   0  0  0  0  0  0  0  0  0  0  0  0
    2.0693    3.2478   -0.0689 H   0  0  0  0  0  0  0  0  0  0  0  0
    3.2011    4.7146    1.5792 H   0  0  0  0  0  0  0  0  0  0  0  0
    4.6428    4.7734    0.5368 H   0  0  0  0  0  0  0  0  0  0  0  0
    3.2905    5.7899   -1.2761 H   0  0  0  0  0  0  0  0  0  0  0  0
    1.8489    5.7311   -0.2338 H   0  0  0  0  0  0  0  0  0  0  0  0
    3.8852    6.9877   -2.1090 H   0  0  0  0  0  0  0  0  0  0  0  0
    4.9777    8.2640   -2.1043 H   0  0  0  0  0  0  0  0  0  0  0  0
    4.3052    9.2659    1.2225 H   0  0  0  0  0  0  0  0  0  0  0  0
    5.0455    9.7272   -0.2135 H   0  0  0  0  0  0  0  0  0  0  0  0
    9.0544   -3.9989   -2.4217 H   0  0  0  0  0  0  0  0  0  0  0  0
  1  2  2  0  0  0  0
  2  3  1  0  0  0  0
  3  4  2  0  0  0  0
  4  5  1  0  0  0  0
  5  6  2  0  0  0  0
  1  6  1  0  0  0  0
  6  7  1  0  0  0  0
  7  8  1  0  0  0  0
  8  9  1  0  0  0  0
  9 10  2  0  0  0  0
 10 11  1  0  0  0  0
  7 11  1  0  0  0  0
 10 12  1  0  0  0  0
 12 13  2  0  0  0  0
 13 14  1  0  0  0  0
 14 15  2  0  0  0  0
  9 15  1  0  0  0  0
 14 16  1  0  0  0  0
 16 17  2  0  0  0  0
 17 18  1  0  0  0  0
 18 19  2  0  0  0  0
 18 20  1  0  0  0  0
 20 21  1  0  0  0  0
 21 22  1  0  0  0  0
 22 23  1  0  0  0  0
 23 24  1  0  0  0  0
 24 25  1  0  0  0  0
 25 26  2  0  0  0  0
 26 27  1  0  0  0  0
 26 28  1  0  0  0  0
  8 29  1  0  0  0  0
 29 30  2  0  0  0  0
 29 31  1  0  0  0  0
 31 32  1  0  0  0  0
 32 33  1  0  0  0  0
 33 34  1  0  0  0  0
 34 35  1  0  0  0  0
 35 36  1  0  0  0  0
 36 37  2  0  0  0  0
 37 38  1  0  0  0  0
 37 39  1  0  0  0  0
  3 40  1  0  0  0  0
  1 41  1  0  0  0  0
  2 42  1  0  0  0  0
  4 43  1  0  0  0  0
  5 44  1  0  0  0  0
  7 45  1  0  0  0  0
  8 46  1  0  0  0  0
 12 47  1  0  0  0  0
 13 48  1  0  0  0  0
 15 49  1  0  0  0  0
 16 50  1  0  0  0  0
 17 51  1  0  0  0  0
 20 52  1  0  0  0  0
 21 53  1  0  0  0  0
 21 54  1  0  0  0  0
 22 55  1  0  0  0  0
 22 56  1  0  0  0  0
 23 57  1  0  0  0  0
 23 58  1  0  0  0  0
 24 59  1  0  0  0  0
 24 60  1  0  0  0  0
 27 61  1  0  0  0  0
 27 62  1  0  0  0  0
 28 63  1  0  0  0  0
 28 64  1  0  0  0  0
 31 65  1  0  0  0  0
 32 66  1  0  0  0  0
 32 67  1  0  0  0  0
 33 68  1  0  0  0  0
 33 69  1  0  0  0  0
 34 70  1  0  0  0  0
 34 71  1  0  0  0  0
 35 72  1  0  0  0  0
 35 73  1  0  0  0  0
 38 74  1  0  0  0  0
 38 75  1  0  0  0  0
 39 76  1  0  0  0  0
 39 77  1  0  0  0  0
 40 78  1  0  0  0  0
M  END
$$$$
