C15H10O5
APtclcactv06281816463D 0   0.00000     0.00000
 
 30 32  0  0  0  0  0  0  0  0999 V2000
   -5.3836   -0.5985    0.0098 C   0  0  0  0  0  0  0  0  0  0  0  0
   -4.5052   -1.3984   -0.6996 C   0  0  0  0  0  0  0  0  0  0  0  0
   -3.1576   -1.1043   -0.7142 C   0  0  0  0  0  0  0  0  0  0  0  0
   -2.6805    0.0038   -0.0108 C   0  0  0  0  0  0  0  0  0  0  0  0
   -3.5726    0.8068    0.7031 C   0  0  0  0  0  0  0  0  0  0  0  0
   -4.9177    0.5010    0.7090 C   0  0  0  0  0  0  0  0  0  0  0  0
   -1.2390    0.3247   -0.0214 C   0  0  0  0  0  0  0  0  0  0  0  0
   -0.8602    1.6272   -0.1053 C   0  0  0  0  0  0  0  0  0  0  0  0
    0.5177    1.9546   -0.1168 C   0  0  0  0  0  0  0  0  0  0  0  0
    0.8935    3.1132   -0.1907 O   0  0  0  0  0  0  0  0  0  0  0  0
    1.4791    0.8420   -0.0355 C   0  0  0  0  0  0  0  0  0  0  0  0
    0.9804   -0.4695    0.0481 C   0  0  0  0  0  0  0  0  0  0  0  0
   -0.3535   -0.6807    0.0577 O   0  0  0  0  0  0  0  0  0  0  0  0
    1.8700   -1.5339    0.1256 C   0  0  0  0  0  0  0  0  0  0  0  0
    3.2383   -1.2960    0.1199 C   0  0  0  0  0  0  0  0  0  0  0  0
    3.7309    0.0016    0.0376 C   0  0  0  0  0  0  0  0  0  0  0  0
    2.8603    1.0725   -0.0411 C   0  0  0  0  0  0  0  0  0  0  0  0
    3.3413    2.3398   -0.1218 O   0  0  0  0  0  0  0  0  0  0  0  0
    4.1034   -2.3407    0.1958 O   0  0  0  0  0  0  0  0  0  0  0  0
    1.4006   -2.8095    0.2075 O   0  0  0  0  0  0  0  0  0  0  0  0
   -6.4383   -0.8308    0.0142 H   0  0  0  0  0  0  0  0  0  0  0  0
   -4.8755   -2.2553   -1.2428 H   0  0  0  0  0  0  0  0  0  0  0  0
   -2.4730   -1.7296   -1.2680 H   0  0  0  0  0  0  0  0  0  0  0  0
   -3.2103    1.6650    1.2495 H   0  0  0  0  0  0  0  0  0  0  0  0
   -5.6087    1.1211    1.2606 H   0  0  0  0  0  0  0  0  0  0  0  0
   -1.6048    2.4073   -0.1632 H   0  0  0  0  0  0  0  0  0  0  0  0
    4.7972    0.1734    0.0344 H   0  0  0  0  0  0  0  0  0  0  0  0
    3.4878    2.6479   -1.0266 H   0  0  0  0  0  0  0  0  0  0  0  0
    4.3604   -2.7019   -0.6636 H   0  0  0  0  0  0  0  0  0  0  0  0
    1.2713   -3.2369   -0.6503 H   0  0  0  0  0  0  0  0  0  0  0  0
  1  2  2  0  0  0  0
  2  3  1  0  0  0  0
  3  4  2  0  0  0  0
  4  5  1  0  0  0  0
  5  6  2  0  0  0  0
  1  6  1  0  0  0  0
  4  7  1  0  0  0  0
  7  8  2  0  0  0  0
  8  9  1  0  0  0  0
  9 10  2  0  0  0  0
  9 11  1  0  0  0  0
 11 12  2  0  0  0  0
 12 13  1  0  0  0  0
  7 13  1  0  0  0  0
 12 14  1  0  0  0  0
 14 15  2  0  0  0  0
 15 16  1  0  0  0  0
 16 17  2  0  0  0  0
 11 17  1  0  0  0  0
 17 18  1  0  0  0  0
 15 19  1  0  0  0  0
 14 20  1  0  0  0  0
  1 21  1  0  0  0  0
  2 22  1  0  0  0  0
  3 23  1  0  0  0  0
  5 24  1  0  0  0  0
  6 25  1  0  0  0  0
  8 26  1  0  0  0  0
 16 27  1  0  0  0  0
 18 28  1  0  0  0  0
 19 29  1  0  0  0  0
 20 30  1  0  0  0  0
M  END
$$$$
