C14H12O4
APtclcactv06281816473D 0   0.00000     0.00000
 
 30 31  0  0  0  0  0  0  0  0999 V2000
    3.7455   -1.5552   -0.0071 C   0  0  0  0  0  0  0  0  0  0  0  0
    2.3943   -1.2865   -0.0082 C   0  0  0  0  0  0  0  0  0  0  0  0
    1.9463    0.0374   -0.0140 C   0  0  0  0  0  0  0  0  0  0  0  0
    2.8771    1.0868   -0.0187 C   0  0  0  0  0  0  0  0  0  0  0  0
    4.2315    0.8038   -0.0175 C   0  0  0  0  0  0  0  0  0  0  0  0
    4.6660   -0.5137   -0.0118 C   0  0  0  0  0  0  0  0  0  0  0  0
    5.9967   -0.7871   -0.0106 O   0  0  0  0  0  0  0  0  0  0  0  0
    2.4503    2.3760   -0.0248 O   0  0  0  0  0  0  0  0  0  0  0  0
    0.5032    0.3294   -0.0157 C   0  0  0  0  0  0  0  0  0  0  0  0
   -0.3859   -0.6776   -0.0116 C   0  0  0  0  0  0  0  0  0  0  0  0
   -1.8303   -0.3854   -0.0133 C   0  0  0  0  0  0  0  0  0  0  0  0
   -2.7569   -1.4308   -0.0091 C   0  0  0  0  0  0  0  0  0  0  0  0
   -4.1129   -1.1510   -0.0108 C   0  0  0  0  0  0  0  0  0  0  0  0
   -4.5521    0.1653   -0.0166 C   0  0  0  0  0  0  0  0  0  0  0  0
   -3.6357    1.2074   -0.0213 C   0  0  0  0  0  0  0  0  0  0  0  0
   -2.2775    0.9381   -0.0134 C   0  0  0  0  0  0  0  0  0  0  0  0
   -4.0720    2.4945   -0.0279 O   0  0  0  0  0  0  0  0  0  0  0  0
   -5.0153   -2.1672   -0.0072 O   0  0  0  0  0  0  0  0  0  0  0  0
    4.0906   -2.5785    0.0020 H   0  0  0  0  0  0  0  0  0  0  0  0
    1.6819   -2.0982   -0.0049 H   0  0  0  0  0  0  0  0  0  0  0  0
    4.9510    1.6092   -0.0211 H   0  0  0  0  0  0  0  0  0  0  0  0
    6.3820   -0.8625    0.8731 H   0  0  0  0  0  0  0  0  0  0  0  0
    2.3266    2.7535    0.8569 H   0  0  0  0  0  0  0  0  0  0  0  0
    0.1594    1.3532   -0.0202 H   0  0  0  0  0  0  0  0  0  0  0  0
   -0.0421   -1.7014   -0.0072 H   0  0  0  0  0  0  0  0  0  0  0  0
   -2.4160   -2.4556   -0.0050 H   0  0  0  0  0  0  0  0  0  0  0  0
   -5.6106    0.3795   -0.0179 H   0  0  0  0  0  0  0  0  0  0  0  0
   -1.5651    1.7497   -0.0166 H   0  0  0  0  0  0  0  0  0  0  0  0
   -4.1988    2.8713    0.8536 H   0  0  0  0  0  0  0  0  0  0  0  0
   -5.2768   -2.4579    0.8773 H   0  0  0  0  0  0  0  0  0  0  0  0
  1  2  2  0  0  0  0
  2  3  1  0  0  0  0
  3  4  2  0  0  0  0
  4  5  1  0  0  0  0
  5  6  2  0  0  0  0
  1  6  1  0  0  0  0
  6  7  1  0  0  0  0
  4  8  1  0  0  0  0
  3  9  1  0  0  0  0
  9 10  2  0  0  0  0
 10 11  1  0  0  0  0
 11 12  2  0  0  0  0
 12 13  1  0  0  0  0
 13 14  2  0  0  0  0
 14 15  1  0  0  0  0
 15 16  2  0  0  0  0
 11 16  1  0  0  0  0
 15 17  1  0  0  0  0
 13 18  1  0  0  0  0
  1 19  1  0  0  0  0
  2 20  1  0  0  0  0
  5 21  1  0  0  0  0
  7 22  1  0  0  0  0
  8 23  1  0  0  0  0
  9 24  1  0  0  0  0
 10 25  1  0  0  0  0
 12 26  1  0  0  0  0
 14 27  1  0  0  0  0
 16 28  1  0  0  0  0
 17 29  1  0  0  0  0
 18 30  1  0  0  0  0
M  END
$$$$
