C16H12O6
APtclcactv06281816453D 0   0.00000     0.00000
 
 34 36  0  0  0  0  0  0  0  0999 V2000
    5.6423    0.2386    1.0310 C   0  0  0  0  0  0  0  0  0  0  0  0
    4.9591    0.1949   -0.2233 O   0  0  0  0  0  0  0  0  0  0  0  0
    3.6048    0.3313   -0.1946 C   0  0  0  0  0  0  0  0  0  0  0  0
    3.0308    1.5977   -0.2861 C   0  0  0  0  0  0  0  0  0  0  0  0
    1.6537    1.7520   -0.2583 C   0  0  0  0  0  0  0  0  0  0  0  0
    0.8326    0.6419   -0.1386 C   0  0  0  0  0  0  0  0  0  0  0  0
    1.4075   -0.6378   -0.0465 C   0  0  0  0  0  0  0  0  0  0  0  0
    2.7985   -0.7901   -0.0803 C   0  0  0  0  0  0  0  0  0  0  0  0
    3.3541   -2.0264    0.0082 O   0  0  0  0  0  0  0  0  0  0  0  0
    0.5142   -1.8020    0.0800 C   0  0  0  0  0  0  0  0  0  0  0  0
    0.9583   -2.9357    0.1639 O   0  0  0  0  0  0  0  0  0  0  0  0
   -0.8786   -1.5549    0.1008 C   0  0  0  0  0  0  0  0  0  0  0  0
   -1.3348   -0.2768    0.0053 C   0  0  0  0  0  0  0  0  0  0  0  0
   -0.5109    0.7767   -0.1092 O   0  0  0  0  0  0  0  0  0  0  0  0
   -2.7905   -0.0397    0.0289 C   0  0  0  0  0  0  0  0  0  0  0  0
   -3.3112    1.0535    0.7271 C   0  0  0  0  0  0  0  0  0  0  0  0
   -4.6710    1.2714    0.7462 C   0  0  0  0  0  0  0  0  0  0  0  0
   -5.5250    0.4061    0.0728 C   0  0  0  0  0  0  0  0  0  0  0  0
   -5.0115   -0.6822   -0.6223 C   0  0  0  0  0  0  0  0  0  0  0  0
   -3.6525   -0.9041   -0.6517 C   0  0  0  0  0  0  0  0  0  0  0  0
   -6.8647    0.6244    0.0946 O   0  0  0  0  0  0  0  0  0  0  0  0
    3.8283    2.6911   -0.4031 O   0  0  0  0  0  0  0  0  0  0  0  0
    5.4547    1.1977    1.5137 H   0  0  0  0  0  0  0  0  0  0  0  0
    5.2803   -0.5668    1.6702 H   0  0  0  0  0  0  0  0  0  0  0  0
    6.7129    0.1181    0.8660 H   0  0  0  0  0  0  0  0  0  0  0  0
    1.2200    2.7385   -0.3295 H   0  0  0  0  0  0  0  0  0  0  0  0
    3.4853   -2.4607   -0.8458 H   0  0  0  0  0  0  0  0  0  0  0  0
   -1.5750   -2.3754    0.1917 H   0  0  0  0  0  0  0  0  0  0  0  0
   -2.6483    1.7260    1.2512 H   0  0  0  0  0  0  0  0  0  0  0  0
   -5.0743    2.1158    1.2854 H   0  0  0  0  0  0  0  0  0  0  0  0
   -5.6787   -1.3524   -1.1439 H   0  0  0  0  0  0  0  0  0  0  0  0
   -3.2543   -1.7501   -1.1921 H   0  0  0  0  0  0  0  0  0  0  0  0
   -7.1837    1.1849   -0.6260 H   0  0  0  0  0  0  0  0  0  0  0  0
    4.0333    2.9325   -1.3168 H   0  0  0  0  0  0  0  0  0  0  0  0
  1  2  1  0  0  0  0
  2  3  1  0  0  0  0
  3  4  2  0  0  0  0
  4  5  1  0  0  0  0
  5  6  2  0  0  0  0
  6  7  1  0  0  0  0
  7  8  2  0  0  0  0
  3  8  1  0  0  0  0
  8  9  1  0  0  0  0
  7 10  1  0  0  0  0
 10 11  2  0  0  0  0
 10 12  1  0  0  0  0
 12 13  2  0  0  0  0
 13 14  1  0  0  0  0
  6 14  1  0  0  0  0
 13 15  1  0  0  0  0
 15 16  2  0  0  0  0
 16 17  1  0  0  0  0
 17 18  2  0  0  0  0
 18 19  1  0  0  0  0
 19 20  2  0  0  0  0
 15 20  1  0  0  0  0
 18 21  1  0  0  0  0
  4 22  1  0  0  0  0
  1 23  1  0  0  0  0
  1 24  1  0  0  0  0
  1 25  1  0  0  0  0
  5 26  1  0  0  0  0
  9 27  1  0  0  0  0
 12 28  1  0  0  0  0
 16 29  1  0  0  0  0
 17 30  1  0  0  0  0
 19 31  1  0  0  0  0
 20 32  1  0  0  0  0
 21 33  1  0  0  0  0
 22 34  1  0  0  0  0
M  END
$$$$
