C16H12O5
APtclcactv06281816463D 0   0.00000     0.00000
 
 33 35  0  0  0  0  0  0  0  0999 V2000
   -1.2500    3.3404    0.7702 C   0  0  0  0  0  0  0  0  0  0  0  0
   -1.4353    2.5645   -0.4154 O   0  0  0  0  0  0  0  0  0  0  0  0
   -1.8592    1.2806   -0.2540 C   0  0  0  0  0  0  0  0  0  0  0  0
   -3.2182    0.9948   -0.2348 C   0  0  0  0  0  0  0  0  0  0  0  0
   -3.6645   -0.3118   -0.0707 C   0  0  0  0  0  0  0  0  0  0  0  0
   -2.7566   -1.3438    0.0755 C   0  0  0  0  0  0  0  0  0  0  0  0
   -1.3844   -1.0650    0.0569 C   0  0  0  0  0  0  0  0  0  0  0  0
   -0.9325    0.2550   -0.1142 C   0  0  0  0  0  0  0  0  0  0  0  0
    0.3930    0.5132   -0.1316 O   0  0  0  0  0  0  0  0  0  0  0  0
    1.3135   -0.4532    0.0100 C   0  0  0  0  0  0  0  0  0  0  0  0
    0.9810   -1.7599    0.1804 C   0  0  0  0  0  0  0  0  0  0  0  0
   -0.3843   -2.1352    0.2088 C   0  0  0  0  0  0  0  0  0  0  0  0
   -0.7189   -3.2989    0.3604 O   0  0  0  0  0  0  0  0  0  0  0  0
    2.7428   -0.0825   -0.0212 C   0  0  0  0  0  0  0  0  0  0  0  0
    3.1789    1.0837    0.6113 C   0  0  0  0  0  0  0  0  0  0  0  0
    4.5152    1.4239    0.5783 C   0  0  0  0  0  0  0  0  0  0  0  0
    5.4229    0.6128   -0.0797 C   0  0  0  0  0  0  0  0  0  0  0  0
    4.9977   -0.5442   -0.7085 C   0  0  0  0  0  0  0  0  0  0  0  0
    3.6652   -0.8995   -0.6784 C   0  0  0  0  0  0  0  0  0  0  0  0
   -3.1925   -2.6198    0.2367 O   0  0  0  0  0  0  0  0  0  0  0  0
   -4.1197    2.0011   -0.3772 O   0  0  0  0  0  0  0  0  0  0  0  0
   -0.9117    4.3409    0.5005 H   0  0  0  0  0  0  0  0  0  0  0  0
   -2.1941    3.4095    1.3104 H   0  0  0  0  0  0  0  0  0  0  0  0
   -0.5028    2.8628    1.4039 H   0  0  0  0  0  0  0  0  0  0  0  0
   -4.7240   -0.5210   -0.0572 H   0  0  0  0  0  0  0  0  0  0  0  0
    1.7528   -2.5074    0.2899 H   0  0  0  0  0  0  0  0  0  0  0  0
    2.4714    1.7179    1.1249 H   0  0  0  0  0  0  0  0  0  0  0  0
    4.8538    2.3257    1.0667 H   0  0  0  0  0  0  0  0  0  0  0  0
    6.4680    0.8841   -0.1028 H   0  0  0  0  0  0  0  0  0  0  0  0
    5.7114   -1.1727   -1.2202 H   0  0  0  0  0  0  0  0  0  0  0  0
    3.3346   -1.8027   -1.1696 H   0  0  0  0  0  0  0  0  0  0  0  0
   -3.3077   -3.1037   -0.5925 H   0  0  0  0  0  0  0  0  0  0  0  0
   -4.3692    2.1788   -1.2944 H   0  0  0  0  0  0  0  0  0  0  0  0
  1  2  1  0  0  0  0
  2  3  1  0  0  0  0
  3  4  2  0  0  0  0
  4  5  1  0  0  0  0
  5  6  2  0  0  0  0
  6  7  1  0  0  0  0
  7  8  2  0  0  0  0
  3  8  1  0  0  0  0
  8  9  1  0  0  0  0
  9 10  1  0  0  0  0
 10 11  2  0  0  0  0
 11 12  1  0  0  0  0
  7 12  1  0  0  0  0
 12 13  2  0  0  0  0
 10 14  1  0  0  0  0
 14 15  2  0  0  0  0
 15 16  1  0  0  0  0
 16 17  2  0  0  0  0
 17 18  1  0  0  0  0
 18 19  2  0  0  0  0
 14 19  1  0  0  0  0
  6 20  1  0  0  0  0
  4 21  1  0  0  0  0
  1 22  1  0  0  0  0
  1 23  1  0  0  0  0
  1 24  1  0  0  0  0
  5 25  1  0  0  0  0
 11 26  1  0  0  0  0
 15 27  1  0  0  0  0
 16 28  1  0  0  0  0
 17 29  1  0  0  0  0
 18 30  1  0  0  0  0
 19 31  1  0  0  0  0
 20 32  1  0  0  0  0
 21 33  1  0  0  0  0
M  END
$$$$
