C13H8O6
APtclcactv06281816453D 0   0.00000     0.00000
 
 27 29  0  0  0  0  0  0  0  0999 V2000
   -3.7847    0.3220    0.2826 C   0  0  0  0  0  0  0  0  0  0  0  0
   -3.6887   -1.0582    0.2326 C   0  0  0  0  0  0  0  0  0  0  0  0
   -2.4671   -1.6769    0.0349 C   0  0  0  0  0  0  0  0  0  0  0  0
   -1.3109   -0.9128   -0.1155 C   0  0  0  0  0  0  0  0  0  0  0  0
   -1.4097    0.4860   -0.0586 C   0  0  0  0  0  0  0  0  0  0  0  0
   -2.6500    1.1025    0.1366 C   0  0  0  0  0  0  0  0  0  0  0  0
   -2.7409    2.4564    0.1826 O   0  0  0  0  0  0  0  0  0  0  0  0
   -0.1763    1.2858   -0.2016 C   0  0  0  0  0  0  0  0  0  0  0  0
   -0.2043    2.4894   -0.3854 O   0  0  0  0  0  0  0  0  0  0  0  0
    1.0908    0.5381   -0.1078 C   0  0  0  0  0  0  0  0  0  0  0  0
    2.3134    1.2061    0.0347 C   0  0  0  0  0  0  0  0  0  0  0  0
    3.4825    0.4732    0.1334 C   0  0  0  0  0  0  0  0  0  0  0  0
    3.4378   -0.9154    0.0884 C   0  0  0  0  0  0  0  0  0  0  0  0
    2.2306   -1.5815   -0.0586 C   0  0  0  0  0  0  0  0  0  0  0  0
    1.0460   -0.8663   -0.1619 C   0  0  0  0  0  0  0  0  0  0  0  0
   -0.1231   -1.5195   -0.3190 O   0  0  0  0  0  0  0  0  0  0  0  0
    4.5889   -1.6273    0.1891 O   0  0  0  0  0  0  0  0  0  0  0  0
    2.3508    2.5616    0.0762 O   0  0  0  0  0  0  0  0  0  0  0  0
   -2.3940   -3.0348   -0.0123 O   0  0  0  0  0  0  0  0  0  0  0  0
   -4.7463    0.7907    0.4312 H   0  0  0  0  0  0  0  0  0  0  0  0
   -4.5783   -1.6593    0.3497 H   0  0  0  0  0  0  0  0  0  0  0  0
   -2.8943    2.8697   -0.6781 H   0  0  0  0  0  0  0  0  0  0  0  0
    4.4297    0.9798    0.2450 H   0  0  0  0  0  0  0  0  0  0  0  0
    2.2123   -2.6608   -0.0932 H   0  0  0  0  0  0  0  0  0  0  0  0
    4.8300   -1.8590    1.0964 H   0  0  0  0  0  0  0  0  0  0  0  0
    2.2726    2.9302    0.9667 H   0  0  0  0  0  0  0  0  0  0  0  0
   -2.5023   -3.4039   -0.8995 H   0  0  0  0  0  0  0  0  0  0  0  0
  1  2  2  0  0  0  0
  2  3  1  0  0  0  0
  3  4  2  0  0  0  0
  4  5  1  0  0  0  0
  5  6  2  0  0  0  0
  1  6  1  0  0  0  0
  6  7  1  0  0  0  0
  5  8  1  0  0  0  0
  8  9  2  0  0  0  0
  8 10  1  0  0  0  0
 10 11  2  0  0  0  0
 11 12  1  0  0  0  0
 12 13  2  0  0  0  0
 13 14  1  0  0  0  0
 14 15  2  0  0  0  0
 10 15  1  0  0  0  0
 15 16  1  0  0  0  0
  4 16  1  0  0  0  0
 13 17  1  0  0  0  0
 11 18  1  0  0  0  0
  3 19  1  0  0  0  0
  1 20  1  0  0  0  0
  2 21  1  0  0  0  0
  7 22  1  0  0  0  0
 12 23  1  0  0  0  0
 14 24  1  0  0  0  0
 17 25  1  0  0  0  0
 18 26  1  0  0  0  0
 19 27  1  0  0  0  0
M  END
$$$$
