C19H18O8
APtclcactv06281816453D 0   0.00000     0.00000
 
 45 47  0  0  0  0  0  0  0  0999 V2000
   -5.1173    1.2759   -2.0617 C   0  0  0  0  0  0  0  0  0  0  0  0
   -5.5298    0.2382   -1.1700 O   0  0  0  0  0  0  0  0  0  0  0  0
   -4.5635   -0.3427   -0.4095 C   0  0  0  0  0  0  0  0  0  0  0  0
   -4.8964   -1.3613    0.4815 C   0  0  0  0  0  0  0  0  0  0  0  0
   -3.9131   -1.9562    1.2596 C   0  0  0  0  0  0  0  0  0  0  0  0
   -2.6025   -1.5425    1.1549 C   0  0  0  0  0  0  0  0  0  0  0  0
   -2.2612   -0.5218    0.2632 C   0  0  0  0  0  0  0  0  0  0  0  0
   -3.2508    0.0733   -0.5244 C   0  0  0  0  0  0  0  0  0  0  0  0
   -0.8598   -0.0773    0.1499 C   0  0  0  0  0  0  0  0  0  0  0  0
   -0.5916    1.2586    0.1702 C   0  0  0  0  0  0  0  0  0  0  0  0
    0.7515    1.7026    0.0623 C   0  0  0  0  0  0  0  0  0  0  0  0
    1.0295    2.8912    0.0770 O   0  0  0  0  0  0  0  0  0  0  0  0
    1.7965    0.6746   -0.0676 C   0  0  0  0  0  0  0  0  0  0  0  0
    3.1481    1.0236   -0.1789 C   0  0  0  0  0  0  0  0  0  0  0  0
    4.1023    0.0262   -0.2991 C   0  0  0  0  0  0  0  0  0  0  0  0
    3.7159   -1.3128   -0.3091 C   0  0  0  0  0  0  0  0  0  0  0  0
    2.3794   -1.6625   -0.1997 C   0  0  0  0  0  0  0  0  0  0  0  0
    1.4110   -0.6778   -0.0777 C   0  0  0  0  0  0  0  0  0  0  0  0
    0.1060   -1.0048    0.0361 O   0  0  0  0  0  0  0  0  0  0  0  0
    4.6580   -2.2842   -0.4278 O   0  0  0  0  0  0  0  0  0  0  0  0
    4.1980   -3.6371   -0.4316 C   0  0  0  0  0  0  0  0  0  0  0  0
    5.4191    0.3546   -0.4079 O   0  0  0  0  0  0  0  0  0  0  0  0
    6.1618    0.4688    0.8075 C   0  0  0  0  0  0  0  0  0  0  0  0
    3.5208    2.3298   -0.1696 O   0  0  0  0  0  0  0  0  0  0  0  0
   -1.6042    2.1596    0.2924 O   0  0  0  0  0  0  0  0  0  0  0  0
   -1.6334    2.9447    1.4861 C   0  0  0  0  0  0  0  0  0  0  0  0
   -6.1870   -1.7727    0.5890 O   0  0  0  0  0  0  0  0  0  0  0  0
   -4.3877    0.8795   -2.7678 H   0  0  0  0  0  0  0  0  0  0  0  0
   -5.9831    1.6522   -2.6066 H   0  0  0  0  0  0  0  0  0  0  0  0
   -4.6665    2.0876   -1.4907 H   0  0  0  0  0  0  0  0  0  0  0  0
   -4.1756   -2.7450    1.9490 H   0  0  0  0  0  0  0  0  0  0  0  0
   -1.8395   -2.0067    1.7622 H   0  0  0  0  0  0  0  0  0  0  0  0
   -2.9914    0.8620   -1.2150 H   0  0  0  0  0  0  0  0  0  0  0  0
    2.0919   -2.7034   -0.2094 H   0  0  0  0  0  0  0  0  0  0  0  0
    3.6775   -3.8465    0.5029 H   0  0  0  0  0  0  0  0  0  0  0  0
    3.5161   -3.7867   -1.2687 H   0  0  0  0  0  0  0  0  0  0  0  0
    5.0496   -4.3101   -0.5319 H   0  0  0  0  0  0  0  0  0  0  0  0
    7.1940    0.7342    0.5790 H   0  0  0  0  0  0  0  0  0  0  0  0
    5.7177    1.2428    1.4334 H   0  0  0  0  0  0  0  0  0  0  0  0
    6.1403   -0.4836    1.3373 H   0  0  0  0  0  0  0  0  0  0  0  0
    3.7086    2.6789    0.7123 H   0  0  0  0  0  0  0  0  0  0  0  0
   -1.6189    2.2862    2.3546 H   0  0  0  0  0  0  0  0  0  0  0  0
   -0.7621    3.5992    1.5119 H   0  0  0  0  0  0  0  0  0  0  0  0
   -2.5413    3.5477    1.5023 H   0  0  0  0  0  0  0  0  0  0  0  0
   -6.4222   -2.4914   -0.0137 H   0  0  0  0  0  0  0  0  0  0  0  0
  1  2  1  0  0  0  0
  2  3  1  0  0  0  0
  3  4  2  0  0  0  0
  4  5  1  0  0  0  0
  5  6  2  0  0  0  0
  6  7  1  0  0  0  0
  7  8  2  0  0  0  0
  3  8  1  0  0  0  0
  7  9  1  0  0  0  0
  9 10  2  0  0  0  0
 10 11  1  0  0  0  0
 11 12  2  0  0  0  0
 11 13  1  0  0  0  0
 13 14  2  0  0  0  0
 14 15  1  0  0  0  0
 15 16  2  0  0  0  0
 16 17  1  0  0  0  0
 17 18  2  0  0  0  0
 13 18  1  0  0  0  0
 18 19  1  0  0  0  0
  9 19  1  0  0  0  0
 16 20  1  0  0  0  0
 20 21  1  0  0  0  0
 15 22  1  0  0  0  0
 22 23  1  0  0  0  0
 14 24  1  0  0  0  0
 10 25  1  0  0  0  0
 25 26  1  0  0  0  0
  4 27  1  0  0  0  0
  1 28  1  0  0  0  0
  1 29  1  0  0  0  0
  1 30  1  0  0  0  0
  5 31  1  0  0  0  0
  6 32  1  0  0  0  0
  8 33  1  0  0  0  0
 17 34  1  0  0  0  0
 21 35  1  0  0  0  0
 21 36  1  0  0  0  0
 21 37  1  0  0  0  0
 23 38  1  0  0  0  0
 23 39  1  0  0  0  0
 23 40  1  0  0  0  0
 24 41  1  0  0  0  0
 26 42  1  0  0  0  0
 26 43  1  0  0  0  0
 26 44  1  0  0  0  0
 27 45  1  0  0  0  0
M  END
$$$$
