C25H32O13
APtclcactv06281816453D 0   0.00000     0.00000
 
 70 72  0  0  0  0  0  0  0  0999 V2000
   -1.7258    0.5918    2.5274 C   0  0  0  0  0  0  0  0  0  0  0  0
   -1.1318   -0.7272    2.1049 C   0  0  0  0  0  0  0  0  0  0  0  0
   -1.5681   -1.3259    1.0245 C   0  0  0  0  0  0  0  0  0  0  0  0
   -1.0002   -2.6532    0.5618 C   0  0  0  0  0  0  0  0  0  0  0  0
   -2.1380   -3.4991    0.0509 C   0  0  0  0  0  0  0  0  0  0  0  0
   -3.3555   -3.0028   -0.1709 C   0  0  0  0  0  0  0  0  0  0  0  0
   -3.7166   -1.7315    0.0463 O   0  0  0  0  0  0  0  0  0  0  0  0
   -2.6742   -0.7314    0.1714 C   0  0  0  0  0  0  0  0  0  0  0  0
   -3.1982    0.4407    0.7990 O   0  0  0  0  0  0  0  0  0  0  0  0
   -4.1982    1.1134    0.0313 C   0  0  0  0  0  0  0  0  0  0  0  0
   -4.7737    2.2738    0.8474 C   0  0  0  0  0  0  0  0  0  0  0  0
   -3.6589    3.2817    1.1436 C   0  0  0  0  0  0  0  0  0  0  0  0
   -3.0442    3.7498   -0.1790 C   0  0  0  0  0  0  0  0  0  0  0  0
   -2.5356    2.5324   -0.9555 C   0  0  0  0  0  0  0  0  0  0  0  0
   -3.6151    1.6211   -1.1705 O   0  0  0  0  0  0  0  0  0  0  0  0
   -1.9742    2.9858   -2.3046 C   0  0  0  0  0  0  0  0  0  0  0  0
   -1.3946    1.8675   -2.9795 O   0  0  0  0  0  0  0  0  0  0  0  0
   -4.0354    4.4293   -0.9522 O   0  0  0  0  0  0  0  0  0  0  0  0
   -4.2022    4.4039    1.8419 O   0  0  0  0  0  0  0  0  0  0  0  0
   -5.8107    2.9142    0.1014 O   0  0  0  0  0  0  0  0  0  0  0  0
   -1.9053   -4.8721   -0.2035 C   0  0  0  0  0  0  0  0  0  0  0  0
   -2.7680   -5.5475   -0.7326 O   0  0  0  0  0  0  0  0  0  0  0  0
   -0.7268   -5.4317    0.1408 O   0  0  0  0  0  0  0  0  0  0  0  0
   -0.5133   -6.7886   -0.2532 C   0  0  0  0  0  0  0  0  0  0  0  0
    0.0128   -2.4182   -0.5605 C   0  0  0  0  0  0  0  0  0  0  0  0
    1.2063   -1.6787   -0.0131 C   0  0  0  0  0  0  0  0  0  0  0  0
    1.2981   -1.4744    1.1742 O   0  0  0  0  0  0  0  0  0  0  0  0
    2.1675   -1.2469   -0.8446 O   0  0  0  0  0  0  0  0  0  0  0  0
    3.2879   -0.5420   -0.2476 C   0  0  0  0  0  0  0  0  0  0  0  0
    4.2736   -0.1304   -1.3430 C   0  0  0  0  0  0  0  0  0  0  0  0
    5.4363    0.6012   -0.7235 C   0  0  0  0  0  0  0  0  0  0  0  0
    6.5506   -0.1026   -0.3062 C   0  0  0  0  0  0  0  0  0  0  0  0
    7.6206    0.5686    0.2637 C   0  0  0  0  0  0  0  0  0  0  0  0
    7.5702    1.9510    0.4145 C   0  0  0  0  0  0  0  0  0  0  0  0
    6.4503    2.6503   -0.0059 C   0  0  0  0  0  0  0  0  0  0  0  0
    5.3886    1.9753   -0.5788 C   0  0  0  0  0  0  0  0  0  0  0  0
    8.6176    2.6141    0.9736 O   0  0  0  0  0  0  0  0  0  0  0  0
    8.7174   -0.1223    0.6751 O   0  0  0  0  0  0  0  0  0  0  0  0
   -1.5734    1.3283    1.7385 H   0  0  0  0  0  0  0  0  0  0  0  0
   -2.7936    0.4682    2.7078 H   0  0  0  0  0  0  0  0  0  0  0  0
   -1.2399    0.9328    3.4416 H   0  0  0  0  0  0  0  0  0  0  0  0
   -0.3465   -1.1789    2.6928 H   0  0  0  0  0  0  0  0  0  0  0  0
   -0.5140   -3.1566    1.3975 H   0  0  0  0  0  0  0  0  0  0  0  0
   -4.1071   -3.6766   -0.5550 H   0  0  0  0  0  0  0  0  0  0  0  0
   -2.2806   -0.4809   -0.8137 H   0  0  0  0  0  0  0  0  0  0  0  0
   -4.9960    0.4141   -0.2188 H   0  0  0  0  0  0  0  0  0  0  0  0
   -5.1796    1.8937    1.7849 H   0  0  0  0  0  0  0  0  0  0  0  0
   -2.8912    2.8071    1.7548 H   0  0  0  0  0  0  0  0  0  0  0  0
   -2.2133    4.4253    0.0244 H   0  0  0  0  0  0  0  0  0  0  0  0
   -1.7510    2.0378   -0.3828 H   0  0  0  0  0  0  0  0  0  0  0  0
   -2.7788    3.3997   -2.9123 H   0  0  0  0  0  0  0  0  0  0  0  0
   -1.2118    3.7479   -2.1433 H   0  0  0  0  0  0  0  0  0  0  0  0
   -1.0179    2.0818   -3.8439 H   0  0  0  0  0  0  0  0  0  0  0  0
   -4.4058    5.2100   -0.5181 H   0  0  0  0  0  0  0  0  0  0  0  0
   -4.6147    4.1791    2.6872 H   0  0  0  0  0  0  0  0  0  0  0  0
   -6.5487    2.3322   -0.1257 H   0  0  0  0  0  0  0  0  0  0  0  0
   -0.5674   -6.8644   -1.3392 H   0  0  0  0  0  0  0  0  0  0  0  0
    0.4701   -7.1148    0.0853 H   0  0  0  0  0  0  0  0  0  0  0  0
   -1.2798   -7.4216    0.1938 H   0  0  0  0  0  0  0  0  0  0  0  0
    0.3345   -3.3773   -0.9663 H   0  0  0  0  0  0  0  0  0  0  0  0
   -0.4504   -1.8266   -1.3501 H   0  0  0  0  0  0  0  0  0  0  0  0
    2.9248    0.3475    0.2673 H   0  0  0  0  0  0  0  0  0  0  0  0
    3.7897   -1.1955    0.4659 H   0  0  0  0  0  0  0  0  0  0  0  0
    4.6367   -1.0199   -1.8580 H   0  0  0  0  0  0  0  0  0  0  0  0
    3.7717    0.5231   -2.0566 H   0  0  0  0  0  0  0  0  0  0  0  0
    6.5871   -1.1755   -0.4241 H   0  0  0  0  0  0  0  0  0  0  0  0
    6.4086    3.7233    0.1101 H   0  0  0  0  0  0  0  0  0  0  0  0
    4.5163    2.5215   -0.9060 H   0  0  0  0  0  0  0  0  0  0  0  0
    9.2835    2.9064    0.3362 H   0  0  0  0  0  0  0  0  0  0  0  0
    9.3974   -0.2220   -0.0051 H   0  0  0  0  0  0  0  0  0  0  0  0
  1  2  1  0  0  0  0
  2  3  2  0  0  0  0
  3  4  1  0  0  0  0
  4  5  1  0  0  0  0
  5  6  2  0  0  0  0
  6  7  1  0  0  0  0
  7  8  1  0  0  0  0
  3  8  1  0  0  0  0
  8  9  1  0  0  0  0
  9 10  1  0  0  0  0
 10 11  1  0  0  0  0
 11 12  1  0  0  0  0
 12 13  1  0  0  0  0
 13 14  1  0  0  0  0
 14 15  1  0  0  0  0
 10 15  1  0  0  0  0
 14 16  1  0  0  0  0
 16 17  1  0  0  0  0
 13 18  1  0  0  0  0
 12 19  1  0  0  0  0
 11 20  1  0  0  0  0
  5 21  1  0  0  0  0
 21 22  2  0  0  0  0
 21 23  1  0  0  0  0
 23 24  1  0  0  0  0
  4 25  1  0  0  0  0
 25 26  1  0  0  0  0
 26 27  2  0  0  0  0
 26 28  1  0  0  0  0
 28 29  1  0  0  0  0
 29 30  1  0  0  0  0
 30 31  1  0  0  0  0
 31 32  2  0  0  0  0
 32 33  1  0  0  0  0
 33 34  2  0  0  0  0
 34 35  1  0  0  0  0
 35 36  2  0  0  0  0
 31 36  1  0  0  0  0
 34 37  1  0  0  0  0
 33 38  1  0  0  0  0
  1 39  1  0  0  0  0
  1 40  1  0  0  0  0
  1 41  1  0  0  0  0
  2 42  1  0  0  0  0
  4 43  1  0  0  0  0
  6 44  1  0  0  0  0
  8 45  1  0  0  0  0
 10 46  1  0  0  0  0
 11 47  1  0  0  0  0
 12 48  1  0  0  0  0
 13 49  1  0  0  0  0
 14 50  1  0  0  0  0
 16 51  1  0  0  0  0
 16 52  1  0  0  0  0
 17 53  1  0  0  0  0
 18 54  1  0  0  0  0
 19 55  1  0  0  0  0
 20 56  1  0  0  0  0
 24 57  1  0  0  0  0
 24 58  1  0  0  0  0
 24 59  1  0  0  0  0
 25 60  1  0  0  0  0
 25 61  1  0  0  0  0
 29 62  1  0  0  0  0
 29 63  1  0  0  0  0
 30 64  1  0  0  0  0
 30 65  1  0  0  0  0
 32 66  1  0  0  0  0
 35 67  1  0  0  0  0
 36 68  1  0  0  0  0
 37 69  1  0  0  0  0
 38 70  1  0  0  0  0
M  END
$$$$
