C20H18O5
APtclcactv06281816453D 0   0.00000     0.00000
 
 43 45  0  0  0  0  0  0  0  0999 V2000
   -4.2766   -3.1402    0.4593 C   0  0  0  0  0  0  0  0  0  0  0  0
   -3.2992   -2.9260   -0.6676 C   0  0  0  0  0  0  0  0  0  0  0  0
   -2.2412   -2.1758   -0.4832 C   0  0  0  0  0  0  0  0  0  0  0  0
   -2.0689   -1.4207    0.8096 C   0  0  0  0  0  0  0  0  0  0  0  0
   -1.8790    0.0447    0.5139 C   0  0  0  0  0  0  0  0  0  0  0  0
   -2.9752    0.8920    0.4805 C   0  0  0  0  0  0  0  0  0  0  0  0
   -2.8163    2.2472    0.2094 C   0  0  0  0  0  0  0  0  0  0  0  0
   -1.5573    2.7644   -0.0305 C   0  0  0  0  0  0  0  0  0  0  0  0
   -0.4441    1.9138    0.0016 C   0  0  0  0  0  0  0  0  0  0  0  0
   -0.6069    0.5455    0.2810 C   0  0  0  0  0  0  0  0  0  0  0  0
    0.4703   -0.2666    0.3109 O   0  0  0  0  0  0  0  0  0  0  0  0
    1.7159    0.1826    0.0811 C   0  0  0  0  0  0  0  0  0  0  0  0
    1.9818    1.4883   -0.1979 C   0  0  0  0  0  0  0  0  0  0  0  0
    0.9134    2.4235   -0.2476 C   0  0  0  0  0  0  0  0  0  0  0  0
    1.1130    3.6019   -0.4946 O   0  0  0  0  0  0  0  0  0  0  0  0
    3.2605    1.8952   -0.4225 O   0  0  0  0  0  0  0  0  0  0  0  0
    2.8375   -0.7753    0.1337 C   0  0  0  0  0  0  0  0  0  0  0  0
    2.9466   -1.6702    1.2007 C   0  0  0  0  0  0  0  0  0  0  0  0
    3.9972   -2.5629    1.2431 C   0  0  0  0  0  0  0  0  0  0  0  0
    4.9417   -2.5734    0.2318 C   0  0  0  0  0  0  0  0  0  0  0  0
    4.8402   -1.6894   -0.8280 C   0  0  0  0  0  0  0  0  0  0  0  0
    3.7917   -0.7951   -0.8864 C   0  0  0  0  0  0  0  0  0  0  0  0
   -1.4003    4.0861   -0.2956 O   0  0  0  0  0  0  0  0  0  0  0  0
   -4.2164    0.3945    0.7143 O   0  0  0  0  0  0  0  0  0  0  0  0
   -3.5389   -3.5747   -2.0065 C   0  0  0  0  0  0  0  0  0  0  0  0
   -5.0032   -2.3277    0.4695 H   0  0  0  0  0  0  0  0  0  0  0  0
   -4.7943   -4.0887    0.3159 H   0  0  0  0  0  0  0  0  0  0  0  0
   -3.7395   -3.1592    1.4075 H   0  0  0  0  0  0  0  0  0  0  0  0
   -1.4924   -2.0986   -1.2576 H   0  0  0  0  0  0  0  0  0  0  0  0
   -2.9555   -1.5545    1.4294 H   0  0  0  0  0  0  0  0  0  0  0  0
   -1.1950   -1.8008    1.3387 H   0  0  0  0  0  0  0  0  0  0  0  0
   -3.6789    2.8966    0.1860 H   0  0  0  0  0  0  0  0  0  0  0  0
    3.3452    2.8397   -0.6119 H   0  0  0  0  0  0  0  0  0  0  0  0
    2.2104   -1.6628    1.9908 H   0  0  0  0  0  0  0  0  0  0  0  0
    4.0831   -3.2551    2.0676 H   0  0  0  0  0  0  0  0  0  0  0  0
    5.7623   -3.2745    0.2701 H   0  0  0  0  0  0  0  0  0  0  0  0
    5.5811   -1.7029   -1.6137 H   0  0  0  0  0  0  0  0  0  0  0  0
    3.7135   -0.1060   -1.7143 H   0  0  0  0  0  0  0  0  0  0  0  0
   -1.2567    4.6306    0.4905 H   0  0  0  0  0  0  0  0  0  0  0  0
   -4.4780    0.4112    1.6451 H   0  0  0  0  0  0  0  0  0  0  0  0
   -4.1285   -2.9061   -2.6338 H   0  0  0  0  0  0  0  0  0  0  0  0
   -2.5825   -3.7763   -2.4890 H   0  0  0  0  0  0  0  0  0  0  0  0
   -4.0790   -4.5108   -1.8652 H   0  0  0  0  0  0  0  0  0  0  0  0
  1  2  1  0  0  0  0
  2  3  2  0  0  0  0
  3  4  1  0  0  0  0
  4  5  1  0  0  0  0
  5  6  2  0  0  0  0
  6  7  1  0  0  0  0
  7  8  2  0  0  0  0
  8  9  1  0  0  0  0
  9 10  2  0  0  0  0
  5 10  1  0  0  0  0
 10 11  1  0  0  0  0
 11 12  1  0  0  0  0
 12 13  2  0  0  0  0
 13 14  1  0  0  0  0
  9 14  1  0  0  0  0
 14 15  2  0  0  0  0
 13 16  1  0  0  0  0
 12 17  1  0  0  0  0
 17 18  2  0  0  0  0
 18 19  1  0  0  0  0
 19 20  2  0  0  0  0
 20 21  1  0  0  0  0
 21 22  2  0  0  0  0
 17 22  1  0  0  0  0
  8 23  1  0  0  0  0
  6 24  1  0  0  0  0
  2 25  1  0  0  0  0
  1 26  1  0  0  0  0
  1 27  1  0  0  0  0
  1 28  1  0  0  0  0
  3 29  1  0  0  0  0
  4 30  1  0  0  0  0
  4 31  1  0  0  0  0
  7 32  1  0  0  0  0
 16 33  1  0  0  0  0
 18 34  1  0  0  0  0
 19 35  1  0  0  0  0
 20 36  1  0  0  0  0
 21 37  1  0  0  0  0
 22 38  1  0  0  0  0
 23 39  1  0  0  0  0
 24 40  1  0  0  0  0
 25 41  1  0  0  0  0
 25 42  1  0  0  0  0
 25 43  1  0  0  0  0
M  END
$$$$
