C24H26O4
APtclcactv06281816443D 0   0.00000     0.00000
 
 54 56  0  0  0  0  0  0  0  0999 V2000
   -5.2849    0.2179    0.4207 C   0  0  0  0  0  0  0  0  0  0  0  0
   -5.6647   -1.1844    0.8210 C   0  0  0  0  0  0  0  0  0  0  0  0
   -4.9777   -2.2037    0.3679 C   0  0  0  0  0  0  0  0  0  0  0  0
   -3.7385   -1.9701   -0.4573 C   0  0  0  0  0  0  0  0  0  0  0  0
   -2.5676   -2.7452    0.1502 C   0  0  0  0  0  0  0  0  0  0  0  0
   -1.3285   -2.5117   -0.6750 C   0  0  0  0  0  0  0  0  0  0  0  0
   -0.4796   -1.5750   -0.3314 C   0  0  0  0  0  0  0  0  0  0  0  0
    0.6871   -1.2495   -1.2280 C   0  0  0  0  0  0  0  0  0  0  0  0
    1.9725   -1.4104   -0.4581 C   0  0  0  0  0  0  0  0  0  0  0  0
    2.6235   -2.6326   -0.4431 C   0  0  0  0  0  0  0  0  0  0  0  0
    3.8072   -2.7818    0.2656 C   0  0  0  0  0  0  0  0  0  0  0  0
    4.3435   -1.7084    0.9617 C   0  0  0  0  0  0  0  0  0  0  0  0
    3.6986   -0.4825    0.9524 C   0  0  0  0  0  0  0  0  0  0  0  0
    2.5116   -0.3264    0.2361 C   0  0  0  0  0  0  0  0  0  0  0  0
    1.8202    0.9799    0.2230 C   0  0  0  0  0  0  0  0  0  0  0  0
    1.5194    1.7122    1.3214 C   0  0  0  0  0  0  0  0  0  0  0  0
    0.8442    2.9176    0.8338 C   0  0  0  0  0  0  0  0  0  0  0  0
    0.8023    2.7890   -0.5661 C   0  0  0  0  0  0  0  0  0  0  0  0
    1.4001    1.6230   -0.8849 O   0  0  0  0  0  0  0  0  0  0  0  0
    0.2119    3.7930   -1.3222 C   0  0  0  0  0  0  0  0  0  0  0  0
   -0.3253    4.9020   -0.6932 C   0  0  0  0  0  0  0  0  0  0  0  0
   -0.2794    5.0219    0.6933 C   0  0  0  0  0  0  0  0  0  0  0  0
    0.2971    4.0431    1.4524 C   0  0  0  0  0  0  0  0  0  0  0  0
   -0.9026    5.8834   -1.4353 O   0  0  0  0  0  0  0  0  0  0  0  0
    5.5031   -1.8599    1.6542 O   0  0  0  0  0  0  0  0  0  0  0  0
    2.1021   -3.6875   -1.1231 O   0  0  0  0  0  0  0  0  0  0  0  0
   -1.0659   -3.3557   -1.8956 C   0  0  0  0  0  0  0  0  0  0  0  0
   -6.8347   -1.4142    1.7426 C   0  0  0  0  0  0  0  0  0  0  0  0
   -5.2630    0.2921   -0.6665 H   0  0  0  0  0  0  0  0  0  0  0  0
   -6.0176    0.9203    0.8182 H   0  0  0  0  0  0  0  0  0  0  0  0
   -4.2993    0.4557    0.8210 H   0  0  0  0  0  0  0  0  0  0  0  0
   -5.2994   -3.2114    0.5858 H   0  0  0  0  0  0  0  0  0  0  0  0
   -3.9113   -2.3133   -1.4773 H   0  0  0  0  0  0  0  0  0  0  0  0
   -3.5037   -0.9058   -0.4669 H   0  0  0  0  0  0  0  0  0  0  0  0
   -2.3949   -2.4020    1.1702 H   0  0  0  0  0  0  0  0  0  0  0  0
   -2.8025   -3.8096    0.1598 H   0  0  0  0  0  0  0  0  0  0  0  0
   -0.6159   -1.0360    0.5945 H   0  0  0  0  0  0  0  0  0  0  0  0
    0.6883   -1.9261   -2.0826 H   0  0  0  0  0  0  0  0  0  0  0  0
    0.5999   -0.2212   -1.5788 H   0  0  0  0  0  0  0  0  0  0  0  0
    4.3122   -3.7364    0.2755 H   0  0  0  0  0  0  0  0  0  0  0  0
    4.1166    0.3526    1.4949 H   0  0  0  0  0  0  0  0  0  0  0  0
    1.7335    1.4588    2.3492 H   0  0  0  0  0  0  0  0  0  0  0  0
    0.1726    3.7086   -2.3981 H   0  0  0  0  0  0  0  0  0  0  0  0
   -0.7023    5.8932    1.1712 H   0  0  0  0  0  0  0  0  0  0  0  0
    0.3303    4.1403    2.5275 H   0  0  0  0  0  0  0  0  0  0  0  0
   -1.8487    5.7554   -1.5889 H   0  0  0  0  0  0  0  0  0  0  0  0
    6.2976   -1.6680    1.1376 H   0  0  0  0  0  0  0  0  0  0  0  0
    2.4100   -3.7572   -2.0371 H   0  0  0  0  0  0  0  0  0  0  0  0
   -1.4316   -2.8368   -2.7817 H   0  0  0  0  0  0  0  0  0  0  0  0
    0.0057   -3.5301   -1.9930 H   0  0  0  0  0  0  0  0  0  0  0  0
   -1.5818   -4.3106   -1.7949 H   0  0  0  0  0  0  0  0  0  0  0  0
   -7.2784   -0.4559    2.0124 H   0  0  0  0  0  0  0  0  0  0  0  0
   -7.5791   -2.0301    1.2379 H   0  0  0  0  0  0  0  0  0  0  0  0
   -6.4929   -1.9230    2.6439 H   0  0  0  0  0  0  0  0  0  0  0  0
  1  2  1  0  0  0  0
  2  3  2  0  0  0  0
  3  4  1  0  0  0  0
  4  5  1  0  0  0  0
  5  6  1  0  0  0  0
  6  7  2  0  0  0  0
  7  8  1  0  0  0  0
  8  9  1  0  0  0  0
  9 10  2  0  0  0  0
 10 11  1  0  0  0  0
 11 12  2  0  0  0  0
 12 13  1  0  0  0  0
 13 14  2  0  0  0  0
  9 14  1  0  0  0  0
 14 15  1  0  0  0  0
 15 16  2  0  0  0  0
 16 17  1  0  0  0  0
 17 18  2  0  0  0  0
 18 19  1  0  0  0  0
 15 19  1  0  0  0  0
 18 20  1  0  0  0  0
 20 21  2  0  0  0  0
 21 22  1  0  0  0  0
 22 23  2  0  0  0  0
 17 23  1  0  0  0  0
 21 24  1  0  0  0  0
 12 25  1  0  0  0  0
 10 26  1  0  0  0  0
  6 27  1  0  0  0  0
  2 28  1  0  0  0  0
  1 29  1  0  0  0  0
  1 30  1  0  0  0  0
  1 31  1  0  0  0  0
  3 32  1  0  0  0  0
  4 33  1  0  0  0  0
  4 34  1  0  0  0  0
  5 35  1  0  0  0  0
  5 36  1  0  0  0  0
  7 37  1  0  0  0  0
  8 38  1  0  0  0  0
  8 39  1  0  0  0  0
 11 40  1  0  0  0  0
 13 41  1  0  0  0  0
 16 42  1  0  0  0  0
 20 43  1  0  0  0  0
 22 44  1  0  0  0  0
 23 45  1  0  0  0  0
 24 46  1  0  0  0  0
 25 47  1  0  0  0  0
 26 48  1  0  0  0  0
 27 49  1  0  0  0  0
 27 50  1  0  0  0  0
 27 51  1  0  0  0  0
 28 52  1  0  0  0  0
 28 53  1  0  0  0  0
 28 54  1  0  0  0  0
M  END
$$$$
