C17H22O4
APtclcactv06281816453D 0   0.00000     0.00000
 
 43 44  0  0  0  0  0  0  0  0999 V2000
   -1.4379    1.0711   -2.1802 C   0  0  0  0  0  0  0  0  0  0  0  0
   -1.5810    1.7757   -0.8650 C   0  0  0  0  0  0  0  0  0  0  0  0
   -0.5809    1.9232   -0.0461 C   0  0  0  0  0  0  0  0  0  0  0  0
    0.7158    1.2367   -0.3413 C   0  0  0  0  0  0  0  0  0  0  0  0
    1.0210    0.3683    0.9204 C   0  0  0  0  0  0  0  0  0  0  0  0
    0.1385   -0.8597    0.9718 C   0  0  0  0  0  0  0  0  0  0  0  0
   -1.1569   -0.4981    1.7104 C   0  0  0  0  0  0  0  0  0  0  0  0
   -2.3894   -0.8550    0.9474 C   0  0  0  0  0  0  0  0  0  0  0  0
   -3.2971   -0.0208    0.5411 C   0  0  0  0  0  0  0  0  0  0  0  0
   -3.3286    1.4586    0.7850 C   0  0  0  0  0  0  0  0  0  0  0  0
   -2.9839    2.2024   -0.5212 C   0  0  0  0  0  0  0  0  0  0  0  0
   -2.6479   -2.3177    0.6588 C   0  0  0  0  0  0  0  0  0  0  0  0
   -0.1425   -1.3244   -0.3715 O   0  0  0  0  0  0  0  0  0  0  0  0
    0.6079   -2.3358   -0.8358 C   0  0  0  0  0  0  0  0  0  0  0  0
    1.5002   -2.7870   -0.1575 O   0  0  0  0  0  0  0  0  0  0  0  0
    0.3375   -2.9086   -2.2032 C   0  0  0  0  0  0  0  0  0  0  0  0
    2.5164    0.1540    0.7646 C   0  0  0  0  0  0  0  0  0  0  0  0
    3.2677   -0.8744    1.1378 C   0  0  0  0  0  0  0  0  0  0  0  0
    2.9393    1.4031    0.0813 C   0  0  0  0  0  0  0  0  0  0  0  0
    4.0952    1.7420   -0.0484 O   0  0  0  0  0  0  0  0  0  0  0  0
    1.8912    2.1043   -0.4278 O   0  0  0  0  0  0  0  0  0  0  0  0
   -1.2012    0.0214   -2.0063 H   0  0  0  0  0  0  0  0  0  0  0  0
   -2.3727    1.1454   -2.7359 H   0  0  0  0  0  0  0  0  0  0  0  0
   -0.6358    1.5340   -2.7551 H   0  0  0  0  0  0  0  0  0  0  0  0
   -0.6980    2.5512    0.8506 H   0  0  0  0  0  0  0  0  0  0  0  0
    0.7051    0.5912   -1.2058 H   0  0  0  0  0  0  0  0  0  0  0  0
    0.8432    0.9973    1.8063 H   0  0  0  0  0  0  0  0  0  0  0  0
    0.6482   -1.6545    1.5257 H   0  0  0  0  0  0  0  0  0  0  0  0
   -1.1685   -1.0285    2.6701 H   0  0  0  0  0  0  0  0  0  0  0  0
   -1.1562    0.5735    1.9232 H   0  0  0  0  0  0  0  0  0  0  0  0
   -4.1174   -0.4441   -0.0343 H   0  0  0  0  0  0  0  0  0  0  0  0
   -4.3300    1.7533    1.1089 H   0  0  0  0  0  0  0  0  0  0  0  0
   -2.6117    1.7283    1.5588 H   0  0  0  0  0  0  0  0  0  0  0  0
   -3.0091    3.2754   -0.3628 H   0  0  0  0  0  0  0  0  0  0  0  0
   -3.6599    1.9031   -1.3155 H   0  0  0  0  0  0  0  0  0  0  0  0
   -3.2868   -2.7343    1.4375 H   0  0  0  0  0  0  0  0  0  0  0  0
   -3.1422   -2.4155   -0.3077 H   0  0  0  0  0  0  0  0  0  0  0  0
   -1.7008   -2.8570    0.6388 H   0  0  0  0  0  0  0  0  0  0  0  0
    0.9276   -2.3711   -2.9455 H   0  0  0  0  0  0  0  0  0  0  0  0
    0.6114   -3.9636   -2.2159 H   0  0  0  0  0  0  0  0  0  0  0  0
   -0.7221   -2.8055   -2.4373 H   0  0  0  0  0  0  0  0  0  0  0  0
    2.8161   -1.7219    1.6321 H   0  0  0  0  0  0  0  0  0  0  0  0
    4.3307   -0.8639    0.9472 H   0  0  0  0  0  0  0  0  0  0  0  0
  1  2  1  0  0  0  0
  2  3  2  0  0  0  0
  3  4  1  0  0  0  0
  4  5  1  0  0  0  0
  5  6  1  0  0  0  0
  6  7  1  0  0  0  0
  7  8  1  0  0  0  0
  8  9  2  0  0  0  0
  9 10  1  0  0  0  0
 10 11  1  0  0  0  0
  2 11  1  0  0  0  0
  8 12  1  0  0  0  0
  6 13  1  0  0  0  0
 13 14  1  0  0  0  0
 14 15  2  0  0  0  0
 14 16  1  0  0  0  0
  5 17  1  0  0  0  0
 17 18  2  0  0  0  0
 17 19  1  0  0  0  0
 19 20  2  0  0  0  0
 19 21  1  0  0  0  0
  4 21  1  0  0  0  0
  1 22  1  0  0  0  0
  1 23  1  0  0  0  0
  1 24  1  0  0  0  0
  3 25  1  0  0  0  0
  4 26  1  0  0  0  0
  5 27  1  0  0  0  0
  6 28  1  0  0  0  0
  7 29  1  0  0  0  0
  7 30  1  0  0  0  0
  9 31  1  0  0  0  0
 10 32  1  0  0  0  0
 10 33  1  0  0  0  0
 11 34  1  0  0  0  0
 11 35  1  0  0  0  0
 12 36  1  0  0  0  0
 12 37  1  0  0  0  0
 12 38  1  0  0  0  0
 16 39  1  0  0  0  0
 16 40  1  0  0  0  0
 16 41  1  0  0  0  0
 18 42  1  0  0  0  0
 18 43  1  0  0  0  0
M  END
$$$$
