C15H10O6
APtclcactv06281816463D 0   0.00000     0.00000
 
 31 33  0  0  0  0  0  0  0  0999 V2000
   -3.3474   -0.9010   -0.7086 C   0  0  0  0  0  0  0  0  0  0  0  0
   -4.7070   -0.6821   -0.7270 C   0  0  0  0  0  0  0  0  0  0  0  0
   -5.2484    0.3974   -0.0395 C   0  0  0  0  0  0  0  0  0  0  0  0
   -4.4213    1.2608    0.6689 C   0  0  0  0  0  0  0  0  0  0  0  0
   -3.0605    1.0496    0.6923 C   0  0  0  0  0  0  0  0  0  0  0  0
   -2.5118   -0.0355    0.0030 C   0  0  0  0  0  0  0  0  0  0  0  0
   -1.0550   -0.2660    0.0255 C   0  0  0  0  0  0  0  0  0  0  0  0
   -0.5962   -1.5427    0.1260 C   0  0  0  0  0  0  0  0  0  0  0  0
    0.7977   -1.7834    0.1487 C   0  0  0  0  0  0  0  0  0  0  0  0
    1.2442   -2.9159    0.2376 O   0  0  0  0  0  0  0  0  0  0  0  0
    1.6892   -0.6144    0.0604 C   0  0  0  0  0  0  0  0  0  0  0  0
    3.0813   -0.7598    0.0751 C   0  0  0  0  0  0  0  0  0  0  0  0
    3.8855    0.3656   -0.0104 C   0  0  0  0  0  0  0  0  0  0  0  0
    3.3089    1.6303   -0.1098 C   0  0  0  0  0  0  0  0  0  0  0  0
    1.9308    1.7782   -0.1243 C   0  0  0  0  0  0  0  0  0  0  0  0
    1.1115    0.6635   -0.0405 C   0  0  0  0  0  0  0  0  0  0  0  0
   -0.2328    0.7917   -0.0594 O   0  0  0  0  0  0  0  0  0  0  0  0
    4.1045    2.7281   -0.1928 O   0  0  0  0  0  0  0  0  0  0  0  0
    5.2407    0.2355    0.0030 O   0  0  0  0  0  0  0  0  0  0  0  0
    3.6395   -1.9942    0.1730 O   0  0  0  0  0  0  0  0  0  0  0  0
   -6.5892    0.6095   -0.0602 O   0  0  0  0  0  0  0  0  0  0  0  0
   -2.9279   -1.7428   -1.2395 H   0  0  0  0  0  0  0  0  0  0  0  0
   -5.3533   -1.3502   -1.2769 H   0  0  0  0  0  0  0  0  0  0  0  0
   -4.8461    2.0987    1.2016 H   0  0  0  0  0  0  0  0  0  0  0  0
   -2.4183    1.7214    1.2425 H   0  0  0  0  0  0  0  0  0  0  0  0
   -1.2913   -2.3669    0.1885 H   0  0  0  0  0  0  0  0  0  0  0  0
    1.4950    2.7634   -0.2009 H   0  0  0  0  0  0  0  0  0  0  0  0
    4.3371    2.9778   -1.0976 H   0  0  0  0  0  0  0  0  0  0  0  0
    5.6344    0.1293   -0.8738 H   0  0  0  0  0  0  0  0  0  0  0  0
    3.8033   -2.4205   -0.6794 H   0  0  0  0  0  0  0  0  0  0  0  0
   -7.0685    0.1670    0.6535 H   0  0  0  0  0  0  0  0  0  0  0  0
  1  2  2  0  0  0  0
  2  3  1  0  0  0  0
  3  4  2  0  0  0  0
  4  5  1  0  0  0  0
  5  6  2  0  0  0  0
  1  6  1  0  0  0  0
  6  7  1  0  0  0  0
  7  8  2  0  0  0  0
  8  9  1  0  0  0  0
  9 10  2  0  0  0  0
  9 11  1  0  0  0  0
 11 12  2  0  0  0  0
 12 13  1  0  0  0  0
 13 14  2  0  0  0  0
 14 15  1  0  0  0  0
 15 16  2  0  0  0  0
 11 16  1  0  0  0  0
 16 17  1  0  0  0  0
  7 17  1  0  0  0  0
 14 18  1  0  0  0  0
 13 19  1  0  0  0  0
 12 20  1  0  0  0  0
  3 21  1  0  0  0  0
  1 22  1  0  0  0  0
  2 23  1  0  0  0  0
  4 24  1  0  0  0  0
  5 25  1  0  0  0  0
  8 26  1  0  0  0  0
 15 27  1  0  0  0  0
 18 28  1  0  0  0  0
 19 29  1  0  0  0  0
 20 30  1  0  0  0  0
 21 31  1  0  0  0  0
M  END
$$$$
