C16H12O6
APtclcactv06281816473D 0   0.00000     0.00000
 
 34 36  0  0  0  0  0  0  0  0999 V2000
    6.4333    0.3492    0.3183 C   0  0  0  0  0  0  0  0  0  0  0  0
    5.4797   -0.7075    0.4454 O   0  0  0  0  0  0  0  0  0  0  0  0
    4.1761   -0.3892    0.2406 C   0  0  0  0  0  0  0  0  0  0  0  0
    3.8301    0.9198   -0.0767 C   0  0  0  0  0  0  0  0  0  0  0  0
    2.5044    1.2548   -0.2835 C   0  0  0  0  0  0  0  0  0  0  0  0
    1.5190    0.2674   -0.1672 C   0  0  0  0  0  0  0  0  0  0  0  0
    1.8695   -1.0591    0.1439 C   0  0  0  0  0  0  0  0  0  0  0  0
    3.2065   -1.3737    0.3446 C   0  0  0  0  0  0  0  0  0  0  0  0
    0.9235   -2.0133    0.2334 O   0  0  0  0  0  0  0  0  0  0  0  0
   -0.3678   -1.6998    0.3487 C   0  0  0  0  0  0  0  0  0  0  0  0
   -0.8581   -0.4643    0.0722 C   0  0  0  0  0  0  0  0  0  0  0  0
    0.0925    0.5804   -0.3577 C   0  0  0  0  0  0  0  0  0  0  0  0
   -0.2802    1.6364   -0.8400 O   0  0  0  0  0  0  0  0  0  0  0  0
   -2.3068   -0.1727    0.1980 C   0  0  0  0  0  0  0  0  0  0  0  0
   -3.2031   -0.6429   -0.7668 C   0  0  0  0  0  0  0  0  0  0  0  0
   -4.5543   -0.3674   -0.6439 C   0  0  0  0  0  0  0  0  0  0  0  0
   -5.0160    0.3737    0.4337 C   0  0  0  0  0  0  0  0  0  0  0  0
   -4.1266    0.8410    1.3922 C   0  0  0  0  0  0  0  0  0  0  0  0
   -2.7793    0.5658    1.2808 C   0  0  0  0  0  0  0  0  0  0  0  0
   -6.3427    0.6436    0.5517 O   0  0  0  0  0  0  0  0  0  0  0  0
   -2.7491   -1.3680   -1.8225 O   0  0  0  0  0  0  0  0  0  0  0  0
    2.1617    2.5301   -0.5960 O   0  0  0  0  0  0  0  0  0  0  0  0
    6.3872    0.7609   -0.6900 H   0  0  0  0  0  0  0  0  0  0  0  0
    6.2060    1.1326    1.0413 H   0  0  0  0  0  0  0  0  0  0  0  0
    7.4339   -0.0397    0.5065 H   0  0  0  0  0  0  0  0  0  0  0  0
    4.5971    1.6754   -0.1613 H   0  0  0  0  0  0  0  0  0  0  0  0
    3.4908   -2.3862    0.5901 H   0  0  0  0  0  0  0  0  0  0  0  0
   -1.0557   -2.4649    0.6770 H   0  0  0  0  0  0  0  0  0  0  0  0
   -5.2489   -0.7293   -1.3875 H   0  0  0  0  0  0  0  0  0  0  0  0
   -4.4910    1.4179    2.2293 H   0  0  0  0  0  0  0  0  0  0  0  0
   -2.0899    0.9306    2.0278 H   0  0  0  0  0  0  0  0  0  0  0  0
   -6.8367   -0.0218    1.0500 H   0  0  0  0  0  0  0  0  0  0  0  0
   -2.7268   -2.3217   -1.6641 H   0  0  0  0  0  0  0  0  0  0  0  0
    2.1490    2.7125   -1.5455 H   0  0  0  0  0  0  0  0  0  0  0  0
  1  2  1  0  0  0  0
  2  3  1  0  0  0  0
  3  4  2  0  0  0  0
  4  5  1  0  0  0  0
  5  6  2  0  0  0  0
  6  7  1  0  0  0  0
  7  8  2  0  0  0  0
  3  8  1  0  0  0  0
  7  9  1  0  0  0  0
  9 10  1  0  0  0  0
 10 11  2  0  0  0  0
 11 12  1  0  0  0  0
  6 12  1  0  0  0  0
 12 13  2  0  0  0  0
 11 14  1  0  0  0  0
 14 15  2  0  0  0  0
 15 16  1  0  0  0  0
 16 17  2  0  0  0  0
 17 18  1  0  0  0  0
 18 19  2  0  0  0  0
 14 19  1  0  0  0  0
 17 20  1  0  0  0  0
 15 21  1  0  0  0  0
  5 22  1  0  0  0  0
  1 23  1  0  0  0  0
  1 24  1  0  0  0  0
  1 25  1  0  0  0  0
  4 26  1  0  0  0  0
  8 27  1  0  0  0  0
 10 28  1  0  0  0  0
 16 29  1  0  0  0  0
 18 30  1  0  0  0  0
 19 31  1  0  0  0  0
 20 32  1  0  0  0  0
 21 33  1  0  0  0  0
 22 34  1  0  0  0  0
M  END
$$$$
