C25H26O5
APtclcactv06281816453D 0   0.00000     0.00000
 
 56 58  0  0  0  0  0  0  0  0999 V2000
    3.4427    4.7176    0.5626 C   0  0  0  0  0  0  0  0  0  0  0  0
    1.9835    4.4439    0.1929 C   0  0  0  0  0  0  0  0  0  0  0  0
    1.6768    5.0687   -1.1697 C   0  0  0  0  0  0  0  0  0  0  0  0
    1.7490    2.9335    0.1257 C   0  0  0  0  0  0  0  0  0  0  0  0
    0.2866    2.6624   -0.1171 C   0  0  0  0  0  0  0  0  0  0  0  0
   -0.4920    3.5869   -0.2258 O   0  0  0  0  0  0  0  0  0  0  0  0
   -0.1943    1.2851   -0.2217 C   0  0  0  0  0  0  0  0  0  0  0  0
    0.7030    0.2138   -0.0965 C   0  0  0  0  0  0  0  0  0  0  0  0
    0.2254   -1.0979   -0.1994 C   0  0  0  0  0  0  0  0  0  0  0  0
   -1.1421   -1.3394   -0.4263 C   0  0  0  0  0  0  0  0  0  0  0  0
   -2.0216   -0.2711   -0.5482 C   0  0  0  0  0  0  0  0  0  0  0  0
   -1.5630    1.0276   -0.4432 C   0  0  0  0  0  0  0  0  0  0  0  0
   -2.4318    2.0606   -0.5636 O   0  0  0  0  0  0  0  0  0  0  0  0
   -3.4860   -0.5308   -0.7912 C   0  0  0  0  0  0  0  0  0  0  0  0
   -4.2020   -0.6449    0.5300 C   0  0  0  0  0  0  0  0  0  0  0  0
   -5.2355    0.1193    0.7830 C   0  0  0  0  0  0  0  0  0  0  0  0
   -5.7085    1.1124   -0.2470 C   0  0  0  0  0  0  0  0  0  0  0  0
   -5.9514    0.0052    2.1042 C   0  0  0  0  0  0  0  0  0  0  0  0
   -1.5936   -2.6079   -0.5250 O   0  0  0  0  0  0  0  0  0  0  0  0
   -0.7740   -3.6651   -0.4131 C   0  0  0  0  0  0  0  0  0  0  0  0
   -1.2383   -4.7874   -0.5114 O   0  0  0  0  0  0  0  0  0  0  0  0
    0.6032   -3.5141   -0.1864 C   0  0  0  0  0  0  0  0  0  0  0  0
    1.1391   -2.2439   -0.0735 C   0  0  0  0  0  0  0  0  0  0  0  0
    2.5856   -2.0442    0.1659 C   0  0  0  0  0  0  0  0  0  0  0  0
    3.5158   -2.4330   -0.7991 C   0  0  0  0  0  0  0  0  0  0  0  0
    4.8630   -2.2441   -0.5697 C   0  0  0  0  0  0  0  0  0  0  0  0
    5.2926   -1.6710    0.6141 C   0  0  0  0  0  0  0  0  0  0  0  0
    4.3755   -1.2837    1.5751 C   0  0  0  0  0  0  0  0  0  0  0  0
    3.0251   -1.4610    1.3552 C   0  0  0  0  0  0  0  0  0  0  0  0
    2.0187    0.4466    0.1214 O   0  0  0  0  0  0  0  0  0  0  0  0
    3.6097    5.7936    0.6105 H   0  0  0  0  0  0  0  0  0  0  0  0
    3.6612    4.2725    1.5333 H   0  0  0  0  0  0  0  0  0  0  0  0
    4.0968    4.2816   -0.1925 H   0  0  0  0  0  0  0  0  0  0  0  0
    1.3294    4.8799    0.9480 H   0  0  0  0  0  0  0  0  0  0  0  0
    0.6373    4.8737   -1.4331 H   0  0  0  0  0  0  0  0  0  0  0  0
    1.8439    6.1447   -1.1218 H   0  0  0  0  0  0  0  0  0  0  0  0
    2.3309    4.6327   -1.9248 H   0  0  0  0  0  0  0  0  0  0  0  0
    2.3371    2.5103   -0.6887 H   0  0  0  0  0  0  0  0  0  0  0  0
    2.0517    2.4766    1.0679 H   0  0  0  0  0  0  0  0  0  0  0  0
   -2.8281    2.3408    0.2728 H   0  0  0  0  0  0  0  0  0  0  0  0
   -3.9109    0.2930   -1.3647 H   0  0  0  0  0  0  0  0  0  0  0  0
   -3.6026   -1.4600   -1.3490 H   0  0  0  0  0  0  0  0  0  0  0  0
   -3.8630   -1.3566    1.2682 H   0  0  0  0  0  0  0  0  0  0  0  0
   -5.9881    0.5848   -1.1589 H   0  0  0  0  0  0  0  0  0  0  0  0
   -6.5725    1.6530    0.1394 H   0  0  0  0  0  0  0  0  0  0  0  0
   -4.9070    1.8177   -0.4666 H   0  0  0  0  0  0  0  0  0  0  0  0
   -5.4998    0.6895    2.8224 H   0  0  0  0  0  0  0  0  0  0  0  0
   -7.0028    0.2601    1.9709 H   0  0  0  0  0  0  0  0  0  0  0  0
   -5.8694   -1.0166    2.4748 H   0  0  0  0  0  0  0  0  0  0  0  0
    1.2391   -4.3827   -0.1001 H   0  0  0  0  0  0  0  0  0  0  0  0
    3.1818   -2.8811   -1.7232 H   0  0  0  0  0  0  0  0  0  0  0  0
    5.5839   -2.5446   -1.3156 H   0  0  0  0  0  0  0  0  0  0  0  0
    6.3484   -1.5256    0.7890 H   0  0  0  0  0  0  0  0  0  0  0  0
    4.7173   -0.8375    2.4973 H   0  0  0  0  0  0  0  0  0  0  0  0
    2.3102   -1.1580    2.1059 H   0  0  0  0  0  0  0  0  0  0  0  0
    2.2595    0.4977    1.0565 H   0  0  0  0  0  0  0  0  0  0  0  0
  1  2  1  0  0  0  0
  2  3  1  0  0  0  0
  2  4  1  0  0  0  0
  4  5  1  0  0  0  0
  5  6  2  0  0  0  0
  5  7  1  0  0  0  0
  7  8  2  0  0  0  0
  8  9  1  0  0  0  0
  9 10  2  0  0  0  0
 10 11  1  0  0  0  0
 11 12  2  0  0  0  0
  7 12  1  0  0  0  0
 12 13  1  0  0  0  0
 11 14  1  0  0  0  0
 14 15  1  0  0  0  0
 15 16  2  0  0  0  0
 16 17  1  0  0  0  0
 16 18  1  0  0  0  0
 10 19  1  0  0  0  0
 19 20  1  0  0  0  0
 20 21  2  0  0  0  0
 20 22  1  0  0  0  0
 22 23  2  0  0  0  0
  9 23  1  0  0  0  0
 23 24  1  0  0  0  0
 24 25  2  0  0  0  0
 25 26  1  0  0  0  0
 26 27  2  0  0  0  0
 27 28  1  0  0  0  0
 28 29  2  0  0  0  0
 24 29  1  0  0  0  0
  8 30  1  0  0  0  0
  1 31  1  0  0  0  0
  1 32  1  0  0  0  0
  1 33  1  0  0  0  0
  2 34  1  0  0  0  0
  3 35  1  0  0  0  0
  3 36  1  0  0  0  0
  3 37  1  0  0  0  0
  4 38  1  0  0  0  0
  4 39  1  0  0  0  0
 13 40  1  0  0  0  0
 14 41  1  0  0  0  0
 14 42  1  0  0  0  0
 15 43  1  0  0  0  0
 17 44  1  0  0  0  0
 17 45  1  0  0  0  0
 17 46  1  0  0  0  0
 18 47  1  0  0  0  0
 18 48  1  0  0  0  0
 18 49  1  0  0  0  0
 22 50  1  0  0  0  0
 25 51  1  0  0  0  0
 26 52  1  0  0  0  0
 27 53  1  0  0  0  0
 28 54  1  0  0  0  0
 29 55  1  0  0  0  0
 30 56  1  0  0  0  0
M  END
$$$$
