C24H22O14
APtclcactv06281816463D 0   0.00000     0.00000
 
 60 63  0  0  0  0  0  0  0  0999 V2000
   -6.2537   -0.9938   -0.3338 C   0  0  0  0  0  0  0  0  0  0  0  0
   -7.5090   -0.8972    0.2268 C   0  0  0  0  0  0  0  0  0  0  0  0
   -7.7871    0.1057    1.1454 C   0  0  0  0  0  0  0  0  0  0  0  0
   -6.7982    1.0197    1.5051 C   0  0  0  0  0  0  0  0  0  0  0  0
   -5.5376    0.9289    0.9471 C   0  0  0  0  0  0  0  0  0  0  0  0
   -5.2574   -0.0808    0.0223 C   0  0  0  0  0  0  0  0  0  0  0  0
   -3.9131   -0.1828   -0.5763 C   0  0  0  0  0  0  0  0  0  0  0  0
   -3.6702   -1.1759   -1.4735 C   0  0  0  0  0  0  0  0  0  0  0  0
   -2.3866   -1.2894   -2.0581 C   0  0  0  0  0  0  0  0  0  0  0  0
   -2.1336   -2.1678   -2.8667 O   0  0  0  0  0  0  0  0  0  0  0  0
   -1.3679   -0.3059   -1.6530 C   0  0  0  0  0  0  0  0  0  0  0  0
   -0.0715   -0.3423   -2.1809 C   0  0  0  0  0  0  0  0  0  0  0  0
    0.8558    0.5998   -1.7748 C   0  0  0  0  0  0  0  0  0  0  0  0
    0.5015    1.5750   -0.8493 C   0  0  0  0  0  0  0  0  0  0  0  0
   -0.7805    1.6168   -0.3227 C   0  0  0  0  0  0  0  0  0  0  0  0
   -1.7235    0.6812   -0.7174 C   0  0  0  0  0  0  0  0  0  0  0  0
   -2.9777    0.7114   -0.2188 O   0  0  0  0  0  0  0  0  0  0  0  0
    1.4196    2.4948   -0.4572 O   0  0  0  0  0  0  0  0  0  0  0  0
    2.7227    2.3982   -1.0357 C   0  0  0  0  0  0  0  0  0  0  0  0
    3.5757    3.5824   -0.5734 C   0  0  0  0  0  0  0  0  0  0  0  0
    3.7372    3.5219    0.9486 C   0  0  0  0  0  0  0  0  0  0  0  0
    4.3566    2.1745    1.3322 C   0  0  0  0  0  0  0  0  0  0  0  0
    3.4735    1.0446    0.7962 C   0  0  0  0  0  0  0  0  0  0  0  0
    3.3393    1.1778   -0.6202 O   0  0  0  0  0  0  0  0  0  0  0  0
    4.1167   -0.3045    1.1232 C   0  0  0  0  0  0  0  0  0  0  0  0
    3.2239   -1.3766    0.7208 O   0  0  0  0  0  0  0  0  0  0  0  0
    3.6425   -2.6329    0.9402 C   0  0  0  0  0  0  0  0  0  0  0  0
    4.7192   -2.8303    1.4516 O   0  0  0  0  0  0  0  0  0  0  0  0
    2.7694   -3.7972    0.5488 C   0  0  0  0  0  0  0  0  0  0  0  0
    3.4652   -5.0871    0.8995 C   0  0  0  0  0  0  0  0  0  0  0  0
    4.5579   -5.0634    1.4146 O   0  0  0  0  0  0  0  0  0  0  0  0
    2.8710   -6.2624    0.6398 O   0  0  0  0  0  0  0  0  0  0  0  0
    5.6632    2.0703    0.7630 O   0  0  0  0  0  0  0  0  0  0  0  0
    4.5926    4.5817    1.3811 O   0  0  0  0  0  0  0  0  0  0  0  0
    4.8616    3.5155   -1.1931 O   0  0  0  0  0  0  0  0  0  0  0  0
    0.2725   -1.2953   -3.0838 O   0  0  0  0  0  0  0  0  0  0  0  0
   -7.0744    2.0013    2.4050 O   0  0  0  0  0  0  0  0  0  0  0  0
   -9.0263    0.1968    1.6947 O   0  0  0  0  0  0  0  0  0  0  0  0
   -6.0387   -1.7777   -1.0449 H   0  0  0  0  0  0  0  0  0  0  0  0
   -8.2782   -1.6032   -0.0494 H   0  0  0  0  0  0  0  0  0  0  0  0
   -4.7706    1.6368    1.2247 H   0  0  0  0  0  0  0  0  0  0  0  0
   -4.4515   -1.8732   -1.7375 H   0  0  0  0  0  0  0  0  0  0  0  0
    1.8578    0.5778   -2.1773 H   0  0  0  0  0  0  0  0  0  0  0  0
   -1.0442    2.3790    0.3956 H   0  0  0  0  0  0  0  0  0  0  0  0
    2.6399    2.4122   -2.1225 H   0  0  0  0  0  0  0  0  0  0  0  0
    3.0847    4.5152   -0.8508 H   0  0  0  0  0  0  0  0  0  0  0  0
    2.7611    3.6227    1.4232 H   0  0  0  0  0  0  0  0  0  0  0  0
    4.4242    2.1004    2.4176 H   0  0  0  0  0  0  0  0  0  0  0  0
    2.4894    1.1006    1.2615 H   0  0  0  0  0  0  0  0  0  0  0  0
    5.0606   -0.3968    0.5859 H   0  0  0  0  0  0  0  0  0  0  0  0
    4.3013   -0.3687    2.1956 H   0  0  0  0  0  0  0  0  0  0  0  0
    1.8224   -3.7377    1.0852 H   0  0  0  0  0  0  0  0  0  0  0  0
    2.5817   -3.7659   -0.5245 H   0  0  0  0  0  0  0  0  0  0  0  0
    3.3563   -7.0628    0.8827 H   0  0  0  0  0  0  0  0  0  0  0  0
    6.2758    2.7590    1.0555 H   0  0  0  0  0  0  0  0  0  0  0  0
    4.2646    5.4652    1.1645 H   0  0  0  0  0  0  0  0  0  0  0  0
    4.8345    3.5439   -2.1593 H   0  0  0  0  0  0  0  0  0  0  0  0
    0.1192   -1.0393   -4.0036 H   0  0  0  0  0  0  0  0  0  0  0  0
   -6.9016    1.7528    3.3235 H   0  0  0  0  0  0  0  0  0  0  0  0
   -9.1325   -0.3095    2.5117 H   0  0  0  0  0  0  0  0  0  0  0  0
  1  2  2  0  0  0  0
  2  3  1  0  0  0  0
  3  4  2  0  0  0  0
  4  5  1  0  0  0  0
  5  6  2  0  0  0  0
  1  6  1  0  0  0  0
  6  7  1  0  0  0  0
  7  8  2  0  0  0  0
  8  9  1  0  0  0  0
  9 10  2  0  0  0  0
  9 11  1  0  0  0  0
 11 12  2  0  0  0  0
 12 13  1  0  0  0  0
 13 14  2  0  0  0  0
 14 15  1  0  0  0  0
 15 16  2  0  0  0  0
 11 16  1  0  0  0  0
 16 17  1  0  0  0  0
  7 17  1  0  0  0  0
 14 18  1  0  0  0  0
 18 19  1  0  0  0  0
 19 20  1  0  0  0  0
 20 21  1  0  0  0  0
 21 22  1  0  0  0  0
 22 23  1  0  0  0  0
 23 24  1  0  0  0  0
 19 24  1  0  0  0  0
 23 25  1  0  0  0  0
 25 26  1  0  0  0  0
 26 27  1  0  0  0  0
 27 28  2  0  0  0  0
 27 29  1  0  0  0  0
 29 30  1  0  0  0  0
 30 31  2  0  0  0  0
 30 32  1  0  0  0  0
 22 33  1  0  0  0  0
 21 34  1  0  0  0  0
 20 35  1  0  0  0  0
 12 36  1  0  0  0  0
  4 37  1  0  0  0  0
  3 38  1  0  0  0  0
  1 39  1  0  0  0  0
  2 40  1  0  0  0  0
  5 41  1  0  0  0  0
  8 42  1  0  0  0  0
 13 43  1  0  0  0  0
 15 44  1  0  0  0  0
 19 45  1  0  0  0  0
 20 46  1  0  0  0  0
 21 47  1  0  0  0  0
 22 48  1  0  0  0  0
 23 49  1  0  0  0  0
 25 50  1  0  0  0  0
 25 51  1  0  0  0  0
 29 52  1  0  0  0  0
 29 53  1  0  0  0  0
 32 54  1  0  0  0  0
 33 55  1  0  0  0  0
 34 56  1  0  0  0  0
 35 57  1  0  0  0  0
 36 58  1  0  0  0  0
 37 59  1  0  0  0  0
 38 60  1  0  0  0  0
M  END
$$$$
