C18H36O2
APtclcactv06201808413D 0   0.00000     0.00000
 
 56 55  0  0  0  0  0  0  0  0999 V2000
   11.8091   -0.2822   -0.0000 C   0  0  0  0  0  0  0  0  0  0  0  0
   10.5423    0.5758    0.0000 C   0  0  0  0  0  0  0  0  0  0  0  0
    9.3111   -0.3325   -0.0000 C   0  0  0  0  0  0  0  0  0  0  0  0
    8.0443    0.5255    0.0000 C   0  0  0  0  0  0  0  0  0  0  0  0
    6.8131   -0.3829   -0.0000 C   0  0  0  0  0  0  0  0  0  0  0  0
    5.5463    0.4751    0.0000 C   0  0  0  0  0  0  0  0  0  0  0  0
    4.3152   -0.4332   -0.0000 C   0  0  0  0  0  0  0  0  0  0  0  0
    3.0484    0.4248    0.0000 C   0  0  0  0  0  0  0  0  0  0  0  0
    1.8172   -0.4836   -0.0000 C   0  0  0  0  0  0  0  0  0  0  0  0
    0.5504    0.3744    0.0000 C   0  0  0  0  0  0  0  0  0  0  0  0
   -0.6808   -0.5339    0.0000 C   0  0  0  0  0  0  0  0  0  0  0  0
   -1.9476    0.3241    0.0000 C   0  0  0  0  0  0  0  0  0  0  0  0
   -3.1788   -0.5843    0.0000 C   0  0  0  0  0  0  0  0  0  0  0  0
   -4.4455    0.2737    0.0000 C   0  0  0  0  0  0  0  0  0  0  0  0
   -5.6767   -0.6346    0.0000 C   0  0  0  0  0  0  0  0  0  0  0  0
   -6.9435    0.2234   -0.0000 C   0  0  0  0  0  0  0  0  0  0  0  0
   -8.1747   -0.6850    0.0000 C   0  0  0  0  0  0  0  0  0  0  0  0
   -9.4224    0.1601   -0.0000 C   0  0  0  0  0  0  0  0  0  0  0  0
   -9.3359    1.3653   -0.0000 O   0  0  0  0  0  0  0  0  0  0  0  0
  -10.6300   -0.4260    0.0000 O   0  0  0  0  0  0  0  0  0  0  0  0
   12.6862    0.3649    0.0000 H   0  0  0  0  0  0  0  0  0  0  0  0
   11.8218   -0.9114    0.8900 H   0  0  0  0  0  0  0  0  0  0  0  0
   11.8218   -0.9114   -0.8900 H   0  0  0  0  0  0  0  0  0  0  0  0
   10.5296    1.2050    0.8900 H   0  0  0  0  0  0  0  0  0  0  0  0
   10.5296    1.2050   -0.8900 H   0  0  0  0  0  0  0  0  0  0  0  0
    9.3238   -0.9617   -0.8900 H   0  0  0  0  0  0  0  0  0  0  0  0
    9.3238   -0.9617    0.8900 H   0  0  0  0  0  0  0  0  0  0  0  0
    8.0316    1.1546    0.8900 H   0  0  0  0  0  0  0  0  0  0  0  0
    8.0316    1.1546   -0.8900 H   0  0  0  0  0  0  0  0  0  0  0  0
    6.8258   -1.0121   -0.8900 H   0  0  0  0  0  0  0  0  0  0  0  0
    6.8258   -1.0121    0.8900 H   0  0  0  0  0  0  0  0  0  0  0  0
    5.5337    1.1043    0.8900 H   0  0  0  0  0  0  0  0  0  0  0  0
    5.5337    1.1043   -0.8900 H   0  0  0  0  0  0  0  0  0  0  0  0
    4.3278   -1.0624   -0.8900 H   0  0  0  0  0  0  0  0  0  0  0  0
    4.3278   -1.0624    0.8900 H   0  0  0  0  0  0  0  0  0  0  0  0
    3.0357    1.0539    0.8900 H   0  0  0  0  0  0  0  0  0  0  0  0
    3.0357    1.0539   -0.8900 H   0  0  0  0  0  0  0  0  0  0  0  0
    1.8299   -1.1128   -0.8900 H   0  0  0  0  0  0  0  0  0  0  0  0
    1.8299   -1.1128    0.8900 H   0  0  0  0  0  0  0  0  0  0  0  0
    0.5377    1.0036    0.8900 H   0  0  0  0  0  0  0  0  0  0  0  0
    0.5377    1.0036   -0.8900 H   0  0  0  0  0  0  0  0  0  0  0  0
   -0.6681   -1.1631   -0.8900 H   0  0  0  0  0  0  0  0  0  0  0  0
   -0.6681   -1.1631    0.8900 H   0  0  0  0  0  0  0  0  0  0  0  0
   -1.9603    0.9532    0.8900 H   0  0  0  0  0  0  0  0  0  0  0  0
   -1.9603    0.9532   -0.8900 H   0  0  0  0  0  0  0  0  0  0  0  0
   -3.1661   -1.2135   -0.8900 H   0  0  0  0  0  0  0  0  0  0  0  0
   -3.1661   -1.2135    0.8900 H   0  0  0  0  0  0  0  0  0  0  0  0
   -4.4582    0.9029    0.8900 H   0  0  0  0  0  0  0  0  0  0  0  0
   -4.4582    0.9029   -0.8900 H   0  0  0  0  0  0  0  0  0  0  0  0
   -5.6640   -1.2638   -0.8900 H   0  0  0  0  0  0  0  0  0  0  0  0
   -5.6640   -1.2638    0.8900 H   0  0  0  0  0  0  0  0  0  0  0  0
   -6.9562    0.8525    0.8900 H   0  0  0  0  0  0  0  0  0  0  0  0
   -6.9562    0.8525   -0.8900 H   0  0  0  0  0  0  0  0  0  0  0  0
   -8.1620   -1.3142   -0.8900 H   0  0  0  0  0  0  0  0  0  0  0  0
   -8.1620   -1.3142    0.8900 H   0  0  0  0  0  0  0  0  0  0  0  0
  -11.4012    0.1574   -0.0000 H   0  0  0  0  0  0  0  0  0  0  0  0
  1  2  1  0  0  0  0
  2  3  1  0  0  0  0
  3  4  1  0  0  0  0
  4  5  1  0  0  0  0
  5  6  1  0  0  0  0
  6  7  1  0  0  0  0
  7  8  1  0  0  0  0
  8  9  1  0  0  0  0
  9 10  1  0  0  0  0
 10 11  1  0  0  0  0
 11 12  1  0  0  0  0
 12 13  1  0  0  0  0
 13 14  1  0  0  0  0
 14 15  1  0  0  0  0
 15 16  1  0  0  0  0
 16 17  1  0  0  0  0
 17 18  1  0  0  0  0
 18 19  2  0  0  0  0
 18 20  1  0  0  0  0
  1 21  1  0  0  0  0
  1 22  1  0  0  0  0
  1 23  1  0  0  0  0
  2 24  1  0  0  0  0
  2 25  1  0  0  0  0
  3 26  1  0  0  0  0
  3 27  1  0  0  0  0
  4 28  1  0  0  0  0
  4 29  1  0  0  0  0
  5 30  1  0  0  0  0
  5 31  1  0  0  0  0
  6 32  1  0  0  0  0
  6 33  1  0  0  0  0
  7 34  1  0  0  0  0
  7 35  1  0  0  0  0
  8 36  1  0  0  0  0
  8 37  1  0  0  0  0
  9 38  1  0  0  0  0
  9 39  1  0  0  0  0
 10 40  1  0  0  0  0
 10 41  1  0  0  0  0
 11 42  1  0  0  0  0
 11 43  1  0  0  0  0
 12 44  1  0  0  0  0
 12 45  1  0  0  0  0
 13 46  1  0  0  0  0
 13 47  1  0  0  0  0
 14 48  1  0  0  0  0
 14 49  1  0  0  0  0
 15 50  1  0  0  0  0
 15 51  1  0  0  0  0
 16 52  1  0  0  0  0
 16 53  1  0  0  0  0
 17 54  1  0  0  0  0
 17 55  1  0  0  0  0
 20 56  1  0  0  0  0
M  END
$$$$
