C20H21NO5
APtclcactv06281816483D 0   0.00000     0.00000
 
 47 49  0  0  0  0  0  0  0  0999 V2000
    5.7203    1.6110    0.0021 C   0  0  0  0  0  0  0  0  0  0  0  0
    5.3459    0.6178   -1.0677 C   0  0  0  0  0  0  0  0  0  0  0  0
    4.6366   -0.4398   -0.7602 C   0  0  0  0  0  0  0  0  0  0  0  0
    4.0865   -0.5990    0.6337 C   0  0  0  0  0  0  0  0  0  0  0  0
    2.5850   -0.7119    0.5714 C   0  0  0  0  0  0  0  0  0  0  0  0
    1.9881   -1.9616    0.4431 C   0  0  0  0  0  0  0  0  0  0  0  0
    0.6089   -2.0841    0.3863 C   0  0  0  0  0  0  0  0  0  0  0  0
   -0.1940   -0.9534    0.4563 C   0  0  0  0  0  0  0  0  0  0  0  0
    0.4085    0.3130    0.5819 C   0  0  0  0  0  0  0  0  0  0  0  0
    1.8044    0.4264    0.6476 C   0  0  0  0  0  0  0  0  0  0  0  0
    2.3855    1.6459    0.7749 O   0  0  0  0  0  0  0  0  0  0  0  0
   -0.4505    1.5056    0.6437 C   0  0  0  0  0  0  0  0  0  0  0  0
   -0.0090    2.5917    0.9757 O   0  0  0  0  0  0  0  0  0  0  0  0
   -1.8699    1.3277    0.2854 C   0  0  0  0  0  0  0  0  0  0  0  0
   -2.3818    0.0231    0.1737 C   0  0  0  0  0  0  0  0  0  0  0  0
   -1.5688   -1.0711    0.4056 N   0  0  0  0  0  0  0  0  0  0  0  0
   -2.1810   -2.3874    0.6023 C   0  0  0  0  0  0  0  0  0  0  0  0
   -3.7204   -0.1540   -0.1716 C   0  0  0  0  0  0  0  0  0  0  0  0
   -4.5254    0.9537   -0.3951 C   0  0  0  0  0  0  0  0  0  0  0  0
   -4.0070    2.2406   -0.2771 C   0  0  0  0  0  0  0  0  0  0  0  0
   -2.6967    2.4303    0.0585 C   0  0  0  0  0  0  0  0  0  0  0  0
   -5.8301    0.7812   -0.7323 O   0  0  0  0  0  0  0  0  0  0  0  0
   -4.2355   -1.4081   -0.2896 O   0  0  0  0  0  0  0  0  0  0  0  0
   -4.2958   -1.9637   -1.6048 C   0  0  0  0  0  0  0  0  0  0  0  0
    2.7645   -3.0726    0.3723 O   0  0  0  0  0  0  0  0  0  0  0  0
    5.7874    0.8412   -2.4911 C   0  0  0  0  0  0  0  0  0  0  0  0
    6.2328    1.0947    0.8139 H   0  0  0  0  0  0  0  0  0  0  0  0
    6.3802    2.3686   -0.4205 H   0  0  0  0  0  0  0  0  0  0  0  0
    4.8188    2.0879    0.3866 H   0  0  0  0  0  0  0  0  0  0  0  0
    4.4460   -1.1976   -1.5058 H   0  0  0  0  0  0  0  0  0  0  0  0
    4.5001   -1.5000    1.0868 H   0  0  0  0  0  0  0  0  0  0  0  0
    4.3611    0.2685    1.2339 H   0  0  0  0  0  0  0  0  0  0  0  0
    0.1579   -3.0604    0.2871 H   0  0  0  0  0  0  0  0  0  0  0  0
    2.5186    1.9244    1.6913 H   0  0  0  0  0  0  0  0  0  0  0  0
   -2.3684   -2.8495   -0.3670 H   0  0  0  0  0  0  0  0  0  0  0  0
   -1.5071   -3.0187    1.1815 H   0  0  0  0  0  0  0  0  0  0  0  0
   -3.1230   -2.2736    1.1387 H   0  0  0  0  0  0  0  0  0  0  0  0
   -4.6450    3.0942   -0.4523 H   0  0  0  0  0  0  0  0  0  0  0  0
   -2.3006    3.4310    0.1483 H   0  0  0  0  0  0  0  0  0  0  0  0
   -6.4302    0.7422    0.0249 H   0  0  0  0  0  0  0  0  0  0  0  0
   -3.2867   -2.0580   -2.0059 H   0  0  0  0  0  0  0  0  0  0  0  0
   -4.7633   -2.9475   -1.5625 H   0  0  0  0  0  0  0  0  0  0  0  0
   -4.8833   -1.3096   -2.2490 H   0  0  0  0  0  0  0  0  0  0  0  0
    2.9604   -3.4710    1.2314 H   0  0  0  0  0  0  0  0  0  0  0  0
    6.7575    0.3697   -2.6489 H   0  0  0  0  0  0  0  0  0  0  0  0
    5.0562    0.4042   -3.1712 H   0  0  0  0  0  0  0  0  0  0  0  0
    5.8680    1.9111   -2.6829 H   0  0  0  0  0  0  0  0  0  0  0  0
  1  2  1  0  0  0  0
  2  3  2  0  0  0  0
  3  4  1  0  0  0  0
  4  5  1  0  0  0  0
  5  6  2  0  0  0  0
  6  7  1  0  0  0  0
  7  8  2  0  0  0  0
  8  9  1  0  0  0  0
  9 10  2  0  0  0  0
  5 10  1  0  0  0  0
 10 11  1  0  0  0  0
  9 12  1  0  0  0  0
 12 13  2  0  0  0  0
 12 14  1  0  0  0  0
 14 15  2  0  0  0  0
 15 16  1  0  0  0  0
  8 16  1  0  0  0  0
 16 17  1  0  0  0  0
 15 18  1  0  0  0  0
 18 19  2  0  0  0  0
 19 20  1  0  0  0  0
 20 21  2  0  0  0  0
 14 21  1  0  0  0  0
 19 22  1  0  0  0  0
 18 23  1  0  0  0  0
 23 24  1  0  0  0  0
  6 25  1  0  0  0  0
  2 26  1  0  0  0  0
  1 27  1  0  0  0  0
  1 28  1  0  0  0  0
  1 29  1  0  0  0  0
  3 30  1  0  0  0  0
  4 31  1  0  0  0  0
  4 32  1  0  0  0  0
  7 33  1  0  0  0  0
 11 34  1  0  0  0  0
 17 35  1  0  0  0  0
 17 36  1  0  0  0  0
 17 37  1  0  0  0  0
 20 38  1  0  0  0  0
 21 39  1  0  0  0  0
 22 40  1  0  0  0  0
 24 41  1  0  0  0  0
 24 42  1  0  0  0  0
 24 43  1  0  0  0  0
 25 44  1  0  0  0  0
 26 45  1  0  0  0  0
 26 46  1  0  0  0  0
 26 47  1  0  0  0  0
M  END
$$$$
