C15H10O5
APtclcactv06281816453D 0   0.00000     0.00000
 
 30 32  0  0  0  0  0  0  0  0999 V2000
   -2.3912    1.1620   -0.8099 C   0  0  0  0  0  0  0  0  0  0  0  0
   -3.7344    1.4659   -0.7850 C   0  0  0  0  0  0  0  0  0  0  0  0
   -4.5924    0.7637    0.0528 C   0  0  0  0  0  0  0  0  0  0  0  0
   -4.1001   -0.2475    0.8689 C   0  0  0  0  0  0  0  0  0  0  0  0
   -2.7583   -0.5583    0.8506 C   0  0  0  0  0  0  0  0  0  0  0  0
   -1.8914    0.1454    0.0094 C   0  0  0  0  0  0  0  0  0  0  0  0
   -0.4545   -0.1838   -0.0141 C   0  0  0  0  0  0  0  0  0  0  0  0
   -0.0823   -1.4919   -0.1107 C   0  0  0  0  0  0  0  0  0  0  0  0
    1.2956   -1.8252   -0.1349 C   0  0  0  0  0  0  0  0  0  0  0  0
    1.6662   -2.9849   -0.2210 O   0  0  0  0  0  0  0  0  0  0  0  0
    2.2629   -0.7161   -0.0525 C   0  0  0  0  0  0  0  0  0  0  0  0
    1.7707    0.5968    0.0444 C   0  0  0  0  0  0  0  0  0  0  0  0
    0.4398    0.8168    0.0551 O   0  0  0  0  0  0  0  0  0  0  0  0
    2.6667    1.6538    0.1230 C   0  0  0  0  0  0  0  0  0  0  0  0
    4.0284    1.4033    0.1049 C   0  0  0  0  0  0  0  0  0  0  0  0
    4.5074    0.0985    0.0086 C   0  0  0  0  0  0  0  0  0  0  0  0
    3.6383   -0.9522   -0.0690 C   0  0  0  0  0  0  0  0  0  0  0  0
    4.9041    2.4379    0.1814 O   0  0  0  0  0  0  0  0  0  0  0  0
   -1.0259   -2.4699   -0.1829 O   0  0  0  0  0  0  0  0  0  0  0  0
   -5.9158    1.0670    0.0744 O   0  0  0  0  0  0  0  0  0  0  0  0
   -1.7259    1.7052   -1.4646 H   0  0  0  0  0  0  0  0  0  0  0  0
   -4.1214    2.2513   -1.4173 H   0  0  0  0  0  0  0  0  0  0  0  0
   -4.7705   -0.7904    1.5187 H   0  0  0  0  0  0  0  0  0  0  0  0
   -2.3765   -1.3441    1.4855 H   0  0  0  0  0  0  0  0  0  0  0  0
    2.3031    2.6680    0.1975 H   0  0  0  0  0  0  0  0  0  0  0  0
    5.5720   -0.0830   -0.0048 H   0  0  0  0  0  0  0  0  0  0  0  0
    4.0141   -1.9619   -0.1440 H   0  0  0  0  0  0  0  0  0  0  0  0
    5.1575    2.6728    1.0845 H   0  0  0  0  0  0  0  0  0  0  0  0
   -0.6620   -3.3633   -0.2489 H   0  0  0  0  0  0  0  0  0  0  0  0
   -6.4445    0.5661   -0.5617 H   0  0  0  0  0  0  0  0  0  0  0  0
  1  2  2  0  0  0  0
  2  3  1  0  0  0  0
  3  4  2  0  0  0  0
  4  5  1  0  0  0  0
  5  6  2  0  0  0  0
  1  6  1  0  0  0  0
  6  7  1  0  0  0  0
  7  8  2  0  0  0  0
  8  9  1  0  0  0  0
  9 10  2  0  0  0  0
  9 11  1  0  0  0  0
 11 12  2  0  0  0  0
 12 13  1  0  0  0  0
  7 13  1  0  0  0  0
 12 14  1  0  0  0  0
 14 15  2  0  0  0  0
 15 16  1  0  0  0  0
 16 17  2  0  0  0  0
 11 17  1  0  0  0  0
 15 18  1  0  0  0  0
  8 19  1  0  0  0  0
  3 20  1  0  0  0  0
  1 21  1  0  0  0  0
  2 22  1  0  0  0  0
  4 23  1  0  0  0  0
  5 24  1  0  0  0  0
 14 25  1  0  0  0  0
 16 26  1  0  0  0  0
 17 27  1  0  0  0  0
 18 28  1  0  0  0  0
 19 29  1  0  0  0  0
 20 30  1  0  0  0  0
M  END
$$$$
