C18H34O2
APtclcactv06281816493D 0   0.00000     0.00000
 
 54 53  0  0  0  0  0  0  0  0999 V2000
  -10.5897    2.4337   -0.2695 C   0  0  0  0  0  0  0  0  0  0  0  0
   -9.6794    1.3640    0.3372 C   0  0  0  0  0  0  0  0  0  0  0  0
   -8.2858    1.4671   -0.2857 C   0  0  0  0  0  0  0  0  0  0  0  0
   -7.3755    0.3974    0.3210 C   0  0  0  0  0  0  0  0  0  0  0  0
   -5.9819    0.5005   -0.3019 C   0  0  0  0  0  0  0  0  0  0  0  0
   -5.0717   -0.5691    0.3048 C   0  0  0  0  0  0  0  0  0  0  0  0
   -3.6780   -0.4660   -0.3181 C   0  0  0  0  0  0  0  0  0  0  0  0
   -2.7678   -1.5357    0.2887 C   0  0  0  0  0  0  0  0  0  0  0  0
   -1.3741   -1.4326   -0.3343 C   0  0  0  0  0  0  0  0  0  0  0  0
   -0.4639   -2.5023    0.2725 C   0  0  0  0  0  0  0  0  0  0  0  0
    0.9088   -2.4007   -0.3411 C   0  0  0  0  0  0  0  0  0  0  0  0
    1.9607   -2.2598    0.4268 C   0  0  0  0  0  0  0  0  0  0  0  0
    3.3334   -2.1583   -0.1867 C   0  0  0  0  0  0  0  0  0  0  0  0
    4.0163   -0.8787    0.3003 C   0  0  0  0  0  0  0  0  0  0  0  0
    5.4100   -0.7756   -0.3226 C   0  0  0  0  0  0  0  0  0  0  0  0
    6.0929    0.5039    0.1644 C   0  0  0  0  0  0  0  0  0  0  0  0
    7.4865    0.6070   -0.4585 C   0  0  0  0  0  0  0  0  0  0  0  0
    8.1592    1.8674    0.0212 C   0  0  0  0  0  0  0  0  0  0  0  0
    7.5831    2.6072    0.7832 O   0  0  0  0  0  0  0  0  0  0  0  0
    9.3984    2.1680   -0.3979 O   0  0  0  0  0  0  0  0  0  0  0  0
  -10.1740    3.4211   -0.0686 H   0  0  0  0  0  0  0  0  0  0  0  0
  -10.6609    2.2818   -1.3466 H   0  0  0  0  0  0  0  0  0  0  0  0
  -11.5825    2.3602    0.1742 H   0  0  0  0  0  0  0  0  0  0  0  0
   -9.6081    1.5159    1.4142 H   0  0  0  0  0  0  0  0  0  0  0  0
  -10.0951    0.3766    0.1362 H   0  0  0  0  0  0  0  0  0  0  0  0
   -8.3571    1.3152   -1.3627 H   0  0  0  0  0  0  0  0  0  0  0  0
   -7.8701    2.4545   -0.0848 H   0  0  0  0  0  0  0  0  0  0  0  0
   -7.3043    0.5493    1.3980 H   0  0  0  0  0  0  0  0  0  0  0  0
   -7.7912   -0.5900    0.1200 H   0  0  0  0  0  0  0  0  0  0  0  0
   -6.0532    0.3487   -1.3789 H   0  0  0  0  0  0  0  0  0  0  0  0
   -5.5662    1.4879   -0.1009 H   0  0  0  0  0  0  0  0  0  0  0  0
   -5.0004   -0.4173    1.3818 H   0  0  0  0  0  0  0  0  0  0  0  0
   -5.4873   -1.5565    0.1039 H   0  0  0  0  0  0  0  0  0  0  0  0
   -3.7493   -0.6179   -1.3951 H   0  0  0  0  0  0  0  0  0  0  0  0
   -3.2624    0.5213   -0.1171 H   0  0  0  0  0  0  0  0  0  0  0  0
   -2.6965   -1.3838    1.3657 H   0  0  0  0  0  0  0  0  0  0  0  0
   -3.1834   -2.5231    0.0877 H   0  0  0  0  0  0  0  0  0  0  0  0
   -1.4454   -1.5845   -1.4113 H   0  0  0  0  0  0  0  0  0  0  0  0
   -0.9585   -0.4452   -0.1333 H   0  0  0  0  0  0  0  0  0  0  0  0
   -0.3926   -2.3504    1.3495 H   0  0  0  0  0  0  0  0  0  0  0  0
   -0.8796   -3.4897    0.0715 H   0  0  0  0  0  0  0  0  0  0  0  0
    1.0253   -2.4441   -1.4139 H   0  0  0  0  0  0  0  0  0  0  0  0
    1.8442   -2.2165    1.4997 H   0  0  0  0  0  0  0  0  0  0  0  0
    3.9282   -3.0226    0.1086 H   0  0  0  0  0  0  0  0  0  0  0  0
    3.2449   -2.1321   -1.2728 H   0  0  0  0  0  0  0  0  0  0  0  0
    3.4215   -0.0144    0.0050 H   0  0  0  0  0  0  0  0  0  0  0  0
    4.1048   -0.9049    1.3864 H   0  0  0  0  0  0  0  0  0  0  0  0
    6.0048   -1.6400   -0.0273 H   0  0  0  0  0  0  0  0  0  0  0  0
    5.3215   -0.7494   -1.4087 H   0  0  0  0  0  0  0  0  0  0  0  0
    5.4981    1.3683   -0.1309 H   0  0  0  0  0  0  0  0  0  0  0  0
    6.1814    0.4777    1.2505 H   0  0  0  0  0  0  0  0  0  0  0  0
    8.0814   -0.2573   -0.1632 H   0  0  0  0  0  0  0  0  0  0  0  0
    7.3980    0.6332   -1.5446 H   0  0  0  0  0  0  0  0  0  0  0  0
    9.7886    2.9870   -0.0630 H   0  0  0  0  0  0  0  0  0  0  0  0
  1  2  1  0  0  0  0
  2  3  1  0  0  0  0
  3  4  1  0  0  0  0
  4  5  1  0  0  0  0
  5  6  1  0  0  0  0
  6  7  1  0  0  0  0
  7  8  1  0  0  0  0
  8  9  1  0  0  0  0
  9 10  1  0  0  0  0
 10 11  1  0  0  0  0
 11 12  2  0  0  0  0
 12 13  1  0  0  0  0
 13 14  1  0  0  0  0
 14 15  1  0  0  0  0
 15 16  1  0  0  0  0
 16 17  1  0  0  0  0
 17 18  1  0  0  0  0
 18 19  2  0  0  0  0
 18 20  1  0  0  0  0
  1 21  1  0  0  0  0
  1 22  1  0  0  0  0
  1 23  1  0  0  0  0
  2 24  1  0  0  0  0
  2 25  1  0  0  0  0
  3 26  1  0  0  0  0
  3 27  1  0  0  0  0
  4 28  1  0  0  0  0
  4 29  1  0  0  0  0
  5 30  1  0  0  0  0
  5 31  1  0  0  0  0
  6 32  1  0  0  0  0
  6 33  1  0  0  0  0
  7 34  1  0  0  0  0
  7 35  1  0  0  0  0
  8 36  1  0  0  0  0
  8 37  1  0  0  0  0
  9 38  1  0  0  0  0
  9 39  1  0  0  0  0
 10 40  1  0  0  0  0
 10 41  1  0  0  0  0
 11 42  1  0  0  0  0
 12 43  1  0  0  0  0
 13 44  1  0  0  0  0
 13 45  1  0  0  0  0
 14 46  1  0  0  0  0
 14 47  1  0  0  0  0
 15 48  1  0  0  0  0
 15 49  1  0  0  0  0
 16 50  1  0  0  0  0
 16 51  1  0  0  0  0
 17 52  1  0  0  0  0
 17 53  1  0  0  0  0
 20 54  1  0  0  0  0
M  END
$$$$
