C20H36O2
APtclcactv06281816483D 0   0.00000     0.00000
 
 58 57  0  0  0  0  0  0  0  0999 V2000
   -9.6267    4.1617   -0.4286 C   0  0  0  0  0  0  0  0  0  0  0  0
   -8.9676    2.8586   -0.8851 C   0  0  0  0  0  0  0  0  0  0  0  0
   -8.3344    2.1583    0.3189 C   0  0  0  0  0  0  0  0  0  0  0  0
   -7.6753    0.8552   -0.1376 C   0  0  0  0  0  0  0  0  0  0  0  0
   -7.0421    0.1549    1.0664 C   0  0  0  0  0  0  0  0  0  0  0  0
   -6.3929   -1.1286    0.6167 C   0  0  0  0  0  0  0  0  0  0  0  0
   -5.1290   -1.3506    0.8800 C   0  0  0  0  0  0  0  0  0  0  0  0
   -4.4798   -2.6341    0.4304 C   0  0  0  0  0  0  0  0  0  0  0  0
   -3.2602   -2.3175   -0.3963 C   0  0  0  0  0  0  0  0  0  0  0  0
   -2.0966   -2.8211   -0.0667 C   0  0  0  0  0  0  0  0  0  0  0  0
   -0.8770   -2.5045   -0.8933 C   0  0  0  0  0  0  0  0  0  0  0  0
    0.2133   -1.9224    0.0085 C   0  0  0  0  0  0  0  0  0  0  0  0
    1.4515   -1.6009   -0.8307 C   0  0  0  0  0  0  0  0  0  0  0  0
    2.5418   -1.0188    0.0711 C   0  0  0  0  0  0  0  0  0  0  0  0
    3.7800   -0.6973   -0.7682 C   0  0  0  0  0  0  0  0  0  0  0  0
    4.8703   -0.1152    0.1337 C   0  0  0  0  0  0  0  0  0  0  0  0
    6.1085    0.2063   -0.7056 C   0  0  0  0  0  0  0  0  0  0  0  0
    7.1825    0.7796    0.1827 C   0  0  0  0  0  0  0  0  0  0  0  0
    6.9784    0.9170    1.3656 O   0  0  0  0  0  0  0  0  0  0  0  0
    8.3657    1.1377   -0.3403 O   0  0  0  0  0  0  0  0  0  0  0  0
    9.3529    1.6826    0.5744 C   0  0  0  0  0  0  0  0  0  0  0  0
   10.6270    2.0300   -0.1981 C   0  0  0  0  0  0  0  0  0  0  0  0
  -10.0778    4.6606   -1.2863 H   0  0  0  0  0  0  0  0  0  0  0  0
  -10.3975    3.9399    0.3095 H   0  0  0  0  0  0  0  0  0  0  0  0
   -8.8743    4.8130    0.0163 H   0  0  0  0  0  0  0  0  0  0  0  0
   -9.7199    2.2073   -1.3300 H   0  0  0  0  0  0  0  0  0  0  0  0
   -8.1967    3.0804   -1.6232 H   0  0  0  0  0  0  0  0  0  0  0  0
   -7.5820    2.8096    0.7638 H   0  0  0  0  0  0  0  0  0  0  0  0
   -9.1052    1.9365    1.0569 H   0  0  0  0  0  0  0  0  0  0  0  0
   -8.4276    0.2039   -0.5825 H   0  0  0  0  0  0  0  0  0  0  0  0
   -6.9045    1.0770   -0.8757 H   0  0  0  0  0  0  0  0  0  0  0  0
   -6.2898    0.8062    1.5112 H   0  0  0  0  0  0  0  0  0  0  0  0
   -7.8129   -0.0669    1.8044 H   0  0  0  0  0  0  0  0  0  0  0  0
   -6.9697   -1.8655    0.0775 H   0  0  0  0  0  0  0  0  0  0  0  0
   -4.5522   -0.6138    1.4193 H   0  0  0  0  0  0  0  0  0  0  0  0
   -4.1859   -3.2177    1.3028 H   0  0  0  0  0  0  0  0  0  0  0  0
   -5.1863   -3.2080   -0.1694 H   0  0  0  0  0  0  0  0  0  0  0  0
   -3.3454   -1.6753   -1.2604 H   0  0  0  0  0  0  0  0  0  0  0  0
   -2.0114   -3.4633    0.7975 H   0  0  0  0  0  0  0  0  0  0  0  0
   -0.5104   -3.4166   -1.3642 H   0  0  0  0  0  0  0  0  0  0  0  0
   -1.1383   -1.7780   -1.6628 H   0  0  0  0  0  0  0  0  0  0  0  0
   -0.1533   -1.0103    0.4794 H   0  0  0  0  0  0  0  0  0  0  0  0
    0.4745   -2.6488    0.7780 H   0  0  0  0  0  0  0  0  0  0  0  0
    1.8181   -2.5130   -1.3016 H   0  0  0  0  0  0  0  0  0  0  0  0
    1.1903   -0.8744   -1.6002 H   0  0  0  0  0  0  0  0  0  0  0  0
    2.1752   -0.1067    0.5420 H   0  0  0  0  0  0  0  0  0  0  0  0
    2.8030   -1.7453    0.8406 H   0  0  0  0  0  0  0  0  0  0  0  0
    4.1466   -1.6094   -1.2391 H   0  0  0  0  0  0  0  0  0  0  0  0
    3.5188    0.0292   -1.5376 H   0  0  0  0  0  0  0  0  0  0  0  0
    4.5037    0.7969    0.6046 H   0  0  0  0  0  0  0  0  0  0  0  0
    5.1315   -0.8417    0.9032 H   0  0  0  0  0  0  0  0  0  0  0  0
    6.4751   -0.7059   -1.1765 H   0  0  0  0  0  0  0  0  0  0  0  0
    5.8473    0.9327   -1.4751 H   0  0  0  0  0  0  0  0  0  0  0  0
    8.9557    2.5827    1.0437 H   0  0  0  0  0  0  0  0  0  0  0  0
    9.5835    0.9441    1.3423 H   0  0  0  0  0  0  0  0  0  0  0  0
   11.3681    2.4391    0.4886 H   0  0  0  0  0  0  0  0  0  0  0  0
   11.0243    1.1299   -0.6673 H   0  0  0  0  0  0  0  0  0  0  0  0
   10.3964    2.7685   -0.9659 H   0  0  0  0  0  0  0  0  0  0  0  0
  1  2  1  0  0  0  0
  2  3  1  0  0  0  0
  3  4  1  0  0  0  0
  4  5  1  0  0  0  0
  5  6  1  0  0  0  0
  6  7  2  0  0  0  0
  7  8  1  0  0  0  0
  8  9  1  0  0  0  0
  9 10  2  0  0  0  0
 10 11  1  0  0  0  0
 11 12  1  0  0  0  0
 12 13  1  0  0  0  0
 13 14  1  0  0  0  0
 14 15  1  0  0  0  0
 15 16  1  0  0  0  0
 16 17  1  0  0  0  0
 17 18  1  0  0  0  0
 18 19  2  0  0  0  0
 18 20  1  0  0  0  0
 20 21  1  0  0  0  0
 21 22  1  0  0  0  0
  1 23  1  0  0  0  0
  1 24  1  0  0  0  0
  1 25  1  0  0  0  0
  2 26  1  0  0  0  0
  2 27  1  0  0  0  0
  3 28  1  0  0  0  0
  3 29  1  0  0  0  0
  4 30  1  0  0  0  0
  4 31  1  0  0  0  0
  5 32  1  0  0  0  0
  5 33  1  0  0  0  0
  6 34  1  0  0  0  0
  7 35  1  0  0  0  0
  8 36  1  0  0  0  0
  8 37  1  0  0  0  0
  9 38  1  0  0  0  0
 10 39  1  0  0  0  0
 11 40  1  0  0  0  0
 11 41  1  0  0  0  0
 12 42  1  0  0  0  0
 12 43  1  0  0  0  0
 13 44  1  0  0  0  0
 13 45  1  0  0  0  0
 14 46  1  0  0  0  0
 14 47  1  0  0  0  0
 15 48  1  0  0  0  0
 15 49  1  0  0  0  0
 16 50  1  0  0  0  0
 16 51  1  0  0  0  0
 17 52  1  0  0  0  0
 17 53  1  0  0  0  0
 21 54  1  0  0  0  0
 21 55  1  0  0  0  0
 22 56  1  0  0  0  0
 22 57  1  0  0  0  0
 22 58  1  0  0  0  0
M  END
$$$$
