C15H10O4
APtclcactv06281816483D 0   0.00000     0.00000
 
 29 31  0  0  0  0  0  0  0  0999 V2000
   -2.8336   -0.8852   -0.6882 C   0  0  0  0  0  0  0  0  0  0  0  0
   -4.1805   -0.5988   -0.7084 C   0  0  0  0  0  0  0  0  0  0  0  0
   -4.6653    0.5196   -0.0409 C   0  0  0  0  0  0  0  0  0  0  0  0
   -3.7940    1.3536    0.6496 C   0  0  0  0  0  0  0  0  0  0  0  0
   -2.4456    1.0748    0.6750 C   0  0  0  0  0  0  0  0  0  0  0  0
   -1.9537   -0.0494    0.0054 C   0  0  0  0  0  0  0  0  0  0  0  0
   -0.5105   -0.3523    0.0303 C   0  0  0  0  0  0  0  0  0  0  0  0
   -0.1160   -1.6489    0.1542 C   0  0  0  0  0  0  0  0  0  0  0  0
    1.2633   -1.9589    0.1794 C   0  0  0  0  0  0  0  0  0  0  0  0
    1.6526   -3.1101    0.2889 O   0  0  0  0  0  0  0  0  0  0  0  0
    2.2132   -0.8358    0.0677 C   0  0  0  0  0  0  0  0  0  0  0  0
    1.6988    0.4658   -0.0563 C   0  0  0  0  0  0  0  0  0  0  0  0
    0.3636    0.6608   -0.0758 O   0  0  0  0  0  0  0  0  0  0  0  0
    2.5759    1.5355   -0.1627 C   0  0  0  0  0  0  0  0  0  0  0  0
    3.9421    1.3084   -0.1453 C   0  0  0  0  0  0  0  0  0  0  0  0
    4.4431    0.0145   -0.0220 C   0  0  0  0  0  0  0  0  0  0  0  0
    3.5918   -1.0485    0.0840 C   0  0  0  0  0  0  0  0  0  0  0  0
    4.7999    2.3554   -0.2498 O   0  0  0  0  0  0  0  0  0  0  0  0
   -5.9937    0.7985   -0.0637 O   0  0  0  0  0  0  0  0  0  0  0  0
   -2.4582   -1.7569   -1.2038 H   0  0  0  0  0  0  0  0  0  0  0  0
   -4.8610   -1.2441   -1.2440 H   0  0  0  0  0  0  0  0  0  0  0  0
   -4.1749    2.2219    1.1667 H   0  0  0  0  0  0  0  0  0  0  0  0
   -1.7691    1.7238    1.2112 H   0  0  0  0  0  0  0  0  0  0  0  0
   -0.8516   -2.4358    0.2331 H   0  0  0  0  0  0  0  0  0  0  0  0
    2.1948    2.5415   -0.2589 H   0  0  0  0  0  0  0  0  0  0  0  0
    5.5106   -0.1492   -0.0098 H   0  0  0  0  0  0  0  0  0  0  0  0
    3.9845   -2.0500    0.1798 H   0  0  0  0  0  0  0  0  0  0  0  0
    5.0514    2.7440    0.5992 H   0  0  0  0  0  0  0  0  0  0  0  0
   -6.4929    0.3943    0.6591 H   0  0  0  0  0  0  0  0  0  0  0  0
  1  2  2  0  0  0  0
  2  3  1  0  0  0  0
  3  4  2  0  0  0  0
  4  5  1  0  0  0  0
  5  6  2  0  0  0  0
  1  6  1  0  0  0  0
  6  7  1  0  0  0  0
  7  8  2  0  0  0  0
  8  9  1  0  0  0  0
  9 10  2  0  0  0  0
  9 11  1  0  0  0  0
 11 12  2  0  0  0  0
 12 13  1  0  0  0  0
  7 13  1  0  0  0  0
 12 14  1  0  0  0  0
 14 15  2  0  0  0  0
 15 16  1  0  0  0  0
 16 17  2  0  0  0  0
 11 17  1  0  0  0  0
 15 18  1  0  0  0  0
  3 19  1  0  0  0  0
  1 20  1  0  0  0  0
  2 21  1  0  0  0  0
  4 22  1  0  0  0  0
  5 23  1  0  0  0  0
  8 24  1  0  0  0  0
 14 25  1  0  0  0  0
 16 26  1  0  0  0  0
 17 27  1  0  0  0  0
 18 28  1  0  0  0  0
 19 29  1  0  0  0  0
M  END
$$$$
