C11H18O2
APtclcactv06281816483D 0   0.00000     0.00000
 
 31 30  0  0  0  0  0  0  0  0999 V2000
   -3.1160    2.0369   -0.3473 C   0  0  0  0  0  0  0  0  0  0  0  0
   -3.8852    0.7731   -0.0606 C   0  0  0  0  0  0  0  0  0  0  0  0
   -3.3052   -0.3930   -0.2020 C   0  0  0  0  0  0  0  0  0  0  0  0
   -1.8366   -0.4692   -0.5311 C   0  0  0  0  0  0  0  0  0  0  0  0
   -1.1261   -1.3417    0.5056 C   0  0  0  0  0  0  0  0  0  0  0  0
    0.3425   -1.4178    0.1764 C   0  0  0  0  0  0  0  0  0  0  0  0
    1.1858   -0.5957    0.7501 C   0  0  0  0  0  0  0  0  0  0  0  0
    2.6545   -0.6719    0.4209 C   0  0  0  0  0  0  0  0  0  0  0  0
    3.1726    0.6675    0.2068 O   0  0  0  0  0  0  0  0  0  0  0  0
    4.4754    0.7755   -0.0978 C   0  0  0  0  0  0  0  0  0  0  0  0
    4.9633    1.8645   -0.2871 O   0  0  0  0  0  0  0  0  0  0  0  0
    0.8410   -2.4397   -0.8127 C   0  0  0  0  0  0  0  0  0  0  0  0
   -5.3215    0.8507    0.3888 C   0  0  0  0  0  0  0  0  0  0  0  0
   -2.7072    1.9923   -1.3568 H   0  0  0  0  0  0  0  0  0  0  0  0
   -3.7828    2.8950   -0.2630 H   0  0  0  0  0  0  0  0  0  0  0  0
   -2.3018    2.1374    0.3703 H   0  0  0  0  0  0  0  0  0  0  0  0
   -3.8796   -1.2998   -0.0826 H   0  0  0  0  0  0  0  0  0  0  0  0
   -1.7085   -0.9051   -1.5219 H   0  0  0  0  0  0  0  0  0  0  0  0
   -1.4086    0.5332   -0.5171 H   0  0  0  0  0  0  0  0  0  0  0  0
   -1.2543   -0.9058    1.4964 H   0  0  0  0  0  0  0  0  0  0  0  0
   -1.5541   -2.3440    0.4915 H   0  0  0  0  0  0  0  0  0  0  0  0
    0.8286    0.1366    1.4590 H   0  0  0  0  0  0  0  0  0  0  0  0
    3.1884   -1.1401    1.2479 H   0  0  0  0  0  0  0  0  0  0  0  0
    2.7939   -1.2642   -0.4834 H   0  0  0  0  0  0  0  0  0  0  0  0
    5.0875   -0.1110   -0.1737 H   0  0  0  0  0  0  0  0  0  0  0  0
    0.8248   -2.0127   -1.8155 H   0  0  0  0  0  0  0  0  0  0  0  0
    1.8609   -2.7262   -0.5562 H   0  0  0  0  0  0  0  0  0  0  0  0
    0.1979   -3.3192   -0.7818 H   0  0  0  0  0  0  0  0  0  0  0  0
   -5.6277    1.8951    0.4483 H   0  0  0  0  0  0  0  0  0  0  0  0
   -5.9550    0.3266   -0.3268 H   0  0  0  0  0  0  0  0  0  0  0  0
   -5.4208    0.3865    1.3700 H   0  0  0  0  0  0  0  0  0  0  0  0
  1  2  1  0  0  0  0
  2  3  2  0  0  0  0
  3  4  1  0  0  0  0
  4  5  1  0  0  0  0
  5  6  1  0  0  0  0
  6  7  2  0  0  0  0
  7  8  1  0  0  0  0
  8  9  1  0  0  0  0
  9 10  1  0  0  0  0
 10 11  2  0  0  0  0
  6 12  1  0  0  0  0
  2 13  1  0  0  0  0
  1 14  1  0  0  0  0
  1 15  1  0  0  0  0
  1 16  1  0  0  0  0
  3 17  1  0  0  0  0
  4 18  1  0  0  0  0
  4 19  1  0  0  0  0
  5 20  1  0  0  0  0
  5 21  1  0  0  0  0
  7 22  1  0  0  0  0
  8 23  1  0  0  0  0
  8 24  1  0  0  0  0
 10 25  1  0  0  0  0
 12 26  1  0  0  0  0
 12 27  1  0  0  0  0
 12 28  1  0  0  0  0
 13 29  1  0  0  0  0
 13 30  1  0  0  0  0
 13 31  1  0  0  0  0
M  END
$$$$
