C16H30O2
APtclcactv06281816493D 0   0.00000     0.00000
 
 48 47  0  0  0  0  0  0  0  0999 V2000
   10.4192   -0.0186   -0.2841 C   0  0  0  0  0  0  0  0  0  0  0  0
    9.1204    0.7679   -0.0961 C   0  0  0  0  0  0  0  0  0  0  0  0
    7.9282   -0.1865   -0.1890 C   0  0  0  0  0  0  0  0  0  0  0  0
    6.6294    0.6000   -0.0010 C   0  0  0  0  0  0  0  0  0  0  0  0
    5.4372   -0.3544   -0.0938 C   0  0  0  0  0  0  0  0  0  0  0  0
    4.1384    0.4322    0.0942 C   0  0  0  0  0  0  0  0  0  0  0  0
    2.9462   -0.5223    0.0013 C   0  0  0  0  0  0  0  0  0  0  0  0
    1.6474    0.2643    0.1893 C   0  0  0  0  0  0  0  0  0  0  0  0
    0.4552   -0.6901    0.0965 C   0  0  0  0  0  0  0  0  0  0  0  0
   -0.8436    0.0964    0.2845 C   0  0  0  0  0  0  0  0  0  0  0  0
   -2.0359   -0.8580    0.1916 C   0  0  0  0  0  0  0  0  0  0  0  0
   -3.3347   -0.0715    0.3796 C   0  0  0  0  0  0  0  0  0  0  0  0
   -4.5269   -1.0259    0.2868 C   0  0  0  0  0  0  0  0  0  0  0  0
   -5.8062   -0.2511    0.4720 C   0  0  0  0  0  0  0  0  0  0  0  0
   -6.7645   -0.3191   -0.4490 C   0  0  0  0  0  0  0  0  0  0  0  0
   -8.0119    0.4363   -0.2684 C   0  0  0  0  0  0  0  0  0  0  0  0
   -8.1685    1.1232    0.7220 O   0  0  0  0  0  0  0  0  0  0  0  0
   -8.9826    0.3674   -1.2012 O   0  0  0  0  0  0  0  0  0  0  0  0
   10.5001   -0.7778    0.4938 H   0  0  0  0  0  0  0  0  0  0  0  0
   10.4143   -0.4998   -1.2622 H   0  0  0  0  0  0  0  0  0  0  0  0
   11.2686    0.6613   -0.2180 H   0  0  0  0  0  0  0  0  0  0  0  0
    9.1254    1.2490    0.8819 H   0  0  0  0  0  0  0  0  0  0  0  0
    9.0395    1.5271   -0.8741 H   0  0  0  0  0  0  0  0  0  0  0  0
    7.9233   -0.6676   -1.1670 H   0  0  0  0  0  0  0  0  0  0  0  0
    8.0091   -0.9457    0.5890 H   0  0  0  0  0  0  0  0  0  0  0  0
    6.6343    1.0812    0.9771 H   0  0  0  0  0  0  0  0  0  0  0  0
    6.5485    1.3592   -0.7789 H   0  0  0  0  0  0  0  0  0  0  0  0
    5.4323   -0.8355   -1.0719 H   0  0  0  0  0  0  0  0  0  0  0  0
    5.5181   -1.1136    0.6841 H   0  0  0  0  0  0  0  0  0  0  0  0
    4.1433    0.9133    1.0722 H   0  0  0  0  0  0  0  0  0  0  0  0
    4.0575    1.1913   -0.6838 H   0  0  0  0  0  0  0  0  0  0  0  0
    2.9412   -1.0034   -0.9767 H   0  0  0  0  0  0  0  0  0  0  0  0
    3.0271   -1.2814    0.7793 H   0  0  0  0  0  0  0  0  0  0  0  0
    1.6523    0.7454    1.1674 H   0  0  0  0  0  0  0  0  0  0  0  0
    1.5665    1.0235   -0.5886 H   0  0  0  0  0  0  0  0  0  0  0  0
    0.4502   -1.1713   -0.8816 H   0  0  0  0  0  0  0  0  0  0  0  0
    0.5360   -1.4493    0.8744 H   0  0  0  0  0  0  0  0  0  0  0  0
   -0.8387    0.5775    1.2625 H   0  0  0  0  0  0  0  0  0  0  0  0
   -0.9245    0.8556   -0.4935 H   0  0  0  0  0  0  0  0  0  0  0  0
   -2.0408   -1.3391   -0.7864 H   0  0  0  0  0  0  0  0  0  0  0  0
   -1.9550   -1.6172    0.9696 H   0  0  0  0  0  0  0  0  0  0  0  0
   -3.3297    0.4097    1.3577 H   0  0  0  0  0  0  0  0  0  0  0  0
   -3.4155    0.6877   -0.3983 H   0  0  0  0  0  0  0  0  0  0  0  0
   -4.5318   -1.5070   -0.6913 H   0  0  0  0  0  0  0  0  0  0  0  0
   -4.4460   -1.7850    1.0647 H   0  0  0  0  0  0  0  0  0  0  0  0
   -5.9452    0.3592    1.3520 H   0  0  0  0  0  0  0  0  0  0  0  0
   -6.6254   -0.9295   -1.3290 H   0  0  0  0  0  0  0  0  0  0  0  0
   -9.7851    0.8819   -1.0385 H   0  0  0  0  0  0  0  0  0  0  0  0
  1  2  1  0  0  0  0
  2  3  1  0  0  0  0
  3  4  1  0  0  0  0
  4  5  1  0  0  0  0
  5  6  1  0  0  0  0
  6  7  1  0  0  0  0
  7  8  1  0  0  0  0
  8  9  1  0  0  0  0
  9 10  1  0  0  0  0
 10 11  1  0  0  0  0
 11 12  1  0  0  0  0
 12 13  1  0  0  0  0
 13 14  1  0  0  0  0
 14 15  2  0  0  0  0
 15 16  1  0  0  0  0
 16 17  2  0  0  0  0
 16 18  1  0  0  0  0
  1 19  1  0  0  0  0
  1 20  1  0  0  0  0
  1 21  1  0  0  0  0
  2 22  1  0  0  0  0
  2 23  1  0  0  0  0
  3 24  1  0  0  0  0
  3 25  1  0  0  0  0
  4 26  1  0  0  0  0
  4 27  1  0  0  0  0
  5 28  1  0  0  0  0
  5 29  1  0  0  0  0
  6 30  1  0  0  0  0
  6 31  1  0  0  0  0
  7 32  1  0  0  0  0
  7 33  1  0  0  0  0
  8 34  1  0  0  0  0
  8 35  1  0  0  0  0
  9 36  1  0  0  0  0
  9 37  1  0  0  0  0
 10 38  1  0  0  0  0
 10 39  1  0  0  0  0
 11 40  1  0  0  0  0
 11 41  1  0  0  0  0
 12 42  1  0  0  0  0
 12 43  1  0  0  0  0
 13 44  1  0  0  0  0
 13 45  1  0  0  0  0
 14 46  1  0  0  0  0
 15 47  1  0  0  0  0
 18 48  1  0  0  0  0
M  END
$$$$
