C11H12O2
APtclcactv06281816483D 0   0.00000     0.00000
 
 25 25  0  0  0  0  0  0  0  0999 V2000
    4.9646    1.0833   -0.7333 C   0  0  0  0  0  0  0  0  0  0  0  0
    3.9784    0.1201   -0.1245 C   0  0  0  0  0  0  0  0  0  0  0  0
    4.3644   -0.9256    0.3417 O   0  0  0  0  0  0  0  0  0  0  0  0
    2.6712    0.4238   -0.1003 O   0  0  0  0  0  0  0  0  0  0  0  0
    1.7790   -0.5509    0.5015 C   0  0  0  0  0  0  0  0  0  0  0  0
    0.3622   -0.0413    0.4385 C   0  0  0  0  0  0  0  0  0  0  0  0
   -0.6167   -0.8500    0.0573 C   0  0  0  0  0  0  0  0  0  0  0  0
   -2.0064   -0.3501   -0.0046 C   0  0  0  0  0  0  0  0  0  0  0  0
   -3.0390   -1.1987   -0.4054 C   0  0  0  0  0  0  0  0  0  0  0  0
   -4.3340   -0.7260   -0.4611 C   0  0  0  0  0  0  0  0  0  0  0  0
   -4.6097    0.5864   -0.1210 C   0  0  0  0  0  0  0  0  0  0  0  0
   -3.5904    1.4330    0.2768 C   0  0  0  0  0  0  0  0  0  0  0  0
   -2.2921    0.9707    0.3431 C   0  0  0  0  0  0  0  0  0  0  0  0
    5.9698    0.6678   -0.6618 H   0  0  0  0  0  0  0  0  0  0  0  0
    4.7129    1.2473   -1.7811 H   0  0  0  0  0  0  0  0  0  0  0  0
    4.9245    2.0316   -0.1972 H   0  0  0  0  0  0  0  0  0  0  0  0
    1.8507   -1.4932   -0.0417 H   0  0  0  0  0  0  0  0  0  0  0  0
    2.0623   -0.7089    1.5421 H   0  0  0  0  0  0  0  0  0  0  0  0
    0.1443    0.9826    0.7038 H   0  0  0  0  0  0  0  0  0  0  0  0
   -0.3988   -1.8739   -0.2080 H   0  0  0  0  0  0  0  0  0  0  0  0
   -2.8250   -2.2232   -0.6718 H   0  0  0  0  0  0  0  0  0  0  0  0
   -5.1342   -1.3817   -0.7711 H   0  0  0  0  0  0  0  0  0  0  0  0
   -5.6250    0.9517   -0.1666 H   0  0  0  0  0  0  0  0  0  0  0  0
   -3.8121    2.4565    0.5406 H   0  0  0  0  0  0  0  0  0  0  0  0
   -1.4972    1.6324    0.6541 H   0  0  0  0  0  0  0  0  0  0  0  0
  1  2  1  0  0  0  0
  2  3  2  0  0  0  0
  2  4  1  0  0  0  0
  4  5  1  0  0  0  0
  5  6  1  0  0  0  0
  6  7  2  0  0  0  0
  7  8  1  0  0  0  0
  8  9  2  0  0  0  0
  9 10  1  0  0  0  0
 10 11  2  0  0  0  0
 11 12  1  0  0  0  0
 12 13  2  0  0  0  0
  8 13  1  0  0  0  0
  1 14  1  0  0  0  0
  1 15  1  0  0  0  0
  1 16  1  0  0  0  0
  5 17  1  0  0  0  0
  5 18  1  0  0  0  0
  6 19  1  0  0  0  0
  7 20  1  0  0  0  0
  9 21  1  0  0  0  0
 10 22  1  0  0  0  0
 11 23  1  0  0  0  0
 12 24  1  0  0  0  0
 13 25  1  0  0  0  0
M  END
$$$$
