C15H10O6
APtclcactv06281816483D 0   0.00000     0.00000
 
 31 33  0  0  0  0  0  0  0  0999 V2000
    4.0965    0.5955   -1.1527 C   0  0  0  0  0  0  0  0  0  0  0  0
    2.7361    0.4128   -1.2917 C   0  0  0  0  0  0  0  0  0  0  0  0
    2.0068   -0.1912   -0.2699 C   0  0  0  0  0  0  0  0  0  0  0  0
    2.6577   -0.6106    0.8945 C   0  0  0  0  0  0  0  0  0  0  0  0
    4.0231   -0.4234    1.0257 C   0  0  0  0  0  0  0  0  0  0  0  0
    4.7421    0.1787    0.0038 C   0  0  0  0  0  0  0  0  0  0  0  0
    6.0824    0.3618    0.1351 O   0  0  0  0  0  0  0  0  0  0  0  0
    1.9517   -1.2000    1.8949 O   0  0  0  0  0  0  0  0  0  0  0  0
    0.5441   -0.3884   -0.4165 C   0  0  0  0  0  0  0  0  0  0  0  0
    0.0277   -1.6165   -0.6781 C   0  0  0  0  0  0  0  0  0  0  0  0
   -1.2780   -1.8388   -0.8351 O   0  0  0  0  0  0  0  0  0  0  0  0
   -2.1942   -0.9363   -0.4358 C   0  0  0  0  0  0  0  0  0  0  0  0
   -3.5262   -1.3012   -0.2963 C   0  0  0  0  0  0  0  0  0  0  0  0
   -4.4658   -0.3649    0.1047 C   0  0  0  0  0  0  0  0  0  0  0  0
   -4.0933    0.9483    0.3706 C   0  0  0  0  0  0  0  0  0  0  0  0
   -2.7712    1.3327    0.2413 C   0  0  0  0  0  0  0  0  0  0  0  0
   -1.8159    0.3892   -0.1545 C   0  0  0  0  0  0  0  0  0  0  0  0
   -0.3928    0.7440   -0.2761 C   0  0  0  0  0  0  0  0  0  0  0  0
   -0.0106    1.9018   -0.2657 O   0  0  0  0  0  0  0  0  0  0  0  0
   -2.4032    2.6139    0.4956 O   0  0  0  0  0  0  0  0  0  0  0  0
   -5.7652   -0.7338    0.2390 O   0  0  0  0  0  0  0  0  0  0  0  0
    4.6615    1.0598   -1.9474 H   0  0  0  0  0  0  0  0  0  0  0  0
    2.2367    0.7383   -2.1923 H   0  0  0  0  0  0  0  0  0  0  0  0
    4.5285   -0.7463    1.9238 H   0  0  0  0  0  0  0  0  0  0  0  0
    6.6141   -0.3767   -0.1920 H   0  0  0  0  0  0  0  0  0  0  0  0
    1.8907   -2.1621    1.8192 H   0  0  0  0  0  0  0  0  0  0  0  0
    0.7060   -2.4525   -0.7634 H   0  0  0  0  0  0  0  0  0  0  0  0
   -3.8309   -2.3168   -0.5011 H   0  0  0  0  0  0  0  0  0  0  0  0
   -4.8371    1.6685    0.6780 H   0  0  0  0  0  0  0  0  0  0  0  0
   -2.1530    2.7760    1.4155 H   0  0  0  0  0  0  0  0  0  0  0  0
   -5.9938   -1.0540    1.1224 H   0  0  0  0  0  0  0  0  0  0  0  0
  1  2  2  0  0  0  0
  2  3  1  0  0  0  0
  3  4  2  0  0  0  0
  4  5  1  0  0  0  0
  5  6  2  0  0  0  0
  1  6  1  0  0  0  0
  6  7  1  0  0  0  0
  4  8  1  0  0  0  0
  3  9  1  0  0  0  0
  9 10  2  0  0  0  0
 10 11  1  0  0  0  0
 11 12  1  0  0  0  0
 12 13  2  0  0  0  0
 13 14  1  0  0  0  0
 14 15  2  0  0  0  0
 15 16  1  0  0  0  0
 16 17  2  0  0  0  0
 12 17  1  0  0  0  0
 17 18  1  0  0  0  0
  9 18  1  0  0  0  0
 18 19  2  0  0  0  0
 16 20  1  0  0  0  0
 14 21  1  0  0  0  0
  1 22  1  0  0  0  0
  2 23  1  0  0  0  0
  5 24  1  0  0  0  0
  7 25  1  0  0  0  0
  8 26  1  0  0  0  0
 10 27  1  0  0  0  0
 13 28  1  0  0  0  0
 15 29  1  0  0  0  0
 20 30  1  0  0  0  0
 21 31  1  0  0  0  0
M  END
$$$$
