C18H32O2
APtclcactv06281816423D 0   0.00000     0.00000
 
 52 51  0  0  0  0  0  0  0  0999 V2000
    8.8851    3.7787    0.3992 C   0  0  0  0  0  0  0  0  0  0  0  0
    8.1390    2.5289    0.8707 C   0  0  0  0  0  0  0  0  0  0  0  0
    7.4673    1.8538   -0.3268 C   0  0  0  0  0  0  0  0  0  0  0  0
    6.7212    0.6040    0.1447 C   0  0  0  0  0  0  0  0  0  0  0  0
    6.0496   -0.0711   -1.0529 C   0  0  0  0  0  0  0  0  0  0  0  0
    5.3147   -1.3021   -0.5885 C   0  0  0  0  0  0  0  0  0  0  0  0
    4.0403   -1.4442   -0.8564 C   0  0  0  0  0  0  0  0  0  0  0  0
    3.3054   -2.6752   -0.3920 C   0  0  0  0  0  0  0  0  0  0  0  0
    2.1050   -2.2664    0.4221 C   0  0  0  0  0  0  0  0  0  0  0  0
    0.9125   -2.6971    0.0926 C   0  0  0  0  0  0  0  0  0  0  0  0
   -0.2879   -2.2883    0.9068 C   0  0  0  0  0  0  0  0  0  0  0  0
   -1.3326   -1.6493   -0.0103 C   0  0  0  0  0  0  0  0  0  0  0  0
   -2.5513   -1.2342    0.8163 C   0  0  0  0  0  0  0  0  0  0  0  0
   -3.5960   -0.5952   -0.1009 C   0  0  0  0  0  0  0  0  0  0  0  0
   -4.8148   -0.1801    0.7257 C   0  0  0  0  0  0  0  0  0  0  0  0
   -5.8595    0.4589   -0.1914 C   0  0  0  0  0  0  0  0  0  0  0  0
   -7.0782    0.8740    0.6352 C   0  0  0  0  0  0  0  0  0  0  0  0
   -8.1072    1.5034   -0.2682 C   0  0  0  0  0  0  0  0  0  0  0  0
   -7.8882    1.6091   -1.4517 O   0  0  0  0  0  0  0  0  0  0  0  0
   -9.2669    1.9465    0.2420 O   0  0  0  0  0  0  0  0  0  0  0  0
    9.6435    3.4954   -0.3306 H   0  0  0  0  0  0  0  0  0  0  0  0
    8.1798    4.4714   -0.0599 H   0  0  0  0  0  0  0  0  0  0  0  0
    9.3636    4.2597    1.2524 H   0  0  0  0  0  0  0  0  0  0  0  0
    8.8443    1.8363    1.3299 H   0  0  0  0  0  0  0  0  0  0  0  0
    7.3806    2.8122    1.6005 H   0  0  0  0  0  0  0  0  0  0  0  0
    6.7620    2.5465   -0.7860 H   0  0  0  0  0  0  0  0  0  0  0  0
    8.2257    1.5705   -1.0567 H   0  0  0  0  0  0  0  0  0  0  0  0
    7.4265   -0.0886    0.6038 H   0  0  0  0  0  0  0  0  0  0  0  0
    5.9628    0.8873    0.8745 H   0  0  0  0  0  0  0  0  0  0  0  0
    5.3443    0.6216   -1.5120 H   0  0  0  0  0  0  0  0  0  0  0  0
    6.8080   -0.3544   -1.7827 H   0  0  0  0  0  0  0  0  0  0  0  0
    5.8387   -2.0671   -0.0348 H   0  0  0  0  0  0  0  0  0  0  0  0
    3.5163   -0.6792   -1.4101 H   0  0  0  0  0  0  0  0  0  0  0  0
    2.9782   -3.2512   -1.2577 H   0  0  0  0  0  0  0  0  0  0  0  0
    3.9692   -3.2852    0.2205 H   0  0  0  0  0  0  0  0  0  0  0  0
    2.2278   -1.6183    1.2773 H   0  0  0  0  0  0  0  0  0  0  0  0
    0.7897   -3.3452   -0.7625 H   0  0  0  0  0  0  0  0  0  0  0  0
   -0.7164   -3.1670    1.3888 H   0  0  0  0  0  0  0  0  0  0  0  0
    0.0166   -1.5691    1.6672 H   0  0  0  0  0  0  0  0  0  0  0  0
   -0.9041   -0.7705   -0.4923 H   0  0  0  0  0  0  0  0  0  0  0  0
   -1.6371   -2.3685   -0.7707 H   0  0  0  0  0  0  0  0  0  0  0  0
   -2.9799   -2.1129    1.2982 H   0  0  0  0  0  0  0  0  0  0  0  0
   -2.2468   -0.5150    1.5766 H   0  0  0  0  0  0  0  0  0  0  0  0
   -3.1675    0.2836   -0.5828 H   0  0  0  0  0  0  0  0  0  0  0  0
   -3.9005   -1.3144   -0.8612 H   0  0  0  0  0  0  0  0  0  0  0  0
   -5.2433   -1.0589    1.2077 H   0  0  0  0  0  0  0  0  0  0  0  0
   -4.5103    0.5391    1.4861 H   0  0  0  0  0  0  0  0  0  0  0  0
   -5.4309    1.3377   -0.6734 H   0  0  0  0  0  0  0  0  0  0  0  0
   -6.1640   -0.2603   -0.9518 H   0  0  0  0  0  0  0  0  0  0  0  0
   -7.5067   -0.0048    1.1171 H   0  0  0  0  0  0  0  0  0  0  0  0
   -6.7737    1.5932    1.3955 H   0  0  0  0  0  0  0  0  0  0  0  0
   -9.8958    2.3428   -0.3766 H   0  0  0  0  0  0  0  0  0  0  0  0
  1  2  1  0  0  0  0
  2  3  1  0  0  0  0
  3  4  1  0  0  0  0
  4  5  1  0  0  0  0
  5  6  1  0  0  0  0
  6  7  2  0  0  0  0
  7  8  1  0  0  0  0
  8  9  1  0  0  0  0
  9 10  2  0  0  0  0
 10 11  1  0  0  0  0
 11 12  1  0  0  0  0
 12 13  1  0  0  0  0
 13 14  1  0  0  0  0
 14 15  1  0  0  0  0
 15 16  1  0  0  0  0
 16 17  1  0  0  0  0
 17 18  1  0  0  0  0
 18 19  2  0  0  0  0
 18 20  1  0  0  0  0
  1 21  1  0  0  0  0
  1 22  1  0  0  0  0
  1 23  1  0  0  0  0
  2 24  1  0  0  0  0
  2 25  1  0  0  0  0
  3 26  1  0  0  0  0
  3 27  1  0  0  0  0
  4 28  1  0  0  0  0
  4 29  1  0  0  0  0
  5 30  1  0  0  0  0
  5 31  1  0  0  0  0
  6 32  1  0  0  0  0
  7 33  1  0  0  0  0
  8 34  1  0  0  0  0
  8 35  1  0  0  0  0
  9 36  1  0  0  0  0
 10 37  1  0  0  0  0
 11 38  1  0  0  0  0
 11 39  1  0  0  0  0
 12 40  1  0  0  0  0
 12 41  1  0  0  0  0
 13 42  1  0  0  0  0
 13 43  1  0  0  0  0
 14 44  1  0  0  0  0
 14 45  1  0  0  0  0
 15 46  1  0  0  0  0
 15 47  1  0  0  0  0
 16 48  1  0  0  0  0
 16 49  1  0  0  0  0
 17 50  1  0  0  0  0
 17 51  1  0  0  0  0
 20 52  1  0  0  0  0
M  END
$$$$
