C22H44O2
APtclcactv06281816483D 0   0.00000     0.00000
 
 68 67  0  0  0  0  0  0  0  0999 V2000
   12.0278   -1.2507   -0.9032 C   0  0  0  0  0  0  0  0  0  0  0  0
   11.9362   -0.1995    0.2047 C   0  0  0  0  0  0  0  0  0  0  0  0
   13.1635    0.7122    0.1455 C   0  0  0  0  0  0  0  0  0  0  0  0
   10.6698    0.6368    0.0107 C   0  0  0  0  0  0  0  0  0  0  0  0
    9.4383   -0.2525    0.1937 C   0  0  0  0  0  0  0  0  0  0  0  0
    8.1719    0.5839   -0.0003 C   0  0  0  0  0  0  0  0  0  0  0  0
    6.9404   -0.3055    0.1827 C   0  0  0  0  0  0  0  0  0  0  0  0
    5.6740    0.5309   -0.0113 C   0  0  0  0  0  0  0  0  0  0  0  0
    4.4425   -0.3584    0.1717 C   0  0  0  0  0  0  0  0  0  0  0  0
    3.1761    0.4779   -0.0222 C   0  0  0  0  0  0  0  0  0  0  0  0
    1.9446   -0.4114    0.1607 C   0  0  0  0  0  0  0  0  0  0  0  0
    0.6782    0.4249   -0.0332 C   0  0  0  0  0  0  0  0  0  0  0  0
   -0.5533   -0.4644    0.1498 C   0  0  0  0  0  0  0  0  0  0  0  0
   -1.8197    0.3719   -0.0442 C   0  0  0  0  0  0  0  0  0  0  0  0
   -3.0512   -0.5174    0.1388 C   0  0  0  0  0  0  0  0  0  0  0  0
   -4.3176    0.3189   -0.0552 C   0  0  0  0  0  0  0  0  0  0  0  0
   -5.5491   -0.5704    0.1278 C   0  0  0  0  0  0  0  0  0  0  0  0
   -6.8155    0.2660   -0.0662 C   0  0  0  0  0  0  0  0  0  0  0  0
   -8.0470   -0.6234    0.1168 C   0  0  0  0  0  0  0  0  0  0  0  0
   -9.3134    0.2130   -0.0772 C   0  0  0  0  0  0  0  0  0  0  0  0
  -10.5449   -0.6763    0.1058 C   0  0  0  0  0  0  0  0  0  0  0  0
  -11.7922    0.1474   -0.0852 C   0  0  0  0  0  0  0  0  0  0  0  0
  -11.7052    1.3250   -0.3415 O   0  0  0  0  0  0  0  0  0  0  0  0
  -13.0000   -0.4270    0.0292 O   0  0  0  0  0  0  0  0  0  0  0  0
   12.9300   -1.8465   -0.7651 H   0  0  0  0  0  0  0  0  0  0  0  0
   11.1535   -1.9002   -0.8611 H   0  0  0  0  0  0  0  0  0  0  0  0
   12.0652   -0.7543   -1.8729 H   0  0  0  0  0  0  0  0  0  0  0  0
   11.8988   -0.6959    1.1743 H   0  0  0  0  0  0  0  0  0  0  0  0
   13.2009    1.2086   -0.8242 H   0  0  0  0  0  0  0  0  0  0  0  0
   13.0982    1.4611    0.9348 H   0  0  0  0  0  0  0  0  0  0  0  0
   14.0657    0.1164    0.2837 H   0  0  0  0  0  0  0  0  0  0  0  0
   10.6495    1.4413    0.7459 H   0  0  0  0  0  0  0  0  0  0  0  0
   10.6652    1.0618   -0.9930 H   0  0  0  0  0  0  0  0  0  0  0  0
    9.4586   -1.0569   -0.5415 H   0  0  0  0  0  0  0  0  0  0  0  0
    9.4429   -0.6774    1.1974 H   0  0  0  0  0  0  0  0  0  0  0  0
    8.1516    1.3883    0.7349 H   0  0  0  0  0  0  0  0  0  0  0  0
    8.1673    1.0088   -1.0040 H   0  0  0  0  0  0  0  0  0  0  0  0
    6.9607   -1.1099   -0.5525 H   0  0  0  0  0  0  0  0  0  0  0  0
    6.9450   -0.7304    1.1865 H   0  0  0  0  0  0  0  0  0  0  0  0
    5.6537    1.3353    0.7240 H   0  0  0  0  0  0  0  0  0  0  0  0
    5.6694    0.9558   -1.0150 H   0  0  0  0  0  0  0  0  0  0  0  0
    4.4628   -1.1629   -0.5635 H   0  0  0  0  0  0  0  0  0  0  0  0
    4.4471   -0.7834    1.1755 H   0  0  0  0  0  0  0  0  0  0  0  0
    3.1558    1.2823    0.7130 H   0  0  0  0  0  0  0  0  0  0  0  0
    3.1715    0.9028   -1.0260 H   0  0  0  0  0  0  0  0  0  0  0  0
    1.9649   -1.2159   -0.5745 H   0  0  0  0  0  0  0  0  0  0  0  0
    1.9492   -0.8364    1.1645 H   0  0  0  0  0  0  0  0  0  0  0  0
    0.6579    1.2294    0.7020 H   0  0  0  0  0  0  0  0  0  0  0  0
    0.6736    0.8498   -1.0370 H   0  0  0  0  0  0  0  0  0  0  0  0
   -0.5330   -1.2689   -0.5855 H   0  0  0  0  0  0  0  0  0  0  0  0
   -0.5487   -0.8893    1.1535 H   0  0  0  0  0  0  0  0  0  0  0  0
   -1.8400    1.1764    0.6910 H   0  0  0  0  0  0  0  0  0  0  0  0
   -1.8243    0.7969   -1.0480 H   0  0  0  0  0  0  0  0  0  0  0  0
   -3.0309   -1.3219   -0.5964 H   0  0  0  0  0  0  0  0  0  0  0  0
   -3.0466   -0.9423    1.1425 H   0  0  0  0  0  0  0  0  0  0  0  0
   -4.3379    1.1234    0.6800 H   0  0  0  0  0  0  0  0  0  0  0  0
   -4.3222    0.7439   -1.0589 H   0  0  0  0  0  0  0  0  0  0  0  0
   -5.5288   -1.3748   -0.6074 H   0  0  0  0  0  0  0  0  0  0  0  0
   -5.5445   -0.9953    1.1315 H   0  0  0  0  0  0  0  0  0  0  0  0
   -6.8358    1.0704    0.6690 H   0  0  0  0  0  0  0  0  0  0  0  0
   -6.8201    0.6909   -1.0699 H   0  0  0  0  0  0  0  0  0  0  0  0
   -8.0267   -1.4278   -0.6184 H   0  0  0  0  0  0  0  0  0  0  0  0
   -8.0424   -1.0483    1.1205 H   0  0  0  0  0  0  0  0  0  0  0  0
   -9.3337    1.0174    0.6580 H   0  0  0  0  0  0  0  0  0  0  0  0
   -9.3180    0.6379   -1.0809 H   0  0  0  0  0  0  0  0  0  0  0  0
  -10.5246   -1.4808   -0.6294 H   0  0  0  0  0  0  0  0  0  0  0  0
  -10.5403   -1.1013    1.1096 H   0  0  0  0  0  0  0  0  0  0  0  0
  -13.7709    0.1418   -0.1019 H   0  0  0  0  0  0  0  0  0  0  0  0
  1  2  1  0  0  0  0
  2  3  1  0  0  0  0
  2  4  1  0  0  0  0
  4  5  1  0  0  0  0
  5  6  1  0  0  0  0
  6  7  1  0  0  0  0
  7  8  1  0  0  0  0
  8  9  1  0  0  0  0
  9 10  1  0  0  0  0
 10 11  1  0  0  0  0
 11 12  1  0  0  0  0
 12 13  1  0  0  0  0
 13 14  1  0  0  0  0
 14 15  1  0  0  0  0
 15 16  1  0  0  0  0
 16 17  1  0  0  0  0
 17 18  1  0  0  0  0
 18 19  1  0  0  0  0
 19 20  1  0  0  0  0
 20 21  1  0  0  0  0
 21 22  1  0  0  0  0
 22 23  2  0  0  0  0
 22 24  1  0  0  0  0
  1 25  1  0  0  0  0
  1 26  1  0  0  0  0
  1 27  1  0  0  0  0
  2 28  1  0  0  0  0
  3 29  1  0  0  0  0
  3 30  1  0  0  0  0
  3 31  1  0  0  0  0
  4 32  1  0  0  0  0
  4 33  1  0  0  0  0
  5 34  1  0  0  0  0
  5 35  1  0  0  0  0
  6 36  1  0  0  0  0
  6 37  1  0  0  0  0
  7 38  1  0  0  0  0
  7 39  1  0  0  0  0
  8 40  1  0  0  0  0
  8 41  1  0  0  0  0
  9 42  1  0  0  0  0
  9 43  1  0  0  0  0
 10 44  1  0  0  0  0
 10 45  1  0  0  0  0
 11 46  1  0  0  0  0
 11 47  1  0  0  0  0
 12 48  1  0  0  0  0
 12 49  1  0  0  0  0
 13 50  1  0  0  0  0
 13 51  1  0  0  0  0
 14 52  1  0  0  0  0
 14 53  1  0  0  0  0
 15 54  1  0  0  0  0
 15 55  1  0  0  0  0
 16 56  1  0  0  0  0
 16 57  1  0  0  0  0
 17 58  1  0  0  0  0
 17 59  1  0  0  0  0
 18 60  1  0  0  0  0
 18 61  1  0  0  0  0
 19 62  1  0  0  0  0
 19 63  1  0  0  0  0
 20 64  1  0  0  0  0
 20 65  1  0  0  0  0
 21 66  1  0  0  0  0
 21 67  1  0  0  0  0
 24 68  1  0  0  0  0
M  END
$$$$
