C18H36O5
APtclcactv06281816493D 0   0.00000     0.00000
 
 59 58  0  0  0  0  0  0  0  0999 V2000
   -6.0686   -0.3962   -0.1779 C   0  0  0  0  0  0  0  0  0  0  0  0
   -7.3045    0.4207    0.2040 C   0  0  0  0  0  0  0  0  0  0  0  0
   -8.5667   -0.3533   -0.1817 C   0  0  0  0  0  0  0  0  0  0  0  0
   -9.8027    0.4636    0.2002 C   0  0  0  0  0  0  0  0  0  0  0  0
  -11.0648   -0.3104   -0.1856 C   0  0  0  0  0  0  0  0  0  0  0  0
  -12.2192    0.4526    0.1712 O   0  0  0  0  0  0  0  0  0  0  0  0
   -4.8064    0.3778    0.2078 C   0  0  0  0  0  0  0  0  0  0  0  0
   -3.5705   -0.4391   -0.1741 C   0  0  0  0  0  0  0  0  0  0  0  0
   -2.3083    0.3349    0.2116 C   0  0  0  0  0  0  0  0  0  0  0  0
   -1.0724   -0.4820   -0.1703 C   0  0  0  0  0  0  0  0  0  0  0  0
    0.1877    0.3426    0.1003 C   0  0  0  0  0  0  0  0  0  0  0  0
    1.4236   -0.4743   -0.2817 C   0  0  0  0  0  0  0  0  0  0  0  0
    2.6858    0.2997    0.1041 C   0  0  0  0  0  0  0  0  0  0  0  0
    3.9217   -0.5172   -0.2779 C   0  0  0  0  0  0  0  0  0  0  0  0
    5.1839    0.2568    0.1079 C   0  0  0  0  0  0  0  0  0  0  0  0
    6.4198   -0.5602   -0.2741 C   0  0  0  0  0  0  0  0  0  0  0  0
    7.6820    0.2139    0.1117 C   0  0  0  0  0  0  0  0  0  0  0  0
    8.9179   -0.6031   -0.2703 C   0  0  0  0  0  0  0  0  0  0  0  0
   10.1611    0.1593    0.1097 C   0  0  0  0  0  0  0  0  0  0  0  0
   10.0681    1.2447    0.6323 O   0  0  0  0  0  0  0  0  0  0  0  0
   11.3717   -0.3674   -0.1325 O   0  0  0  0  0  0  0  0  0  0  0  0
    0.1492    1.5405   -0.6780 O   0  0  0  0  0  0  0  0  0  0  0  0
   -1.0339   -1.6799    0.6080 O   0  0  0  0  0  0  0  0  0  0  0  0
   -6.0858   -1.3496    0.3501 H   0  0  0  0  0  0  0  0  0  0  0  0
   -6.0700   -0.5763   -1.2530 H   0  0  0  0  0  0  0  0  0  0  0  0
   -7.3031    0.6008    1.2790 H   0  0  0  0  0  0  0  0  0  0  0  0
   -7.2874    1.3741   -0.3241 H   0  0  0  0  0  0  0  0  0  0  0  0
   -8.5681   -0.5333   -1.2568 H   0  0  0  0  0  0  0  0  0  0  0  0
   -8.5839   -1.3067    0.3463 H   0  0  0  0  0  0  0  0  0  0  0  0
   -9.8012    0.6437    1.2752 H   0  0  0  0  0  0  0  0  0  0  0  0
   -9.7855    1.4170   -0.3279 H   0  0  0  0  0  0  0  0  0  0  0  0
  -11.0662   -0.4904   -1.2606 H   0  0  0  0  0  0  0  0  0  0  0  0
  -11.0820   -1.2638    0.3425 H   0  0  0  0  0  0  0  0  0  0  0  0
  -13.0575    0.0219   -0.0448 H   0  0  0  0  0  0  0  0  0  0  0  0
   -4.7893    1.3312   -0.3203 H   0  0  0  0  0  0  0  0  0  0  0  0
   -4.8050    0.5578    1.2828 H   0  0  0  0  0  0  0  0  0  0  0  0
   -3.5877   -1.3925    0.3540 H   0  0  0  0  0  0  0  0  0  0  0  0
   -3.5719   -0.6192   -1.2492 H   0  0  0  0  0  0  0  0  0  0  0  0
   -2.2911    1.2883   -0.3165 H   0  0  0  0  0  0  0  0  0  0  0  0
   -2.3069    0.5149    1.2867 H   0  0  0  0  0  0  0  0  0  0  0  0
   -1.1188   -0.7379   -1.2289 H   0  0  0  0  0  0  0  0  0  0  0  0
    0.2341    0.5984    1.1588 H   0  0  0  0  0  0  0  0  0  0  0  0
    1.4064   -1.4277    0.2464 H   0  0  0  0  0  0  0  0  0  0  0  0
    1.4222   -0.6544   -1.3567 H   0  0  0  0  0  0  0  0  0  0  0  0
    2.7029    1.2531   -0.4240 H   0  0  0  0  0  0  0  0  0  0  0  0
    2.6872    0.4797    1.1791 H   0  0  0  0  0  0  0  0  0  0  0  0
    3.9045   -1.4706    0.2502 H   0  0  0  0  0  0  0  0  0  0  0  0
    3.9203   -0.6973   -1.3529 H   0  0  0  0  0  0  0  0  0  0  0  0
    5.2011    1.2101   -0.4202 H   0  0  0  0  0  0  0  0  0  0  0  0
    5.1853    0.4368    1.1829 H   0  0  0  0  0  0  0  0  0  0  0  0
    6.4027   -1.5135    0.2540 H   0  0  0  0  0  0  0  0  0  0  0  0
    6.4184   -0.7402   -1.3491 H   0  0  0  0  0  0  0  0  0  0  0  0
    7.6992    1.1672   -0.4164 H   0  0  0  0  0  0  0  0  0  0  0  0
    7.6834    0.3939    1.1867 H   0  0  0  0  0  0  0  0  0  0  0  0
    8.9008   -1.5565    0.2578 H   0  0  0  0  0  0  0  0  0  0  0  0
    8.9165   -0.7831   -1.3453 H   0  0  0  0  0  0  0  0  0  0  0  0
   12.1397    0.1588    0.1289 H   0  0  0  0  0  0  0  0  0  0  0  0
    0.1071    1.3884   -1.6321 H   0  0  0  0  0  0  0  0  0  0  0  0
   -0.9918   -1.5279    1.5620 H   0  0  0  0  0  0  0  0  0  0  0  0
  1  2  1  0  0  0  0
  2  3  1  0  0  0  0
  3  4  1  0  0  0  0
  4  5  1  0  0  0  0
  5  6  1  0  0  0  0
  1  7  1  0  0  0  0
  7  8  1  0  0  0  0
  8  9  1  0  0  0  0
  9 10  1  0  0  0  0
 10 11  1  0  0  0  0
 11 12  1  0  0  0  0
 12 13  1  0  0  0  0
 13 14  1  0  0  0  0
 14 15  1  0  0  0  0
 15 16  1  0  0  0  0
 16 17  1  0  0  0  0
 17 18  1  0  0  0  0
 18 19  1  0  0  0  0
 19 20  2  0  0  0  0
 19 21  1  0  0  0  0
 11 22  1  0  0  0  0
 10 23  1  0  0  0  0
  1 24  1  0  0  0  0
  1 25  1  0  0  0  0
  2 26  1  0  0  0  0
  2 27  1  0  0  0  0
  3 28  1  0  0  0  0
  3 29  1  0  0  0  0
  4 30  1  0  0  0  0
  4 31  1  0  0  0  0
  5 32  1  0  0  0  0
  5 33  1  0  0  0  0
  6 34  1  0  0  0  0
  7 35  1  0  0  0  0
  7 36  1  0  0  0  0
  8 37  1  0  0  0  0
  8 38  1  0  0  0  0
  9 39  1  0  0  0  0
  9 40  1  0  0  0  0
 10 41  1  0  0  0  0
 11 42  1  0  0  0  0
 12 43  1  0  0  0  0
 12 44  1  0  0  0  0
 13 45  1  0  0  0  0
 13 46  1  0  0  0  0
 14 47  1  0  0  0  0
 14 48  1  0  0  0  0
 15 49  1  0  0  0  0
 15 50  1  0  0  0  0
 16 51  1  0  0  0  0
 16 52  1  0  0  0  0
 17 53  1  0  0  0  0
 17 54  1  0  0  0  0
 18 55  1  0  0  0  0
 18 56  1  0  0  0  0
 21 57  1  0  0  0  0
 22 58  1  0  0  0  0
 23 59  1  0  0  0  0
M  END
$$$$
