C18H34O2
APtclcactv06281816493D 0   0.00000     0.00000
 
 54 53  0  0  0  0  0  0  0  0999 V2000
   -9.8969    3.2270   -0.3297 C   0  0  0  0  0  0  0  0  0  0  0  0
   -9.3949    1.9149    0.2765 C   0  0  0  0  0  0  0  0  0  0  0  0
   -8.0332    1.5630   -0.3258 C   0  0  0  0  0  0  0  0  0  0  0  0
   -7.5312    0.2509    0.2804 C   0  0  0  0  0  0  0  0  0  0  0  0
   -6.1695   -0.1011   -0.3219 C   0  0  0  0  0  0  0  0  0  0  0  0
   -5.6675   -1.4131    0.2844 C   0  0  0  0  0  0  0  0  0  0  0  0
   -4.3262   -1.7598   -0.3089 C   0  0  0  0  0  0  0  0  0  0  0  0
   -3.2990   -1.9745    0.4752 C   0  0  0  0  0  0  0  0  0  0  0  0
   -1.9578   -2.3212   -0.1181 C   0  0  0  0  0  0  0  0  0  0  0  0
   -0.9039   -1.3372    0.3939 C   0  0  0  0  0  0  0  0  0  0  0  0
    0.4578   -1.6892   -0.2084 C   0  0  0  0  0  0  0  0  0  0  0  0
    1.5116   -0.7052    0.3035 C   0  0  0  0  0  0  0  0  0  0  0  0
    2.8733   -1.0572   -0.2988 C   0  0  0  0  0  0  0  0  0  0  0  0
    3.9272   -0.0732    0.2132 C   0  0  0  0  0  0  0  0  0  0  0  0
    5.2889   -0.4252   -0.3891 C   0  0  0  0  0  0  0  0  0  0  0  0
    6.3427    0.5588    0.1228 C   0  0  0  0  0  0  0  0  0  0  0  0
    7.7044    0.2068   -0.4795 C   0  0  0  0  0  0  0  0  0  0  0  0
    8.7424    1.1760    0.0248 C   0  0  0  0  0  0  0  0  0  0  0  0
    8.4256    2.0577    0.7876 O   0  0  0  0  0  0  0  0  0  0  0  0
   10.0189    1.0596   -0.3735 O   0  0  0  0  0  0  0  0  0  0  0  0
   -9.1860    4.0237   -0.1110 H   0  0  0  0  0  0  0  0  0  0  0  0
   -9.9954    3.1141   -1.4094 H   0  0  0  0  0  0  0  0  0  0  0  0
  -10.8670    3.4777    0.0994 H   0  0  0  0  0  0  0  0  0  0  0  0
   -9.2964    2.0278    1.3562 H   0  0  0  0  0  0  0  0  0  0  0  0
  -10.1059    1.1182    0.0578 H   0  0  0  0  0  0  0  0  0  0  0  0
   -8.1317    1.4501   -1.4054 H   0  0  0  0  0  0  0  0  0  0  0  0
   -7.3223    2.3597   -0.1071 H   0  0  0  0  0  0  0  0  0  0  0  0
   -7.4327    0.3638    1.3601 H   0  0  0  0  0  0  0  0  0  0  0  0
   -8.2421   -0.5458    0.0618 H   0  0  0  0  0  0  0  0  0  0  0  0
   -6.2680   -0.2139   -1.4015 H   0  0  0  0  0  0  0  0  0  0  0  0
   -5.4586    0.6957   -0.1032 H   0  0  0  0  0  0  0  0  0  0  0  0
   -5.5690   -1.3002    1.3640 H   0  0  0  0  0  0  0  0  0  0  0  0
   -6.3784   -2.2098    0.0657 H   0  0  0  0  0  0  0  0  0  0  0  0
   -4.2119   -1.8312   -1.3804 H   0  0  0  0  0  0  0  0  0  0  0  0
   -3.4133   -1.9030    1.5467 H   0  0  0  0  0  0  0  0  0  0  0  0
   -1.6818   -3.3341    0.1749 H   0  0  0  0  0  0  0  0  0  0  0  0
   -2.0144   -2.2600   -1.2049 H   0  0  0  0  0  0  0  0  0  0  0  0
   -1.1799   -0.3242    0.1009 H   0  0  0  0  0  0  0  0  0  0  0  0
   -0.8473   -1.3984    1.4807 H   0  0  0  0  0  0  0  0  0  0  0  0
    0.7338   -2.7021    0.0846 H   0  0  0  0  0  0  0  0  0  0  0  0
    0.4011   -1.6280   -1.2952 H   0  0  0  0  0  0  0  0  0  0  0  0
    1.2356    0.3078    0.0105 H   0  0  0  0  0  0  0  0  0  0  0  0
    1.5683   -0.7664    1.3903 H   0  0  0  0  0  0  0  0  0  0  0  0
    3.1493   -2.0702   -0.0058 H   0  0  0  0  0  0  0  0  0  0  0  0
    2.8167   -0.9960   -1.3856 H   0  0  0  0  0  0  0  0  0  0  0  0
    3.6512    0.9397   -0.0798 H   0  0  0  0  0  0  0  0  0  0  0  0
    3.9838   -0.1344    1.3000 H   0  0  0  0  0  0  0  0  0  0  0  0
    5.5648   -1.4382   -0.0961 H   0  0  0  0  0  0  0  0  0  0  0  0
    5.2322   -0.3640   -1.4759 H   0  0  0  0  0  0  0  0  0  0  0  0
    6.0667    1.5717   -0.1701 H   0  0  0  0  0  0  0  0  0  0  0  0
    6.3994    0.4976    1.2096 H   0  0  0  0  0  0  0  0  0  0  0  0
    7.9804   -0.8062   -0.1865 H   0  0  0  0  0  0  0  0  0  0  0  0
    7.6477    0.2680   -1.5663 H   0  0  0  0  0  0  0  0  0  0  0  0
   10.6486    1.7045   -0.0233 H   0  0  0  0  0  0  0  0  0  0  0  0
  1  2  1  0  0  0  0
  2  3  1  0  0  0  0
  3  4  1  0  0  0  0
  4  5  1  0  0  0  0
  5  6  1  0  0  0  0
  6  7  1  0  0  0  0
  7  8  2  0  0  0  0
  8  9  1  0  0  0  0
  9 10  1  0  0  0  0
 10 11  1  0  0  0  0
 11 12  1  0  0  0  0
 12 13  1  0  0  0  0
 13 14  1  0  0  0  0
 14 15  1  0  0  0  0
 15 16  1  0  0  0  0
 16 17  1  0  0  0  0
 17 18  1  0  0  0  0
 18 19  2  0  0  0  0
 18 20  1  0  0  0  0
  1 21  1  0  0  0  0
  1 22  1  0  0  0  0
  1 23  1  0  0  0  0
  2 24  1  0  0  0  0
  2 25  1  0  0  0  0
  3 26  1  0  0  0  0
  3 27  1  0  0  0  0
  4 28  1  0  0  0  0
  4 29  1  0  0  0  0
  5 30  1  0  0  0  0
  5 31  1  0  0  0  0
  6 32  1  0  0  0  0
  6 33  1  0  0  0  0
  7 34  1  0  0  0  0
  8 35  1  0  0  0  0
  9 36  1  0  0  0  0
  9 37  1  0  0  0  0
 10 38  1  0  0  0  0
 10 39  1  0  0  0  0
 11 40  1  0  0  0  0
 11 41  1  0  0  0  0
 12 42  1  0  0  0  0
 12 43  1  0  0  0  0
 13 44  1  0  0  0  0
 13 45  1  0  0  0  0
 14 46  1  0  0  0  0
 14 47  1  0  0  0  0
 15 48  1  0  0  0  0
 15 49  1  0  0  0  0
 16 50  1  0  0  0  0
 16 51  1  0  0  0  0
 17 52  1  0  0  0  0
 17 53  1  0  0  0  0
 20 54  1  0  0  0  0
M  END
$$$$
