C9H8O4
APtclcactv06281816483D 0   0.00000     0.00000
 
 21 21  0  0  0  0  0  0  0  0999 V2000
    1.8428   -2.0895    0.0096 C   0  0  0  0  0  0  0  0  0  0  0  0
    0.5654   -1.5753    0.0081 C   0  0  0  0  0  0  0  0  0  0  0  0
    0.3693   -0.1887   -0.0084 C   0  0  0  0  0  0  0  0  0  0  0  0
    1.4795    0.6681   -0.0234 C   0  0  0  0  0  0  0  0  0  0  0  0
    2.7626    0.1315   -0.0217 C   0  0  0  0  0  0  0  0  0  0  0  0
    2.9391   -1.2421   -0.0053 C   0  0  0  0  0  0  0  0  0  0  0  0
    3.8443    0.9557   -0.0366 O   0  0  0  0  0  0  0  0  0  0  0  0
    1.3027    2.0142   -0.0399 O   0  0  0  0  0  0  0  0  0  0  0  0
   -0.9914    0.3650   -0.0105 C   0  0  0  0  0  0  0  0  0  0  0  0
   -2.0581   -0.4640    0.0035 C   0  0  0  0  0  0  0  0  0  0  0  0
   -3.3712    0.0704    0.0014 C   0  0  0  0  0  0  0  0  0  0  0  0
   -3.5375    1.2754   -0.0129 O   0  0  0  0  0  0  0  0  0  0  0  0
   -4.4366   -0.7575    0.0154 O   0  0  0  0  0  0  0  0  0  0  0  0
    1.9910   -3.1592    0.0269 H   0  0  0  0  0  0  0  0  0  0  0  0
   -0.2850   -2.2410    0.0194 H   0  0  0  0  0  0  0  0  0  0  0  0
    3.9370   -1.6552   -0.0040 H   0  0  0  0  0  0  0  0  0  0  0  0
    4.1607    1.2054    0.8424 H   0  0  0  0  0  0  0  0  0  0  0  0
    1.2547    2.4154    0.8386 H   0  0  0  0  0  0  0  0  0  0  0  0
   -1.1390    1.4348   -0.0233 H   0  0  0  0  0  0  0  0  0  0  0  0
   -1.9105   -1.5338    0.0163 H   0  0  0  0  0  0  0  0  0  0  0  0
   -5.2892   -0.3014    0.0128 H   0  0  0  0  0  0  0  0  0  0  0  0
  1  2  2  0  0  0  0
  2  3  1  0  0  0  0
  3  4  2  0  0  0  0
  4  5  1  0  0  0  0
  5  6  2  0  0  0  0
  1  6  1  0  0  0  0
  5  7  1  0  0  0  0
  4  8  1  0  0  0  0
  3  9  1  0  0  0  0
  9 10  2  0  0  0  0
 10 11  1  0  0  0  0
 11 12  2  0  0  0  0
 11 13  1  0  0  0  0
  1 14  1  0  0  0  0
  2 15  1  0  0  0  0
  6 16  1  0  0  0  0
  7 17  1  0  0  0  0
  8 18  1  0  0  0  0
  9 19  1  0  0  0  0
 10 20  1  0  0  0  0
 13 21  1  0  0  0  0
M  END
$$$$
