C13H10O4
APtclcactv06281816483D 0   0.00000     0.00000
 
 27 28  0  0  0  0  0  0  0  0999 V2000
   -2.5926   -1.0311   -0.0103 C   0  0  0  0  0  0  0  0  0  0  0  0
   -3.9546   -1.2345   -0.0134 C   0  0  0  0  0  0  0  0  0  0  0  0
   -4.8217   -0.1485   -0.0133 C   0  0  0  0  0  0  0  0  0  0  0  0
   -4.3199    1.1475   -0.0101 C   0  0  0  0  0  0  0  0  0  0  0  0
   -2.9595    1.3616   -0.0075 C   0  0  0  0  0  0  0  0  0  0  0  0
   -2.0822    0.2716   -0.0071 C   0  0  0  0  0  0  0  0  0  0  0  0
   -0.6283    0.4946   -0.0038 C   0  0  0  0  0  0  0  0  0  0  0  0
    0.2153   -0.5578   -0.0034 C   0  0  0  0  0  0  0  0  0  0  0  0
    1.6618   -0.3360   -0.0002 C   0  0  0  0  0  0  0  0  0  0  0  0
    2.5102   -1.4071    0.0002 C   0  0  0  0  0  0  0  0  0  0  0  0
    3.9053   -1.1762    0.0029 C   0  0  0  0  0  0  0  0  0  0  0  0
    4.6947   -2.1103    0.0029 O   0  0  0  0  0  0  0  0  0  0  0  0
    4.3654    0.1606    0.0052 C   0  0  0  0  0  0  0  0  0  0  0  0
    3.4609    1.1732    0.0046 C   0  0  0  0  0  0  0  0  0  0  0  0
    2.1431    0.9214   -0.0031 O   0  0  0  0  0  0  0  0  0  0  0  0
    3.8941    2.4530    0.0068 O   0  0  0  0  0  0  0  0  0  0  0  0
   -6.1639   -0.3543   -0.0168 O   0  0  0  0  0  0  0  0  0  0  0  0
   -1.9196   -1.8758   -0.0059 H   0  0  0  0  0  0  0  0  0  0  0  0
   -4.3496   -2.2397   -0.0163 H   0  0  0  0  0  0  0  0  0  0  0  0
   -4.9979    1.9882   -0.0101 H   0  0  0  0  0  0  0  0  0  0  0  0
   -2.5705    2.3691   -0.0057 H   0  0  0  0  0  0  0  0  0  0  0  0
   -0.2363    1.5009   -0.0017 H   0  0  0  0  0  0  0  0  0  0  0  0
   -0.1767   -1.5641   -0.0056 H   0  0  0  0  0  0  0  0  0  0  0  0
    2.1213   -2.4146   -0.0012 H   0  0  0  0  0  0  0  0  0  0  0  0
    5.4242    0.3739    0.0076 H   0  0  0  0  0  0  0  0  0  0  0  0
    3.1835    3.1088    0.0062 H   0  0  0  0  0  0  0  0  0  0  0  0
   -6.5547   -0.4156    0.8656 H   0  0  0  0  0  0  0  0  0  0  0  0
  1  2  2  0  0  0  0
  2  3  1  0  0  0  0
  3  4  2  0  0  0  0
  4  5  1  0  0  0  0
  5  6  2  0  0  0  0
  1  6  1  0  0  0  0
  6  7  1  0  0  0  0
  7  8  2  0  0  0  0
  8  9  1  0  0  0  0
  9 10  2  0  0  0  0
 10 11  1  0  0  0  0
 11 12  2  0  0  0  0
 11 13  1  0  0  0  0
 13 14  2  0  0  0  0
 14 15  1  0  0  0  0
  9 15  1  0  0  0  0
 14 16  1  0  0  0  0
  3 17  1  0  0  0  0
  1 18  1  0  0  0  0
  2 19  1  0  0  0  0
  4 20  1  0  0  0  0
  5 21  1  0  0  0  0
  7 22  1  0  0  0  0
  8 23  1  0  0  0  0
 10 24  1  0  0  0  0
 13 25  1  0  0  0  0
 16 26  1  0  0  0  0
 17 27  1  0  0  0  0
M  END
$$$$
