C18H34O3
APtclcactv06281816503D 0   0.00000     0.00000
 
 55 54  0  0  0  0  0  0  0  0999 V2000
   -9.6761    3.3937   -0.2047 C   0  0  0  0  0  0  0  0  0  0  0  0
   -9.0209    2.1741    0.4466 C   0  0  0  0  0  0  0  0  0  0  0  0
   -7.6685    1.9065   -0.2170 C   0  0  0  0  0  0  0  0  0  0  0  0
   -7.0133    0.6869    0.4343 C   0  0  0  0  0  0  0  0  0  0  0  0
   -5.6608    0.4193   -0.2292 C   0  0  0  0  0  0  0  0  0  0  0  0
   -5.0057   -0.8003    0.4220 C   0  0  0  0  0  0  0  0  0  0  0  0
   -3.6532   -1.0678   -0.2415 C   0  0  0  0  0  0  0  0  0  0  0  0
   -2.9428   -2.2082    0.4904 C   0  0  0  0  0  0  0  0  0  0  0  0
   -1.5614   -2.3902   -0.0839 C   0  0  0  0  0  0  0  0  0  0  0  0
   -0.5145   -2.3493    0.7025 C   0  0  0  0  0  0  0  0  0  0  0  0
    0.8668   -2.5313    0.1283 C   0  0  0  0  0  0  0  0  0  0  0  0
    1.7426   -1.3391    0.5188 C   0  0  0  0  0  0  0  0  0  0  0  0
    3.1450   -1.5238   -0.0642 C   0  0  0  0  0  0  0  0  0  0  0  0
    4.0208   -0.3316    0.3263 C   0  0  0  0  0  0  0  0  0  0  0  0
    5.4233   -0.5164   -0.2568 C   0  0  0  0  0  0  0  0  0  0  0  0
    6.2991    0.6758    0.1338 C   0  0  0  0  0  0  0  0  0  0  0  0
    7.7015    0.4911   -0.4493 C   0  0  0  0  0  0  0  0  0  0  0  0
    8.5641    1.6654   -0.0646 C   0  0  0  0  0  0  0  0  0  0  0  0
    8.1044    2.5584    0.6069 O   0  0  0  0  0  0  0  0  0  0  0  0
    9.8432    1.7192   -0.4681 O   0  0  0  0  0  0  0  0  0  0  0  0
   -3.8570   -1.4327   -1.6080 O   0  0  0  0  0  0  0  0  0  0  0  0
   -9.0311    4.2633   -0.0786 H   0  0  0  0  0  0  0  0  0  0  0  0
   -9.8243    3.2024   -1.2675 H   0  0  0  0  0  0  0  0  0  0  0  0
  -10.6396    3.5843    0.2680 H   0  0  0  0  0  0  0  0  0  0  0  0
   -8.8727    2.3654    1.5094 H   0  0  0  0  0  0  0  0  0  0  0  0
   -9.6658    1.3045    0.3204 H   0  0  0  0  0  0  0  0  0  0  0  0
   -7.8167    1.7152   -1.2797 H   0  0  0  0  0  0  0  0  0  0  0  0
   -7.0235    2.7761   -0.0908 H   0  0  0  0  0  0  0  0  0  0  0  0
   -6.8650    0.8782    1.4971 H   0  0  0  0  0  0  0  0  0  0  0  0
   -7.6582   -0.1827    0.3082 H   0  0  0  0  0  0  0  0  0  0  0  0
   -5.8091    0.2280   -1.2920 H   0  0  0  0  0  0  0  0  0  0  0  0
   -5.0159    1.2890   -0.1031 H   0  0  0  0  0  0  0  0  0  0  0  0
   -4.8574   -0.6090    1.4848 H   0  0  0  0  0  0  0  0  0  0  0  0
   -5.6506   -1.6699    0.2959 H   0  0  0  0  0  0  0  0  0  0  0  0
   -3.0405   -0.1677   -0.1933 H   0  0  0  0  0  0  0  0  0  0  0  0
   -2.8667   -1.9677    1.5508 H   0  0  0  0  0  0  0  0  0  0  0  0
   -3.5119   -3.1296    0.3668 H   0  0  0  0  0  0  0  0  0  0  0  0
   -1.4346   -2.5543   -1.1438 H   0  0  0  0  0  0  0  0  0  0  0  0
   -0.6414   -2.1852    1.7624 H   0  0  0  0  0  0  0  0  0  0  0  0
    1.3056   -3.4486    0.5210 H   0  0  0  0  0  0  0  0  0  0  0  0
    0.8032   -2.5950   -0.9580 H   0  0  0  0  0  0  0  0  0  0  0  0
    1.3038   -0.4218    0.1261 H   0  0  0  0  0  0  0  0  0  0  0  0
    1.8062   -1.2754    1.6051 H   0  0  0  0  0  0  0  0  0  0  0  0
    3.5838   -2.4411    0.3284 H   0  0  0  0  0  0  0  0  0  0  0  0
    3.0814   -1.5876   -1.1505 H   0  0  0  0  0  0  0  0  0  0  0  0
    3.5820    0.5856   -0.0664 H   0  0  0  0  0  0  0  0  0  0  0  0
    4.0845   -0.2679    1.4125 H   0  0  0  0  0  0  0  0  0  0  0  0
    5.8621   -1.4336    0.1359 H   0  0  0  0  0  0  0  0  0  0  0  0
    5.3597   -0.5801   -1.3430 H   0  0  0  0  0  0  0  0  0  0  0  0
    5.8603    1.5931   -0.2589 H   0  0  0  0  0  0  0  0  0  0  0  0
    6.3627    0.7396    1.2200 H   0  0  0  0  0  0  0  0  0  0  0  0
    8.1403   -0.4262   -0.0566 H   0  0  0  0  0  0  0  0  0  0  0  0
    7.6379    0.4274   -1.5356 H   0  0  0  0  0  0  0  0  0  0  0  0
   10.3570    2.4921   -0.1966 H   0  0  0  0  0  0  0  0  0  0  0  0
   -4.3953   -2.2272   -1.7269 H   0  0  0  0  0  0  0  0  0  0  0  0
  1  2  1  0  0  0  0
  2  3  1  0  0  0  0
  3  4  1  0  0  0  0
  4  5  1  0  0  0  0
  5  6  1  0  0  0  0
  6  7  1  0  0  0  0
  7  8  1  0  0  0  0
  8  9  1  0  0  0  0
  9 10  2  0  0  0  0
 10 11  1  0  0  0  0
 11 12  1  0  0  0  0
 12 13  1  0  0  0  0
 13 14  1  0  0  0  0
 14 15  1  0  0  0  0
 15 16  1  0  0  0  0
 16 17  1  0  0  0  0
 17 18  1  0  0  0  0
 18 19  2  0  0  0  0
 18 20  1  0  0  0  0
  7 21  1  0  0  0  0
  1 22  1  0  0  0  0
  1 23  1  0  0  0  0
  1 24  1  0  0  0  0
  2 25  1  0  0  0  0
  2 26  1  0  0  0  0
  3 27  1  0  0  0  0
  3 28  1  0  0  0  0
  4 29  1  0  0  0  0
  4 30  1  0  0  0  0
  5 31  1  0  0  0  0
  5 32  1  0  0  0  0
  6 33  1  0  0  0  0
  6 34  1  0  0  0  0
  7 35  1  0  0  0  0
  8 36  1  0  0  0  0
  8 37  1  0  0  0  0
  9 38  1  0  0  0  0
 10 39  1  0  0  0  0
 11 40  1  0  0  0  0
 11 41  1  0  0  0  0
 12 42  1  0  0  0  0
 12 43  1  0  0  0  0
 13 44  1  0  0  0  0
 13 45  1  0  0  0  0
 14 46  1  0  0  0  0
 14 47  1  0  0  0  0
 15 48  1  0  0  0  0
 15 49  1  0  0  0  0
 16 50  1  0  0  0  0
 16 51  1  0  0  0  0
 17 52  1  0  0  0  0
 17 53  1  0  0  0  0
 20 54  1  0  0  0  0
 21 55  1  0  0  0  0
M  END
$$$$
