C7H12O
APtclcactv06281816503D 0   0.00000     0.00000
 
 20 19  0  0  0  0  0  0  0  0999 V2000
    4.1183   -0.6943    0.1220 C   0  0  0  0  0  0  0  0  0  0  0  0
    3.0111    0.3470    0.2966 C   0  0  0  0  0  0  0  0  0  0  0  0
    1.6907   -0.2195   -0.2291 C   0  0  0  0  0  0  0  0  0  0  0  0
    0.5834    0.8219   -0.0545 C   0  0  0  0  0  0  0  0  0  0  0  0
   -0.7172    0.2639   -0.5724 C   0  0  0  0  0  0  0  0  0  0  0  0
   -1.7921    0.2335    0.2180 C   0  0  0  0  0  0  0  0  0  0  0  0
   -3.0543   -0.3080   -0.2846 C   0  0  0  0  0  0  0  0  0  0  0  0
   -4.0315   -0.3356    0.4340 O   0  0  0  0  0  0  0  0  0  0  0  0
    5.0590   -0.2908    0.4966 H   0  0  0  0  0  0  0  0  0  0  0  0
    3.8615   -1.5948    0.6799 H   0  0  0  0  0  0  0  0  0  0  0  0
    4.2233   -0.9393   -0.9349 H   0  0  0  0  0  0  0  0  0  0  0  0
    2.9061    0.5920    1.3536 H   0  0  0  0  0  0  0  0  0  0  0  0
    3.2679    1.2475   -0.2613 H   0  0  0  0  0  0  0  0  0  0  0  0
    1.7956   -0.4645   -1.2861 H   0  0  0  0  0  0  0  0  0  0  0  0
    1.4338   -1.1200    0.3288 H   0  0  0  0  0  0  0  0  0  0  0  0
    0.4785    1.0668    1.0024 H   0  0  0  0  0  0  0  0  0  0  0  0
    0.8403    1.7223   -0.6124 H   0  0  0  0  0  0  0  0  0  0  0  0
   -0.7794   -0.1114   -1.5832 H   0  0  0  0  0  0  0  0  0  0  0  0
   -1.7299    0.6088    1.2288 H   0  0  0  0  0  0  0  0  0  0  0  0
   -3.1165   -0.6833   -1.2954 H   0  0  0  0  0  0  0  0  0  0  0  0
  1  2  1  0  0  0  0
  2  3  1  0  0  0  0
  3  4  1  0  0  0  0
  4  5  1  0  0  0  0
  5  6  2  0  0  0  0
  6  7  1  0  0  0  0
  7  8  2  0  0  0  0
  1  9  1  0  0  0  0
  1 10  1  0  0  0  0
  1 11  1  0  0  0  0
  2 12  1  0  0  0  0
  2 13  1  0  0  0  0
  3 14  1  0  0  0  0
  3 15  1  0  0  0  0
  4 16  1  0  0  0  0
  4 17  1  0  0  0  0
  5 18  1  0  0  0  0
  6 19  1  0  0  0  0
  7 20  1  0  0  0  0
M  END
$$$$
