C28H48O
APtclcactv06281816503D 0   0.00000     0.00000
 
 77 80  0  0  0  0  0  0  0  0999 V2000
    4.6443    4.2624    0.4886 C   0  0  0  0  0  0  0  0  0  0  0  0
    4.9026    2.8774   -0.1080 C   0  0  0  0  0  0  0  0  0  0  0  0
    6.1408    2.2625    0.5475 C   0  0  0  0  0  0  0  0  0  0  0  0
    3.6912    1.9783    0.1466 C   0  0  0  0  0  0  0  0  0  0  0  0
    2.4530    2.5932   -0.5089 C   0  0  0  0  0  0  0  0  0  0  0  0
    3.9495    0.5933   -0.4500 C   0  0  0  0  0  0  0  0  0  0  0  0
    2.7936   -0.3415   -0.0883 C   0  0  0  0  0  0  0  0  0  0  0  0
    3.0519   -1.7265   -0.6849 C   0  0  0  0  0  0  0  0  0  0  0  0
    4.4341   -2.2189   -0.2512 C   0  0  0  0  0  0  0  0  0  0  0  0
    1.9885   -2.6986   -0.1907 C   0  0  0  0  0  0  0  0  0  0  0  0
    2.0261   -2.7941    1.3584 C   0  0  0  0  0  0  0  0  0  0  0  0
    0.7049   -2.1514    1.8691 C   0  0  0  0  0  0  0  0  0  0  0  0
    0.3077   -1.2579    0.6828 C   0  0  0  0  0  0  0  0  0  0  0  0
    0.5635   -2.2090   -0.5063 C   0  0  0  0  0  0  0  0  0  0  0  0
    0.3636   -1.4663   -1.7984 C   0  0  0  0  0  0  0  0  0  0  0  0
   -1.0064   -0.7763   -1.8447 C   0  0  0  0  0  0  0  0  0  0  0  0
   -1.8473   -0.9737   -0.5982 C   0  0  0  0  0  0  0  0  0  0  0  0
   -1.0732   -0.6846    0.6872 C   0  0  0  0  0  0  0  0  0  0  0  0
   -1.9169   -1.1903    1.8641 C   0  0  0  0  0  0  0  0  0  0  0  0
   -3.2596   -0.5160    1.7980 C   0  0  0  0  0  0  0  0  0  0  0  0
   -3.7537   -0.0101    0.7120 C   0  0  0  0  0  0  0  0  0  0  0  0
   -3.0753   -0.0546   -0.6341 C   0  0  0  0  0  0  0  0  0  0  0  0
   -2.6921    1.3665   -1.0285 C   0  0  0  0  0  0  0  0  0  0  0  0
   -3.5559    2.3849   -0.2888 C   0  0  0  0  0  0  0  0  0  0  0  0
   -5.0036    1.9364   -0.1378 C   0  0  0  0  0  0  0  0  0  0  0  0
   -5.0939    0.7032    0.7693 C   0  0  0  0  0  0  0  0  0  0  0  0
   -5.7679    3.0007    0.4430 O   0  0  0  0  0  0  0  0  0  0  0  0
   -4.0484   -0.6252   -1.6671 C   0  0  0  0  0  0  0  0  0  0  0  0
   -0.3233   -3.4606   -0.4588 C   0  0  0  0  0  0  0  0  0  0  0  0
    5.5074    4.9029    0.3072 H   0  0  0  0  0  0  0  0  0  0  0  0
    3.7622    4.7004    0.0216 H   0  0  0  0  0  0  0  0  0  0  0  0
    4.4793    4.1705    1.5621 H   0  0  0  0  0  0  0  0  0  0  0  0
    5.0677    2.9693   -1.1815 H   0  0  0  0  0  0  0  0  0  0  0  0
    6.3249    1.2759    0.1224 H   0  0  0  0  0  0  0  0  0  0  0  0
    7.0039    2.9031    0.3661 H   0  0  0  0  0  0  0  0  0  0  0  0
    5.9758    2.1707    1.6210 H   0  0  0  0  0  0  0  0  0  0  0  0
    3.5262    1.8864    1.2202 H   0  0  0  0  0  0  0  0  0  0  0  0
    2.6180    2.6850   -1.5824 H   0  0  0  0  0  0  0  0  0  0  0  0
    1.5899    1.9526   -0.3275 H   0  0  0  0  0  0  0  0  0  0  0  0
    2.2689    3.5799   -0.0838 H   0  0  0  0  0  0  0  0  0  0  0  0
    4.0263    0.6734   -1.5343 H   0  0  0  0  0  0  0  0  0  0  0  0
    4.8802    0.1926   -0.0485 H   0  0  0  0  0  0  0  0  0  0  0  0
    2.7168   -0.4216    0.9961 H   0  0  0  0  0  0  0  0  0  0  0  0
    1.8629    0.0592   -0.4898 H   0  0  0  0  0  0  0  0  0  0  0  0
    3.0123   -1.6667   -1.7725 H   0  0  0  0  0  0  0  0  0  0  0  0
    4.5076   -2.1843    0.8357 H   0  0  0  0  0  0  0  0  0  0  0  0
    4.5782   -3.2440   -0.5927 H   0  0  0  0  0  0  0  0  0  0  0  0
    5.2011   -1.5793   -0.6878 H   0  0  0  0  0  0  0  0  0  0  0  0
    2.1371   -3.6861   -0.6273 H   0  0  0  0  0  0  0  0  0  0  0  0
    2.0759   -3.8371    1.6654 H   0  0  0  0  0  0  0  0  0  0  0  0
    2.8817   -2.2426    1.7436 H   0  0  0  0  0  0  0  0  0  0  0  0
   -0.0439   -2.9003    2.0899 H   0  0  0  0  0  0  0  0  0  0  0  0
    0.9044   -1.5376    2.7514 H   0  0  0  0  0  0  0  0  0  0  0  0
    1.0335   -0.4207    0.6365 H   0  0  0  0  0  0  0  0  0  0  0  0
    1.1339   -0.6983   -1.9406 H   0  0  0  0  0  0  0  0  0  0  0  0
    0.4400   -2.1681   -2.6424 H   0  0  0  0  0  0  0  0  0  0  0  0
   -0.8457    0.2984   -2.0096 H   0  0  0  0  0  0  0  0  0  0  0  0
   -1.5530   -1.1536   -2.7203 H   0  0  0  0  0  0  0  0  0  0  0  0
   -2.2558   -1.9870   -0.5725 H   0  0  0  0  0  0  0  0  0  0  0  0
   -0.9919    0.4176    0.7954 H   0  0  0  0  0  0  0  0  0  0  0  0
   -2.0468   -2.2675    1.7891 H   0  0  0  0  0  0  0  0  0  0  0  0
   -1.4270   -0.9363    2.8019 H   0  0  0  0  0  0  0  0  0  0  0  0
   -3.8413   -0.4503    2.7041 H   0  0  0  0  0  0  0  0  0  0  0  0
   -1.6436    1.5436   -0.7811 H   0  0  0  0  0  0  0  0  0  0  0  0
   -2.8278    1.4929   -2.1043 H   0  0  0  0  0  0  0  0  0  0  0  0
   -3.1299    2.5572    0.7028 H   0  0  0  0  0  0  0  0  0  0  0  0
   -3.5330    3.3303   -0.8385 H   0  0  0  0  0  0  0  0  0  0  0  0
   -5.4230    1.7051   -1.1179 H   0  0  0  0  0  0  0  0  0  0  0  0
   -5.8899    0.0413    0.4299 H   0  0  0  0  0  0  0  0  0  0  0  0
   -5.2983    1.0166    1.7966 H   0  0  0  0  0  0  0  0  0  0  0  0
   -6.7028    2.7893    0.5706 H   0  0  0  0  0  0  0  0  0  0  0  0
   -4.9325    0.0099   -1.7231 H   0  0  0  0  0  0  0  0  0  0  0  0
   -3.5636   -0.6598   -2.6427 H   0  0  0  0  0  0  0  0  0  0  0  0
   -4.3426   -1.6323   -1.3716 H   0  0  0  0  0  0  0  0  0  0  0  0
   -1.3555   -3.1674   -0.2674 H   0  0  0  0  0  0  0  0  0  0  0  0
   -0.2652   -3.9835   -1.4134 H   0  0  0  0  0  0  0  0  0  0  0  0
    0.0209   -4.1198    0.3381 H   0  0  0  0  0  0  0  0  0  0  0  0
  1  2  1  0  0  0  0
  2  3  1  0  0  0  0
  2  4  1  0  0  0  0
  4  5  1  0  0  0  0
  4  6  1  0  0  0  0
  6  7  1  0  0  0  0
  7  8  1  0  0  0  0
  8  9  1  0  0  0  0
  8 10  1  0  0  0  0
 10 11  1  0  0  0  0
 11 12  1  0  0  0  0
 12 13  1  0  0  0  0
 13 14  1  0  0  0  0
 10 14  1  0  0  0  0
 14 15  1  0  0  0  0
 15 16  1  0  0  0  0
 16 17  1  0  0  0  0
 17 18  1  0  0  0  0
 13 18  1  0  0  0  0
 18 19  1  0  0  0  0
 19 20  1  0  0  0  0
 20 21  2  0  0  0  0
 21 22  1  0  0  0  0
 17 22  1  0  0  0  0
 22 23  1  0  0  0  0
 23 24  1  0  0  0  0
 24 25  1  0  0  0  0
 25 26  1  0  0  0  0
 21 26  1  0  0  0  0
 25 27  1  0  0  0  0
 22 28  1  0  0  0  0
 14 29  1  0  0  0  0
  1 30  1  0  0  0  0
  1 31  1  0  0  0  0
  1 32  1  0  0  0  0
  2 33  1  0  0  0  0
  3 34  1  0  0  0  0
  3 35  1  0  0  0  0
  3 36  1  0  0  0  0
  4 37  1  0  0  0  0
  5 38  1  0  0  0  0
  5 39  1  0  0  0  0
  5 40  1  0  0  0  0
  6 41  1  0  0  0  0
  6 42  1  0  0  0  0
  7 43  1  0  0  0  0
  7 44  1  0  0  0  0
  8 45  1  0  0  0  0
  9 46  1  0  0  0  0
  9 47  1  0  0  0  0
  9 48  1  0  0  0  0
 10 49  1  0  0  0  0
 11 50  1  0  0  0  0
 11 51  1  0  0  0  0
 12 52  1  0  0  0  0
 12 53  1  0  0  0  0
 13 54  1  0  0  0  0
 15 55  1  0  0  0  0
 15 56  1  0  0  0  0
 16 57  1  0  0  0  0
 16 58  1  0  0  0  0
 17 59  1  0  0  0  0
 18 60  1  0  0  0  0
 19 61  1  0  0  0  0
 19 62  1  0  0  0  0
 20 63  1  0  0  0  0
 23 64  1  0  0  0  0
 23 65  1  0  0  0  0
 24 66  1  0  0  0  0
 24 67  1  0  0  0  0
 25 68  1  0  0  0  0
 26 69  1  0  0  0  0
 26 70  1  0  0  0  0
 27 71  1  0  0  0  0
 28 72  1  0  0  0  0
 28 73  1  0  0  0  0
 28 74  1  0  0  0  0
 29 75  1  0  0  0  0
 29 76  1  0  0  0  0
 29 77  1  0  0  0  0
M  END
$$$$
