C29H48O
APtclcactv06281816503D 0   0.00000     0.00000
 
 78 81  0  0  0  0  0  0  0  0999 V2000
    5.4698    0.3197    1.3836 C   0  0  0  0  0  0  0  0  0  0  0  0
    4.2616    1.1347    0.9388 C   0  0  0  0  0  0  0  0  0  0  0  0
    4.5633    1.9139   -0.3396 C   0  0  0  0  0  0  0  0  0  0  0  0
    4.4433    1.0471   -1.5870 C   0  0  0  0  0  0  0  0  0  0  0  0
    3.0567    0.4047   -1.6733 C   0  0  0  0  0  0  0  0  0  0  0  0
    2.8201   -0.4667   -0.4483 C   0  0  0  0  0  0  0  0  0  0  0  0
    2.9920    0.3332    0.8219 C   0  0  0  0  0  0  0  0  0  0  0  0
    2.7000   -0.5534    2.0381 C   0  0  0  0  0  0  0  0  0  0  0  0
    1.2019   -0.8072    1.9565 C   0  0  0  0  0  0  0  0  0  0  0  0
    0.6837   -1.0655    0.7843 C   0  0  0  0  0  0  0  0  0  0  0  0
    1.4900   -1.1889   -0.4815 C   0  0  0  0  0  0  0  0  0  0  0  0
    0.6211   -0.7917   -1.6683 C   0  0  0  0  0  0  0  0  0  0  0  0
   -0.5673   -1.7505   -1.8261 C   0  0  0  0  0  0  0  0  0  0  0  0
   -1.0980   -2.2060   -0.5009 C   0  0  0  0  0  0  0  0  0  0  0  0
   -0.8052   -1.1834    0.6248 C   0  0  0  0  0  0  0  0  0  0  0  0
   -1.5252   -1.8401    1.8167 C   0  0  0  0  0  0  0  0  0  0  0  0
   -2.8397   -2.3741    1.1842 C   0  0  0  0  0  0  0  0  0  0  0  0
   -2.6120   -2.3944   -0.3516 C   0  0  0  0  0  0  0  0  0  0  0  0
   -3.3936   -1.2554   -1.0012 C   0  0  0  0  0  0  0  0  0  0  0  0
   -4.8728   -1.3745   -0.6287 C   0  0  0  0  0  0  0  0  0  0  0  0
   -2.8489    0.0852   -0.5042 C   0  0  0  0  0  0  0  0  0  0  0  0
   -3.7208    1.2212   -1.0429 C   0  0  0  0  0  0  0  0  0  0  0  0
   -3.1842    2.5417   -0.5535 C   0  0  0  0  0  0  0  0  0  0  0  0
   -2.3643    3.2344   -1.3045 C   0  0  0  0  0  0  0  0  0  0  0  0
   -3.5909    3.0652    0.7999 C   0  0  0  0  0  0  0  0  0  0  0  0
   -5.1097    3.2449    0.8419 C   0  0  0  0  0  0  0  0  0  0  0  0
   -3.1651    2.0697    1.8808 C   0  0  0  0  0  0  0  0  0  0  0  0
   -0.4542   -3.5574   -0.1531 C   0  0  0  0  0  0  0  0  0  0  0  0
    3.8563   -1.5919   -0.5005 C   0  0  0  0  0  0  0  0  0  0  0  0
    3.6644    3.0227   -0.4441 O   0  0  0  0  0  0  0  0  0  0  0  0
    6.2697    0.9937    1.6904 H   0  0  0  0  0  0  0  0  0  0  0  0
    5.1896   -0.3173    2.2225 H   0  0  0  0  0  0  0  0  0  0  0  0
    5.8145   -0.3002    0.5560 H   0  0  0  0  0  0  0  0  0  0  0  0
    4.0931    1.9003    1.7353 H   0  0  0  0  0  0  0  0  0  0  0  0
    5.5862    2.3060   -0.2807 H   0  0  0  0  0  0  0  0  0  0  0  0
    4.5805    1.6887   -2.4703 H   0  0  0  0  0  0  0  0  0  0  0  0
    5.2267    0.2961   -1.6055 H   0  0  0  0  0  0  0  0  0  0  0  0
    2.2950    1.1841   -1.7247 H   0  0  0  0  0  0  0  0  0  0  0  0
    3.0024   -0.2094   -2.5756 H   0  0  0  0  0  0  0  0  0  0  0  0
    2.1570    1.0848    0.8124 H   0  0  0  0  0  0  0  0  0  0  0  0
    3.2459   -1.4848    2.0131 H   0  0  0  0  0  0  0  0  0  0  0  0
    2.9233   -0.0056    2.9569 H   0  0  0  0  0  0  0  0  0  0  0  0
    0.5885   -0.7742    2.8398 H   0  0  0  0  0  0  0  0  0  0  0  0
    1.7474   -2.2468   -0.6047 H   0  0  0  0  0  0  0  0  0  0  0  0
    0.2431    0.2218   -1.5234 H   0  0  0  0  0  0  0  0  0  0  0  0
    1.2130   -0.8190   -2.5853 H   0  0  0  0  0  0  0  0  0  0  0  0
   -1.3316   -1.2639   -2.4267 H   0  0  0  0  0  0  0  0  0  0  0  0
   -0.2210   -2.6315   -2.3869 H   0  0  0  0  0  0  0  0  0  0  0  0
   -1.2450   -0.2045    0.4056 H   0  0  0  0  0  0  0  0  0  0  0  0
   -0.9385   -2.6384    2.2557 H   0  0  0  0  0  0  0  0  0  0  0  0
   -1.7554   -1.0845    2.5743 H   0  0  0  0  0  0  0  0  0  0  0  0
   -3.0457   -3.3818    1.5421 H   0  0  0  0  0  0  0  0  0  0  0  0
   -3.6683   -1.7105    1.4271 H   0  0  0  0  0  0  0  0  0  0  0  0
   -2.9116   -3.3543   -0.7654 H   0  0  0  0  0  0  0  0  0  0  0  0
   -3.2859   -1.3123   -2.0843 H   0  0  0  0  0  0  0  0  0  0  0  0
   -4.9950   -1.1870    0.4381 H   0  0  0  0  0  0  0  0  0  0  0  0
   -5.4499   -0.6433   -1.1946 H   0  0  0  0  0  0  0  0  0  0  0  0
   -5.2271   -2.3780   -0.8642 H   0  0  0  0  0  0  0  0  0  0  0  0
   -2.8631    0.1017    0.5856 H   0  0  0  0  0  0  0  0  0  0  0  0
   -1.8254    0.2145   -0.8562 H   0  0  0  0  0  0  0  0  0  0  0  0
   -3.7065    1.2047   -2.1327 H   0  0  0  0  0  0  0  0  0  0  0  0
   -4.7442    1.0919   -0.6910 H   0  0  0  0  0  0  0  0  0  0  0  0
   -1.9798    4.1808   -0.9537 H   0  0  0  0  0  0  0  0  0  0  0  0
   -2.0729    2.8592   -2.2744 H   0  0  0  0  0  0  0  0  0  0  0  0
   -3.1064    4.0251    0.9787 H   0  0  0  0  0  0  0  0  0  0  0  0
   -5.5943    2.2851    0.6630 H   0  0  0  0  0  0  0  0  0  0  0  0
   -5.4039    3.6236    1.8207 H   0  0  0  0  0  0  0  0  0  0  0  0
   -5.4131    3.9542    0.0718 H   0  0  0  0  0  0  0  0  0  0  0  0
   -2.0830    1.9416    1.8509 H   0  0  0  0  0  0  0  0  0  0  0  0
   -3.4592    2.4483    2.8597 H   0  0  0  0  0  0  0  0  0  0  0  0
   -3.6496    1.1098    1.7020 H   0  0  0  0  0  0  0  0  0  0  0  0
    0.6291   -3.4438   -0.1114 H   0  0  0  0  0  0  0  0  0  0  0  0
   -0.8215   -3.8963    0.8156 H   0  0  0  0  0  0  0  0  0  0  0  0
   -0.7135   -4.2906   -0.9168 H   0  0  0  0  0  0  0  0  0  0  0  0
    4.8527   -1.1634   -0.6089 H   0  0  0  0  0  0  0  0  0  0  0  0
    3.8089   -2.1726    0.4207 H   0  0  0  0  0  0  0  0  0  0  0  0
    3.6455   -2.2409   -1.3505 H   0  0  0  0  0  0  0  0  0  0  0  0
    3.7979    3.5641   -1.2341 H   0  0  0  0  0  0  0  0  0  0  0  0
  1  2  1  0  0  0  0
  2  3  1  0  0  0  0
  3  4  1  0  0  0  0
  4  5  1  0  0  0  0
  5  6  1  0  0  0  0
  6  7  1  0  0  0  0
  2  7  1  0  0  0  0
  7  8  1  0  0  0  0
  8  9  1  0  0  0  0
  9 10  2  0  0  0  0
 10 11  1  0  0  0  0
  6 11  1  0  0  0  0
 11 12  1  0  0  0  0
 12 13  1  0  0  0  0
 13 14  1  0  0  0  0
 14 15  1  0  0  0  0
 10 15  1  0  0  0  0
 15 16  1  0  0  0  0
 16 17  1  0  0  0  0
 17 18  1  0  0  0  0
 14 18  1  0  0  0  0
 18 19  1  0  0  0  0
 19 20  1  0  0  0  0
 19 21  1  0  0  0  0
 21 22  1  0  0  0  0
 22 23  1  0  0  0  0
 23 24  2  0  0  0  0
 23 25  1  0  0  0  0
 25 26  1  0  0  0  0
 25 27  1  0  0  0  0
 14 28  1  0  0  0  0
  6 29  1  0  0  0  0
  3 30  1  0  0  0  0
  1 31  1  0  0  0  0
  1 32  1  0  0  0  0
  1 33  1  0  0  0  0
  2 34  1  0  0  0  0
  3 35  1  0  0  0  0
  4 36  1  0  0  0  0
  4 37  1  0  0  0  0
  5 38  1  0  0  0  0
  5 39  1  0  0  0  0
  7 40  1  0  0  0  0
  8 41  1  0  0  0  0
  8 42  1  0  0  0  0
  9 43  1  0  0  0  0
 11 44  1  0  0  0  0
 12 45  1  0  0  0  0
 12 46  1  0  0  0  0
 13 47  1  0  0  0  0
 13 48  1  0  0  0  0
 15 49  1  0  0  0  0
 16 50  1  0  0  0  0
 16 51  1  0  0  0  0
 17 52  1  0  0  0  0
 17 53  1  0  0  0  0
 18 54  1  0  0  0  0
 19 55  1  0  0  0  0
 20 56  1  0  0  0  0
 20 57  1  0  0  0  0
 20 58  1  0  0  0  0
 21 59  1  0  0  0  0
 21 60  1  0  0  0  0
 22 61  1  0  0  0  0
 22 62  1  0  0  0  0
 24 63  1  0  0  0  0
 24 64  1  0  0  0  0
 25 65  1  0  0  0  0
 26 66  1  0  0  0  0
 26 67  1  0  0  0  0
 26 68  1  0  0  0  0
 27 69  1  0  0  0  0
 27 70  1  0  0  0  0
 27 71  1  0  0  0  0
 28 72  1  0  0  0  0
 28 73  1  0  0  0  0
 28 74  1  0  0  0  0
 29 75  1  0  0  0  0
 29 76  1  0  0  0  0
 29 77  1  0  0  0  0
 30 78  1  0  0  0  0
M  END
$$$$
