C9H16O2
APtclcactv06281816503D 0   0.00000     0.00000
 
 27 26  0  0  0  0  0  0  0  0999 V2000
    5.4981   -0.6255    0.4592 C   0  0  0  0  0  0  0  0  0  0  0  0
    4.3332    0.2687    0.0298 C   0  0  0  0  0  0  0  0  0  0  0  0
    3.0246   -0.5186    0.1232 C   0  0  0  0  0  0  0  0  0  0  0  0
    1.8597    0.3755   -0.3063 C   0  0  0  0  0  0  0  0  0  0  0  0
    0.5511   -0.4118   -0.2129 C   0  0  0  0  0  0  0  0  0  0  0  0
   -0.6138    0.4824   -0.6424 C   0  0  0  0  0  0  0  0  0  0  0  0
   -1.8849   -0.3267   -0.6684 C   0  0  0  0  0  0  0  0  0  0  0  0
   -2.9469    0.0764    0.0322 C   0  0  0  0  0  0  0  0  0  0  0  0
   -4.1806   -0.7087    0.0070 C   0  0  0  0  0  0  0  0  0  0  0  0
   -5.1461   -0.3423    0.6439 O   0  0  0  0  0  0  0  0  0  0  0  0
   -0.7540    1.5602    0.2853 O   0  0  0  0  0  0  0  0  0  0  0  0
    6.4303   -0.0646    0.3927 H   0  0  0  0  0  0  0  0  0  0  0  0
    5.3442   -0.9539    1.4871 H   0  0  0  0  0  0  0  0  0  0  0  0
    5.5495   -1.4949   -0.1962 H   0  0  0  0  0  0  0  0  0  0  0  0
    4.2817    1.1381    0.6852 H   0  0  0  0  0  0  0  0  0  0  0  0
    4.4870    0.5971   -0.9981 H   0  0  0  0  0  0  0  0  0  0  0  0
    3.0761   -1.3881   -0.5322 H   0  0  0  0  0  0  0  0  0  0  0  0
    2.8707   -0.8471    1.1510 H   0  0  0  0  0  0  0  0  0  0  0  0
    1.8082    1.2449    0.3491 H   0  0  0  0  0  0  0  0  0  0  0  0
    2.0135    0.7040   -1.3342 H   0  0  0  0  0  0  0  0  0  0  0  0
    0.6026   -1.2812   -0.8683 H   0  0  0  0  0  0  0  0  0  0  0  0
    0.3973   -0.7402    0.8150 H   0  0  0  0  0  0  0  0  0  0  0  0
   -0.4172    0.8823   -1.6371 H   0  0  0  0  0  0  0  0  0  0  0  0
   -1.9365   -1.2326   -1.2540 H   0  0  0  0  0  0  0  0  0  0  0  0
   -2.8953    0.9824    0.6179 H   0  0  0  0  0  0  0  0  0  0  0  0
   -4.2322   -1.6147   -0.5786 H   0  0  0  0  0  0  0  0  0  0  0  0
   -0.9309    1.2775    1.1929 H   0  0  0  0  0  0  0  0  0  0  0  0
  1  2  1  0  0  0  0
  2  3  1  0  0  0  0
  3  4  1  0  0  0  0
  4  5  1  0  0  0  0
  5  6  1  0  0  0  0
  6  7  1  0  0  0  0
  7  8  2  0  0  0  0
  8  9  1  0  0  0  0
  9 10  2  0  0  0  0
  6 11  1  0  0  0  0
  1 12  1  0  0  0  0
  1 13  1  0  0  0  0
  1 14  1  0  0  0  0
  2 15  1  0  0  0  0
  2 16  1  0  0  0  0
  3 17  1  0  0  0  0
  3 18  1  0  0  0  0
  4 19  1  0  0  0  0
  4 20  1  0  0  0  0
  5 21  1  0  0  0  0
  5 22  1  0  0  0  0
  6 23  1  0  0  0  0
  7 24  1  0  0  0  0
  8 25  1  0  0  0  0
  9 26  1  0  0  0  0
 11 27  1  0  0  0  0
M  END
$$$$
