C10H18O
APtclcactv06281816503D 0   0.00000     0.00000
 
 29 28  0  0  0  0  0  0  0  0999 V2000
   -5.3983    1.5267   -0.2149 C   0  0  0  0  0  0  0  0  0  0  0  0
   -4.6313    0.3511    0.3938 C   0  0  0  0  0  0  0  0  0  0  0  0
   -3.2617    0.2332   -0.2780 C   0  0  0  0  0  0  0  0  0  0  0  0
   -2.4946   -0.9424    0.3307 C   0  0  0  0  0  0  0  0  0  0  0  0
   -1.1457   -1.0586   -0.3310 C   0  0  0  0  0  0  0  0  0  0  0  0
   -0.0565   -1.0537    0.3969 C   0  0  0  0  0  0  0  0  0  0  0  0
    1.2925   -1.1698   -0.2648 C   0  0  0  0  0  0  0  0  0  0  0  0
    2.1719    0.0080    0.1598 C   0  0  0  0  0  0  0  0  0  0  0  0
    3.5415   -0.1100   -0.5120 C   0  0  0  0  0  0  0  0  0  0  0  0
    4.4077    1.0501   -0.0938 C   0  0  0  0  0  0  0  0  0  0  0  0
    5.4901    0.8475    0.4020 O   0  0  0  0  0  0  0  0  0  0  0  0
   -4.8363    2.4474   -0.0582 H   0  0  0  0  0  0  0  0  0  0  0  0
   -5.5311    1.3595   -1.2838 H   0  0  0  0  0  0  0  0  0  0  0  0
   -6.3740    1.6108    0.2637 H   0  0  0  0  0  0  0  0  0  0  0  0
   -4.4985    0.5184    1.4627 H   0  0  0  0  0  0  0  0  0  0  0  0
   -5.1933   -0.5695    0.2372 H   0  0  0  0  0  0  0  0  0  0  0  0
   -3.3945    0.0660   -1.3468 H   0  0  0  0  0  0  0  0  0  0  0  0
   -2.6997    1.1539   -0.1213 H   0  0  0  0  0  0  0  0  0  0  0  0
   -2.3618   -0.7752    1.3996 H   0  0  0  0  0  0  0  0  0  0  0  0
   -3.0567   -1.8631    0.1741 H   0  0  0  0  0  0  0  0  0  0  0  0
   -1.0769   -1.1459   -1.4052 H   0  0  0  0  0  0  0  0  0  0  0  0
   -0.1253   -0.9663    1.4712 H   0  0  0  0  0  0  0  0  0  0  0  0
    1.7659   -2.1041    0.0370 H   0  0  0  0  0  0  0  0  0  0  0  0
    1.1682   -1.1587   -1.3476 H   0  0  0  0  0  0  0  0  0  0  0  0
    1.6985    0.9422   -0.1420 H   0  0  0  0  0  0  0  0  0  0  0  0
    2.2962   -0.0032    1.2426 H   0  0  0  0  0  0  0  0  0  0  0  0
    4.0149   -1.0443   -0.2102 H   0  0  0  0  0  0  0  0  0  0  0  0
    3.4172   -0.0988   -1.5948 H   0  0  0  0  0  0  0  0  0  0  0  0
    4.0605    2.0626   -0.2374 H   0  0  0  0  0  0  0  0  0  0  0  0
  1  2  1  0  0  0  0
  2  3  1  0  0  0  0
  3  4  1  0  0  0  0
  4  5  1  0  0  0  0
  5  6  2  0  0  0  0
  6  7  1  0  0  0  0
  7  8  1  0  0  0  0
  8  9  1  0  0  0  0
  9 10  1  0  0  0  0
 10 11  2  0  0  0  0
  1 12  1  0  0  0  0
  1 13  1  0  0  0  0
  1 14  1  0  0  0  0
  2 15  1  0  0  0  0
  2 16  1  0  0  0  0
  3 17  1  0  0  0  0
  3 18  1  0  0  0  0
  4 19  1  0  0  0  0
  4 20  1  0  0  0  0
  5 21  1  0  0  0  0
  6 22  1  0  0  0  0
  7 23  1  0  0  0  0
  7 24  1  0  0  0  0
  8 25  1  0  0  0  0
  8 26  1  0  0  0  0
  9 27  1  0  0  0  0
  9 28  1  0  0  0  0
 10 29  1  0  0  0  0
M  END
$$$$
