C10H16O
APtclcactv06281816503D 0   0.00000     0.00000
 
 27 26  0  0  0  0  0  0  0  0999 V2000
    5.9741   -0.5580    0.2691 C   0  0  0  0  0  0  0  0  0  0  0  0
    4.6266   -0.6538   -0.4492 C   0  0  0  0  0  0  0  0  0  0  0  0
    3.5800    0.1546    0.3202 C   0  0  0  0  0  0  0  0  0  0  0  0
    2.2325    0.0589   -0.3981 C   0  0  0  0  0  0  0  0  0  0  0  0
    1.1859    0.8673    0.3713 C   0  0  0  0  0  0  0  0  0  0  0  0
   -0.1414    0.7730   -0.3362 C   0  0  0  0  0  0  0  0  0  0  0  0
   -1.2222    0.3498    0.3251 C   0  0  0  0  0  0  0  0  0  0  0  0
   -2.5091    0.2584   -0.3609 C   0  0  0  0  0  0  0  0  0  0  0  0
   -3.6073   -0.1716    0.3111 C   0  0  0  0  0  0  0  0  0  0  0  0
   -4.8473   -0.2597   -0.3499 C   0  0  0  0  0  0  0  0  0  0  0  0
   -5.8300   -0.6445    0.2514 O   0  0  0  0  0  0  0  0  0  0  0  0
    6.2858    0.4852    0.3193 H   0  0  0  0  0  0  0  0  0  0  0  0
    5.8769   -0.9572    1.2787 H   0  0  0  0  0  0  0  0  0  0  0  0
    6.7198   -1.1340   -0.2791 H   0  0  0  0  0  0  0  0  0  0  0  0
    4.7239   -0.2546   -1.4588 H   0  0  0  0  0  0  0  0  0  0  0  0
    4.3150   -1.6971   -0.4994 H   0  0  0  0  0  0  0  0  0  0  0  0
    3.4827   -0.2445    1.3298 H   0  0  0  0  0  0  0  0  0  0  0  0
    3.8916    1.1979    0.3704 H   0  0  0  0  0  0  0  0  0  0  0  0
    2.3297    0.4581   -1.4077 H   0  0  0  0  0  0  0  0  0  0  0  0
    1.9208   -0.9844   -0.4483 H   0  0  0  0  0  0  0  0  0  0  0  0
    1.0886    0.4682    1.3809 H   0  0  0  0  0  0  0  0  0  0  0  0
    1.4975    1.9106    0.4215 H   0  0  0  0  0  0  0  0  0  0  0  0
   -0.2188    1.0476   -1.3779 H   0  0  0  0  0  0  0  0  0  0  0  0
   -1.1448    0.0753    1.3667 H   0  0  0  0  0  0  0  0  0  0  0  0
   -2.5865    0.5330   -1.4025 H   0  0  0  0  0  0  0  0  0  0  0  0
   -3.5299   -0.4462    1.3527 H   0  0  0  0  0  0  0  0  0  0  0  0
   -4.9247    0.0148   -1.3915 H   0  0  0  0  0  0  0  0  0  0  0  0
  1  2  1  0  0  0  0
  2  3  1  0  0  0  0
  3  4  1  0  0  0  0
  4  5  1  0  0  0  0
  5  6  1  0  0  0  0
  6  7  2  0  0  0  0
  7  8  1  0  0  0  0
  8  9  2  0  0  0  0
  9 10  1  0  0  0  0
 10 11  2  0  0  0  0
  1 12  1  0  0  0  0
  1 13  1  0  0  0  0
  1 14  1  0  0  0  0
  2 15  1  0  0  0  0
  2 16  1  0  0  0  0
  3 17  1  0  0  0  0
  3 18  1  0  0  0  0
  4 19  1  0  0  0  0
  4 20  1  0  0  0  0
  5 21  1  0  0  0  0
  5 22  1  0  0  0  0
  6 23  1  0  0  0  0
  7 24  1  0  0  0  0
  8 25  1  0  0  0  0
  9 26  1  0  0  0  0
 10 27  1  0  0  0  0
M  END
$$$$
