C28H46O
APtclcactv06281816503D 0   0.00000     0.00000
 
 75 78  0  0  0  0  0  0  0  0999 V2000
    2.0701    0.6231    0.8913 C   0  0  0  0  0  0  0  0  0  0  0  0
    2.6020   -0.2213   -0.2685 C   0  0  0  0  0  0  0  0  0  0  0  0
    4.0459   -0.6355    0.0225 C   0  0  0  0  0  0  0  0  0  0  0  0
    4.9416    0.6049    0.0253 C   0  0  0  0  0  0  0  0  0  0  0  0
    6.3854    0.1906    0.3163 C   0  0  0  0  0  0  0  0  0  0  0  0
    6.9060   -0.6820   -0.8276 C   0  0  0  0  0  0  0  0  0  0  0  0
    7.2459    1.4216    0.4407 C   0  0  0  0  0  0  0  0  0  0  0  0
    7.8879    1.6618    1.5570 C   0  0  0  0  0  0  0  0  0  0  0  0
    7.3676    2.3762   -0.7190 C   0  0  0  0  0  0  0  0  0  0  0  0
    1.7389   -1.4662   -0.4278 C   0  0  0  0  0  0  0  0  0  0  0  0
    1.6372   -2.2258    0.9223 C   0  0  0  0  0  0  0  0  0  0  0  0
    0.1600   -2.0910    1.3906 C   0  0  0  0  0  0  0  0  0  0  0  0
   -0.3033   -0.8423    0.6229 C   0  0  0  0  0  0  0  0  0  0  0  0
    0.2807   -1.1199   -0.7793 C   0  0  0  0  0  0  0  0  0  0  0  0
    0.0533    0.0734   -1.6656 C   0  0  0  0  0  0  0  0  0  0  0  0
   -1.4243    0.4871   -1.6843 C   0  0  0  0  0  0  0  0  0  0  0  0
   -2.3233   -0.3684   -0.8127 C   0  0  0  0  0  0  0  0  0  0  0  0
   -1.7706   -0.5556    0.5996 C   0  0  0  0  0  0  0  0  0  0  0  0
   -2.5959   -1.6536    1.2823 C   0  0  0  0  0  0  0  0  0  0  0  0
   -4.0415   -1.2407    1.2447 C   0  0  0  0  0  0  0  0  0  0  0  0
   -4.5220   -0.3941    0.3893 C   0  0  0  0  0  0  0  0  0  0  0  0
   -3.7160    0.2658   -0.7012 C   0  0  0  0  0  0  0  0  0  0  0  0
   -3.6230    1.7562   -0.3980 C   0  0  0  0  0  0  0  0  0  0  0  0
   -4.7650    2.1948    0.5153 C   0  0  0  0  0  0  0  0  0  0  0  0
   -6.0826    1.5030    0.1915 C   0  0  0  0  0  0  0  0  0  0  0  0
   -5.9866   -0.0005    0.4783 C   0  0  0  0  0  0  0  0  0  0  0  0
   -7.1220    2.0677    1.0007 O   0  0  0  0  0  0  0  0  0  0  0  0
   -4.4243    0.0617   -2.0414 C   0  0  0  0  0  0  0  0  0  0  0  0
   -0.3025   -2.3875   -1.4181 C   0  0  0  0  0  0  0  0  0  0  0  0
    2.8207    1.3593    1.1788 H   0  0  0  0  0  0  0  0  0  0  0  0
    1.1595    1.1350    0.5803 H   0  0  0  0  0  0  0  0  0  0  0  0
    1.8513   -0.0236    1.7410 H   0  0  0  0  0  0  0  0  0  0  0  0
    2.5700    0.3632   -1.1880 H   0  0  0  0  0  0  0  0  0  0  0  0
    4.0951   -1.1215    0.9969 H   0  0  0  0  0  0  0  0  0  0  0  0
    4.3871   -1.3283   -0.7467 H   0  0  0  0  0  0  0  0  0  0  0  0
    4.8924    1.0908   -0.9491 H   0  0  0  0  0  0  0  0  0  0  0  0
    4.6004    1.2977    0.7945 H   0  0  0  0  0  0  0  0  0  0  0  0
    6.4208   -0.3732    1.2484 H   0  0  0  0  0  0  0  0  0  0  0  0
    6.8706   -0.1182   -1.7598 H   0  0  0  0  0  0  0  0  0  0  0  0
    7.9346   -0.9771   -0.6204 H   0  0  0  0  0  0  0  0  0  0  0  0
    6.2837   -1.5723   -0.9177 H   0  0  0  0  0  0  0  0  0  0  0  0
    7.8006    0.9776    2.3882 H   0  0  0  0  0  0  0  0  0  0  0  0
    8.5045    2.5439    1.6463 H   0  0  0  0  0  0  0  0  0  0  0  0
    6.5890    3.1356   -0.6477 H   0  0  0  0  0  0  0  0  0  0  0  0
    8.3462    2.8556   -0.6937 H   0  0  0  0  0  0  0  0  0  0  0  0
    7.2558    1.8277   -1.6543 H   0  0  0  0  0  0  0  0  0  0  0  0
    2.1496   -2.1238   -1.1937 H   0  0  0  0  0  0  0  0  0  0  0  0
    1.8880   -3.2751    0.7783 H   0  0  0  0  0  0  0  0  0  0  0  0
    2.3028   -1.7723    1.6544 H   0  0  0  0  0  0  0  0  0  0  0  0
   -0.4202   -2.9686    1.1385 H   0  0  0  0  0  0  0  0  0  0  0  0
    0.1246   -1.9048    2.4671 H   0  0  0  0  0  0  0  0  0  0  0  0
    0.2169    0.0331    1.0624 H   0  0  0  0  0  0  0  0  0  0  0  0
    0.6420    0.9367   -1.3316 H   0  0  0  0  0  0  0  0  0  0  0  0
    0.3720   -0.1640   -2.6918 H   0  0  0  0  0  0  0  0  0  0  0  0
   -1.4929    1.5353   -1.3605 H   0  0  0  0  0  0  0  0  0  0  0  0
   -1.7790    0.4521   -2.7239 H   0  0  0  0  0  0  0  0  0  0  0  0
   -2.4943   -1.3402   -1.2825 H   0  0  0  0  0  0  0  0  0  0  0  0
   -1.9504    0.3841    1.1632 H   0  0  0  0  0  0  0  0  0  0  0  0
   -2.4721   -2.5936    0.7492 H   0  0  0  0  0  0  0  0  0  0  0  0
   -2.2747   -1.7639    2.3161 H   0  0  0  0  0  0  0  0  0  0  0  0
   -4.7133   -1.6731    1.9697 H   0  0  0  0  0  0  0  0  0  0  0  0
   -2.6723    1.9698    0.0943 H   0  0  0  0  0  0  0  0  0  0  0  0
   -3.6721    2.3195   -1.3318 H   0  0  0  0  0  0  0  0  0  0  0  0
   -4.4930    1.9785    1.5515 H   0  0  0  0  0  0  0  0  0  0  0  0
   -4.8984    3.2759    0.4167 H   0  0  0  0  0  0  0  0  0  0  0  0
   -6.3361    1.6631   -0.8574 H   0  0  0  0  0  0  0  0  0  0  0  0
   -6.5744   -0.5623   -0.2468 H   0  0  0  0  0  0  0  0  0  0  0  0
   -6.3610   -0.2074    1.4845 H   0  0  0  0  0  0  0  0  0  0  0  0
   -7.9937    1.6768    0.8505 H   0  0  0  0  0  0  0  0  0  0  0  0
   -5.4178    0.5080   -1.9989 H   0  0  0  0  0  0  0  0  0  0  0  0
   -3.8462    0.5367   -2.8340 H   0  0  0  0  0  0  0  0  0  0  0  0
   -4.5137   -1.0052   -2.2463 H   0  0  0  0  0  0  0  0  0  0  0  0
   -1.3911   -2.3375   -1.3962 H   0  0  0  0  0  0  0  0  0  0  0  0
    0.0370   -2.4629   -2.4511 H   0  0  0  0  0  0  0  0  0  0  0  0
    0.0324   -3.2623   -0.8607 H   0  0  0  0  0  0  0  0  0  0  0  0
  1  2  1  0  0  0  0
  2  3  1  0  0  0  0
  3  4  1  0  0  0  0
  4  5  1  0  0  0  0
  5  6  1  0  0  0  0
  5  7  1  0  0  0  0
  7  8  2  0  0  0  0
  7  9  1  0  0  0  0
  2 10  1  0  0  0  0
 10 11  1  0  0  0  0
 11 12  1  0  0  0  0
 12 13  1  0  0  0  0
 13 14  1  0  0  0  0
 10 14  1  0  0  0  0
 14 15  1  0  0  0  0
 15 16  1  0  0  0  0
 16 17  1  0  0  0  0
 17 18  1  0  0  0  0
 13 18  1  0  0  0  0
 18 19  1  0  0  0  0
 19 20  1  0  0  0  0
 20 21  2  0  0  0  0
 21 22  1  0  0  0  0
 17 22  1  0  0  0  0
 22 23  1  0  0  0  0
 23 24  1  0  0  0  0
 24 25  1  0  0  0  0
 25 26  1  0  0  0  0
 21 26  1  0  0  0  0
 25 27  1  0  0  0  0
 22 28  1  0  0  0  0
 14 29  1  0  0  0  0
  1 30  1  0  0  0  0
  1 31  1  0  0  0  0
  1 32  1  0  0  0  0
  2 33  1  0  0  0  0
  3 34  1  0  0  0  0
  3 35  1  0  0  0  0
  4 36  1  0  0  0  0
  4 37  1  0  0  0  0
  5 38  1  0  0  0  0
  6 39  1  0  0  0  0
  6 40  1  0  0  0  0
  6 41  1  0  0  0  0
  8 42  1  0  0  0  0
  8 43  1  0  0  0  0
  9 44  1  0  0  0  0
  9 45  1  0  0  0  0
  9 46  1  0  0  0  0
 10 47  1  0  0  0  0
 11 48  1  0  0  0  0
 11 49  1  0  0  0  0
 12 50  1  0  0  0  0
 12 51  1  0  0  0  0
 13 52  1  0  0  0  0
 15 53  1  0  0  0  0
 15 54  1  0  0  0  0
 16 55  1  0  0  0  0
 16 56  1  0  0  0  0
 17 57  1  0  0  0  0
 18 58  1  0  0  0  0
 19 59  1  0  0  0  0
 19 60  1  0  0  0  0
 20 61  1  0  0  0  0
 23 62  1  0  0  0  0
 23 63  1  0  0  0  0
 24 64  1  0  0  0  0
 24 65  1  0  0  0  0
 25 66  1  0  0  0  0
 26 67  1  0  0  0  0
 26 68  1  0  0  0  0
 27 69  1  0  0  0  0
 28 70  1  0  0  0  0
 28 71  1  0  0  0  0
 28 72  1  0  0  0  0
 29 73  1  0  0  0  0
 29 74  1  0  0  0  0
 29 75  1  0  0  0  0
M  END
$$$$
