C15H26O
APtclcactv06281816503D 0   0.00000     0.00000
 
 42 41  0  0  0  0  0  0  0  0999 V2000
   -4.0768    2.1480   -0.3652 C   0  0  0  0  0  0  0  0  0  0  0  0
   -4.9058    0.9217   -0.0823 C   0  0  0  0  0  0  0  0  0  0  0  0
   -4.3749   -0.2699   -0.2023 C   0  0  0  0  0  0  0  0  0  0  0  0
   -2.9064   -0.4131   -0.5088 C   0  0  0  0  0  0  0  0  0  0  0  0
   -2.2498   -1.3058    0.5461 C   0  0  0  0  0  0  0  0  0  0  0  0
   -0.7813   -1.4490    0.2396 C   0  0  0  0  0  0  0  0  0  0  0  0
    0.0887   -0.6590    0.8184 C   0  0  0  0  0  0  0  0  0  0  0  0
    1.5635   -0.8626    0.5847 C   0  0  0  0  0  0  0  0  0  0  0  0
    2.1881    0.4463    0.0972 C   0  0  0  0  0  0  0  0  0  0  0  0
    3.6854    0.2397   -0.1400 C   0  0  0  0  0  0  0  0  0  0  0  0
    3.8890   -0.8474   -1.1972 C   0  0  0  0  0  0  0  0  0  0  0  0
    4.3005    1.5289   -0.6202 C   0  0  0  0  0  0  0  0  0  0  0  0
    5.2579    2.0954    0.0716 C   0  0  0  0  0  0  0  0  0  0  0  0
    4.3104   -0.1605    1.0812 O   0  0  0  0  0  0  0  0  0  0  0  0
   -0.3137   -2.5010   -0.7329 C   0  0  0  0  0  0  0  0  0  0  0  0
   -6.3456    1.0662    0.3386 C   0  0  0  0  0  0  0  0  0  0  0  0
   -3.6517    2.0761   -1.3664 H   0  0  0  0  0  0  0  0  0  0  0  0
   -4.7067    3.0352   -0.3007 H   0  0  0  0  0  0  0  0  0  0  0  0
   -3.2723    2.2195    0.3668 H   0  0  0  0  0  0  0  0  0  0  0  0
   -4.9896   -1.1496   -0.0814 H   0  0  0  0  0  0  0  0  0  0  0  0
   -2.7831   -0.8636   -1.4937 H   0  0  0  0  0  0  0  0  0  0  0  0
   -2.4353    0.5698   -0.4973 H   0  0  0  0  0  0  0  0  0  0  0  0
   -2.3731   -0.8553    1.5310 H   0  0  0  0  0  0  0  0  0  0  0  0
   -2.7209   -2.2886    0.5346 H   0  0  0  0  0  0  0  0  0  0  0  0
   -0.2509    0.1381    1.4631 H   0  0  0  0  0  0  0  0  0  0  0  0
    2.0403   -1.1678    1.5162 H   0  0  0  0  0  0  0  0  0  0  0  0
    1.7086   -1.6370   -0.1684 H   0  0  0  0  0  0  0  0  0  0  0  0
    1.7114    0.7516   -0.8343 H   0  0  0  0  0  0  0  0  0  0  0  0
    2.0430    1.2208    0.8504 H   0  0  0  0  0  0  0  0  0  0  0  0
    3.4123   -0.5422   -2.1287 H   0  0  0  0  0  0  0  0  0  0  0  0
    4.9557   -0.9946   -1.3662 H   0  0  0  0  0  0  0  0  0  0  0  0
    3.4440   -1.7799   -0.8499 H   0  0  0  0  0  0  0  0  0  0  0  0
    3.9521    1.9858   -1.5346 H   0  0  0  0  0  0  0  0  0  0  0  0
    5.6064    1.6385    0.9861 H   0  0  0  0  0  0  0  0  0  0  0  0
    5.6988    3.0193   -0.2725 H   0  0  0  0  0  0  0  0  0  0  0  0
    4.2211    0.4826    1.7979 H   0  0  0  0  0  0  0  0  0  0  0  0
   -0.2056   -2.0581   -1.7230 H   0  0  0  0  0  0  0  0  0  0  0  0
    0.6474   -2.8972   -0.4052 H   0  0  0  0  0  0  0  0  0  0  0  0
   -1.0446   -3.3085   -0.7739 H   0  0  0  0  0  0  0  0  0  0  0  0
   -6.6068    2.1235    0.3831 H   0  0  0  0  0  0  0  0  0  0  0  0
   -6.9878    0.5634   -0.3845 H   0  0  0  0  0  0  0  0  0  0  0  0
   -6.4836    0.6162    1.3218 H   0  0  0  0  0  0  0  0  0  0  0  0
  1  2  1  0  0  0  0
  2  3  2  0  0  0  0
  3  4  1  0  0  0  0
  4  5  1  0  0  0  0
  5  6  1  0  0  0  0
  6  7  2  0  0  0  0
  7  8  1  0  0  0  0
  8  9  1  0  0  0  0
  9 10  1  0  0  0  0
 10 11  1  0  0  0  0
 10 12  1  0  0  0  0
 12 13  2  0  0  0  0
 10 14  1  0  0  0  0
  6 15  1  0  0  0  0
  2 16  1  0  0  0  0
  1 17  1  0  0  0  0
  1 18  1  0  0  0  0
  1 19  1  0  0  0  0
  3 20  1  0  0  0  0
  4 21  1  0  0  0  0
  4 22  1  0  0  0  0
  5 23  1  0  0  0  0
  5 24  1  0  0  0  0
  7 25  1  0  0  0  0
  8 26  1  0  0  0  0
  8 27  1  0  0  0  0
  9 28  1  0  0  0  0
  9 29  1  0  0  0  0
 11 30  1  0  0  0  0
 11 31  1  0  0  0  0
 11 32  1  0  0  0  0
 12 33  1  0  0  0  0
 13 34  1  0  0  0  0
 13 35  1  0  0  0  0
 14 36  1  0  0  0  0
 15 37  1  0  0  0  0
 15 38  1  0  0  0  0
 15 39  1  0  0  0  0
 16 40  1  0  0  0  0
 16 41  1  0  0  0  0
 16 42  1  0  0  0  0
M  END
$$$$
