C13H18
APtclcactv06231803043D 0   0.00000     0.00000
 
 31 32  0  0  0  0  0  0  0  0999 V2000
    3.4587   -0.2378   -0.1534 C   0  0  0  0  0  0  0  0  0  0  0  0
    2.0706    0.3474   -0.1104 C   0  0  0  0  0  0  0  0  0  0  0  0
    1.7265    1.6004   -0.4050 C   0  0  0  0  0  0  0  0  0  0  0  0
    0.2714    1.7772   -0.2953 C   0  0  0  0  0  0  0  0  0  0  0  0
   -0.2991    0.6459    0.0359 C   0  0  0  0  0  0  0  0  0  0  0  0
    0.8079   -0.3700    0.2664 C   0  0  0  0  0  0  0  0  0  0  0  0
    0.4820   -1.5538   -0.5948 C   0  0  0  0  0  0  0  0  0  0  0  0
   -0.6987   -1.7344   -1.0971 C   0  0  0  0  0  0  0  0  0  0  0  0
   -1.9045   -0.8611   -0.9924 C   0  0  0  0  0  0  0  0  0  0  0  0
   -1.7482    0.2258    0.0758 C   0  0  0  0  0  0  0  0  0  0  0  0
   -2.0920   -0.3378    1.4560 C   0  0  0  0  0  0  0  0  0  0  0  0
   -2.6506    1.4180   -0.2489 C   0  0  0  0  0  0  0  0  0  0  0  0
    0.8590   -0.7730    1.7414 C   0  0  0  0  0  0  0  0  0  0  0  0
    4.1666    0.5288   -0.4685 H   0  0  0  0  0  0  0  0  0  0  0  0
    3.7317   -0.5990    0.8381 H   0  0  0  0  0  0  0  0  0  0  0  0
    3.4818   -1.0665   -0.8611 H   0  0  0  0  0  0  0  0  0  0  0  0
    2.4209    2.3788   -0.6851 H   0  0  0  0  0  0  0  0  0  0  0  0
   -0.2521    2.7068   -0.4634 H   0  0  0  0  0  0  0  0  0  0  0  0
    1.2555   -2.2780   -0.8031 H   0  0  0  0  0  0  0  0  0  0  0  0
   -0.8278   -2.6407   -1.6701 H   0  0  0  0  0  0  0  0  0  0  0  0
   -2.0796   -0.3844   -1.9569 H   0  0  0  0  0  0  0  0  0  0  0  0
   -2.7674   -1.4793   -0.7447 H   0  0  0  0  0  0  0  0  0  0  0  0
   -1.5844   -1.2922    1.5954 H   0  0  0  0  0  0  0  0  0  0  0  0
   -1.7670    0.3624    2.2256 H   0  0  0  0  0  0  0  0  0  0  0  0
   -3.1694   -0.4850    1.5303 H   0  0  0  0  0  0  0  0  0  0  0  0
   -3.6899    1.0904   -0.2755 H   0  0  0  0  0  0  0  0  0  0  0  0
   -2.5307    2.1838    0.5175 H   0  0  0  0  0  0  0  0  0  0  0  0
   -2.3742    1.8291   -1.2198 H   0  0  0  0  0  0  0  0  0  0  0  0
   -0.0243   -1.3622    1.9879 H   0  0  0  0  0  0  0  0  0  0  0  0
    1.7546   -1.3665    1.9251 H   0  0  0  0  0  0  0  0  0  0  0  0
    0.8831    0.1227    2.3622 H   0  0  0  0  0  0  0  0  0  0  0  0
  1  2  1  0  0  0  0
  2  3  2  0  0  0  0
  3  4  1  0  0  0  0
  4  5  2  0  0  0  0
  5  6  1  0  0  0  0
  2  6  1  0  0  0  0
  6  7  1  0  0  0  0
  7  8  2  0  0  0  0
  8  9  1  0  0  0  0
  9 10  1  0  0  0  0
  5 10  1  0  0  0  0
 10 11  1  0  0  0  0
 10 12  1  0  0  0  0
  6 13  1  0  0  0  0
  1 14  1  0  0  0  0
  1 15  1  0  0  0  0
  1 16  1  0  0  0  0
  3 17  1  0  0  0  0
  4 18  1  0  0  0  0
  7 19  1  0  0  0  0
  8 20  1  0  0  0  0
  9 21  1  0  0  0  0
  9 22  1  0  0  0  0
 11 23  1  0  0  0  0
 11 24  1  0  0  0  0
 11 25  1  0  0  0  0
 12 26  1  0  0  0  0
 12 27  1  0  0  0  0
 12 28  1  0  0  0  0
 13 29  1  0  0  0  0
 13 30  1  0  0  0  0
 13 31  1  0  0  0  0
M  END
$$$$
