C18H26O19
APtclcactv06281816503D 0   0.00000     0.00000
 
 63 65  0  0  0  0  0  0  0  0999 V2000
   -5.3445    1.8150   -0.2419 C   0  0  0  0  0  0  0  0  0  0  0  0
   -5.9987    0.4374   -0.0979 C   0  0  0  0  0  0  0  0  0  0  0  0
   -5.0883   -0.6196   -0.7285 C   0  0  0  0  0  0  0  0  0  0  0  0
   -3.8057   -0.5781   -0.0998 O   0  0  0  0  0  0  0  0  0  0  0  0
   -3.1262    0.6709   -0.2425 C   0  0  0  0  0  0  0  0  0  0  0  0
   -3.9577    1.7798    0.4076 C   0  0  0  0  0  0  0  0  0  0  0  0
   -3.3085    3.0384    0.2158 O   0  0  0  0  0  0  0  0  0  0  0  0
   -1.8503    0.5951    0.3966 O   0  0  0  0  0  0  0  0  0  0  0  0
   -0.9091   -0.2390   -0.2820 C   0  0  0  0  0  0  0  0  0  0  0  0
   -0.1682    0.5822   -1.3417 C   0  0  0  0  0  0  0  0  0  0  0  0
    0.6266    1.6927   -0.6477 C   0  0  0  0  0  0  0  0  0  0  0  0
    1.5800    1.0657    0.3729 C   0  0  0  0  0  0  0  0  0  0  0  0
    0.8297    0.2910    1.3105 O   0  0  0  0  0  0  0  0  0  0  0  0
    0.1037   -0.7914    0.7245 C   0  0  0  0  0  0  0  0  0  0  0  0
   -0.6235   -1.5513    1.8037 C   0  0  0  0  0  0  0  0  0  0  0  0
   -0.6198   -1.1397    2.9396 O   0  0  0  0  0  0  0  0  0  0  0  0
   -1.2754   -2.6855    1.5029 O   0  0  0  0  0  0  0  0  0  0  0  0
    2.5140    0.2217   -0.3034 O   0  0  0  0  0  0  0  0  0  0  0  0
    3.5233   -0.3267    0.5468 C   0  0  0  0  0  0  0  0  0  0  0  0
    3.9651   -1.6892    0.0039 C   0  0  0  0  0  0  0  0  0  0  0  0
    4.5927   -1.4960   -1.3800 C   0  0  0  0  0  0  0  0  0  0  0  0
    5.7577   -0.5088   -1.2701 C   0  0  0  0  0  0  0  0  0  0  0  0
    5.2841    0.7266   -0.7301 O   0  0  0  0  0  0  0  0  0  0  0  0
    4.7296    0.6153    0.5823 C   0  0  0  0  0  0  0  0  0  0  0  0
    4.2910    1.9758    1.0596 C   0  0  0  0  0  0  0  0  0  0  0  0
    4.3543    2.9262    0.3162 O   0  0  0  0  0  0  0  0  0  0  0  0
    3.8300    2.1317    2.3105 O   0  0  0  0  0  0  0  0  0  0  0  0
    6.7621   -1.0509   -0.4103 O   0  0  0  0  0  0  0  0  0  0  0  0
    5.0742   -2.7508   -1.8654 O   0  0  0  0  0  0  0  0  0  0  0  0
    4.9270   -2.2672    0.8886 O   0  0  0  0  0  0  0  0  0  0  0  0
    1.3793    2.4204   -1.6202 O   0  0  0  0  0  0  0  0  0  0  0  0
    0.7266   -0.2659   -2.0643 O   0  0  0  0  0  0  0  0  0  0  0  0
   -5.6971   -1.9851   -0.5386 C   0  0  0  0  0  0  0  0  0  0  0  0
   -5.1452   -2.8005    0.1617 O   0  0  0  0  0  0  0  0  0  0  0  0
   -6.8524   -2.2954   -1.1474 O   0  0  0  0  0  0  0  0  0  0  0  0
   -6.1869    0.1406    1.2872 O   0  0  0  0  0  0  0  0  0  0  0  0
   -5.2153    2.1403   -1.6274 O   0  0  0  0  0  0  0  0  0  0  0  0
   -5.9606    2.5649    0.2542 H   0  0  0  0  0  0  0  0  0  0  0  0
   -6.9632    0.4373   -0.6057 H   0  0  0  0  0  0  0  0  0  0  0  0
   -4.9779   -0.4156   -1.7935 H   0  0  0  0  0  0  0  0  0  0  0  0
   -2.9901    0.8918   -1.3012 H   0  0  0  0  0  0  0  0  0  0  0  0
   -4.0601    1.5806    1.4744 H   0  0  0  0  0  0  0  0  0  0  0  0
   -2.4217    3.0858    0.5984 H   0  0  0  0  0  0  0  0  0  0  0  0
   -1.4340   -1.0647   -0.7623 H   0  0  0  0  0  0  0  0  0  0  0  0
   -0.8887    1.0247   -2.0295 H   0  0  0  0  0  0  0  0  0  0  0  0
   -0.0604    2.3679   -0.1375 H   0  0  0  0  0  0  0  0  0  0  0  0
    2.1175    1.8538    0.9002 H   0  0  0  0  0  0  0  0  0  0  0  0
    0.7968   -1.4594    0.2133 H   0  0  0  0  0  0  0  0  0  0  0  0
   -1.7878   -3.0985    2.2114 H   0  0  0  0  0  0  0  0  0  0  0  0
    3.1248   -0.4477    1.5541 H   0  0  0  0  0  0  0  0  0  0  0  0
    3.1001   -2.3475   -0.0767 H   0  0  0  0  0  0  0  0  0  0  0  0
    3.8444   -1.1013   -2.0674 H   0  0  0  0  0  0  0  0  0  0  0  0
    6.1810   -0.3346   -2.2593 H   0  0  0  0  0  0  0  0  0  0  0  0
    5.4823    0.2165    1.2623 H   0  0  0  0  0  0  0  0  0  0  0  0
    3.5605    3.0231    2.5712 H   0  0  0  0  0  0  0  0  0  0  0  0
    7.5320   -0.4773   -0.2944 H   0  0  0  0  0  0  0  0  0  0  0  0
    5.4852   -2.7029   -2.7394 H   0  0  0  0  0  0  0  0  0  0  0  0
    5.2511   -3.1332    0.6057 H   0  0  0  0  0  0  0  0  0  0  0  0
    1.9078    3.1407   -1.2500 H   0  0  0  0  0  0  0  0  0  0  0  0
    1.2299    0.1893   -2.7532 H   0  0  0  0  0  0  0  0  0  0  0  0
   -7.2040   -3.1833   -0.9956 H   0  0  0  0  0  0  0  0  0  0  0  0
   -6.5978   -0.7189    1.4530 H   0  0  0  0  0  0  0  0  0  0  0  0
   -6.0563    2.1733   -2.1037 H   0  0  0  0  0  0  0  0  0  0  0  0
  1  2  1  0  0  0  0
  2  3  1  0  0  0  0
  3  4  1  0  0  0  0
  4  5  1  0  0  0  0
  5  6  1  0  0  0  0
  1  6  1  0  0  0  0
  6  7  1  0  0  0  0
  5  8  1  0  0  0  0
  8  9  1  0  0  0  0
  9 10  1  0  0  0  0
 10 11  1  0  0  0  0
 11 12  1  0  0  0  0
 12 13  1  0  0  0  0
 13 14  1  0  0  0  0
  9 14  1  0  0  0  0
 14 15  1  0  0  0  0
 15 16  2  0  0  0  0
 15 17  1  0  0  0  0
 12 18  1  0  0  0  0
 18 19  1  0  0  0  0
 19 20  1  0  0  0  0
 20 21  1  0  0  0  0
 21 22  1  0  0  0  0
 22 23  1  0  0  0  0
 23 24  1  0  0  0  0
 19 24  1  0  0  0  0
 24 25  1  0  0  0  0
 25 26  2  0  0  0  0
 25 27  1  0  0  0  0
 22 28  1  0  0  0  0
 21 29  1  0  0  0  0
 20 30  1  0  0  0  0
 11 31  1  0  0  0  0
 10 32  1  0  0  0  0
  3 33  1  0  0  0  0
 33 34  2  0  0  0  0
 33 35  1  0  0  0  0
  2 36  1  0  0  0  0
  1 37  1  0  0  0  0
  1 38  1  0  0  0  0
  2 39  1  0  0  0  0
  3 40  1  0  0  0  0
  5 41  1  0  0  0  0
  6 42  1  0  0  0  0
  7 43  1  0  0  0  0
  9 44  1  0  0  0  0
 10 45  1  0  0  0  0
 11 46  1  0  0  0  0
 12 47  1  0  0  0  0
 14 48  1  0  0  0  0
 17 49  1  0  0  0  0
 19 50  1  0  0  0  0
 20 51  1  0  0  0  0
 21 52  1  0  0  0  0
 22 53  1  0  0  0  0
 24 54  1  0  0  0  0
 27 55  1  0  0  0  0
 28 56  1  0  0  0  0
 29 57  1  0  0  0  0
 30 58  1  0  0  0  0
 31 59  1  0  0  0  0
 32 60  1  0  0  0  0
 35 61  1  0  0  0  0
 36 62  1  0  0  0  0
 37 63  1  0  0  0  0
M  END
$$$$
