C4H8S3
APtclcactv06231803033D 0   0.00000     0.00000
 
 15 14  0  0  0  0  0  0  0  0999 V2000
    4.1818    0.9045    0.1120 C   0  0  0  0  0  0  0  0  0  0  0  0
    3.0452    0.0890   -0.4485 C   0  0  0  0  0  0  0  0  0  0  0  0
    1.8845    0.0531    0.1815 C   0  0  0  0  0  0  0  0  0  0  0  0
    0.5555   -0.9003   -0.4737 S   0  0  0  0  0  0  0  0  0  0  0  0
   -0.9488   -0.5884    0.8835 S   0  0  0  0  0  0  0  0  0  0  0  0
   -2.0086    0.9560    0.0505 S   0  0  0  0  0  0  0  0  0  0  0  0
   -3.3303    0.1033   -0.8532 C   0  0  0  0  0  0  0  0  0  0  0  0
    4.4339    0.5401    1.1079 H   0  0  0  0  0  0  0  0  0  0  0  0
    5.0509    0.8122   -0.5394 H   0  0  0  0  0  0  0  0  0  0  0  0
    3.8828    1.9509    0.1728 H   0  0  0  0  0  0  0  0  0  0  0  0
    3.1795   -0.4661   -1.3651 H   0  0  0  0  0  0  0  0  0  0  0  0
    1.7503    0.6082    1.0982 H   0  0  0  0  0  0  0  0  0  0  0  0
   -3.9674    0.8387   -1.3446 H   0  0  0  0  0  0  0  0  0  0  0  0
   -2.8916   -0.5557   -1.6023 H   0  0  0  0  0  0  0  0  0  0  0  0
   -3.9261   -0.4853   -0.1556 H   0  0  0  0  0  0  0  0  0  0  0  0
  1  2  1  0  0  0  0
  2  3  2  0  0  0  0
  3  4  1  0  0  0  0
  4  5  1  0  0  0  0
  5  6  1  0  0  0  0
  6  7  1  0  0  0  0
  1  8  1  0  0  0  0
  1  9  1  0  0  0  0
  1 10  1  0  0  0  0
  2 11  1  0  0  0  0
  3 12  1  0  0  0  0
  7 13  1  0  0  0  0
  7 14  1  0  0  0  0
  7 15  1  0  0  0  0
M  END
$$$$
