C7H5Cl3O2S
APtclcactv06281816503D 0   0.00000     0.00000
 
 18 18  0  0  0  0  0  0  0  0999 V2000
    2.6119    0.0023    1.6755 C   0  0  0  0  0  0  0  0  0  0  0  0
    2.1248   -0.0002   -0.0719 S   0  0  0  0  0  0  0  0  0  0  0  0
    2.4633    1.2360   -0.6856 O   0  0  0  0  0  0  0  0  0  0  0  0
    2.4633   -1.2380   -0.6822 O   0  0  0  0  0  0  0  0  0  0  0  0
    0.3632   -0.0001   -0.0373 C   0  0  0  0  0  0  0  0  0  0  0  0
   -0.3283    1.1980   -0.0254 C   0  0  0  0  0  0  0  0  0  0  0  0
   -1.7115    1.1981    0.0019 C   0  0  0  0  0  0  0  0  0  0  0  0
   -2.4031    0.0001    0.0167 C   0  0  0  0  0  0  0  0  0  0  0  0
   -1.7116   -1.1980    0.0039 C   0  0  0  0  0  0  0  0  0  0  0  0
   -0.3285   -1.1981   -0.0277 C   0  0  0  0  0  0  0  0  0  0  0  0
    0.5393   -2.7015   -0.0438 Cl  0  0  0  0  0  0  0  0  0  0  0  0
   -4.1387    0.0002    0.0520 Cl  0  0  0  0  0  0  0  0  0  0  0  0
    0.5395    2.7014   -0.0440 Cl  0  0  0  0  0  0  0  0  0  0  0  0
    2.2145    0.8929    2.1622 H   0  0  0  0  0  0  0  0  0  0  0  0
    2.2145   -0.8870    2.1647 H   0  0  0  0  0  0  0  0  0  0  0  0
    3.6994    0.0023    1.7495 H   0  0  0  0  0  0  0  0  0  0  0  0
   -2.2513    2.1334    0.0119 H   0  0  0  0  0  0  0  0  0  0  0  0
   -2.2515   -2.1333    0.0154 H   0  0  0  0  0  0  0  0  0  0  0  0
  1  2  1  0  0  0  0
  2  3  2  0  0  0  0
  2  4  2  0  0  0  0
  2  5  1  0  0  0  0
  5  6  2  0  0  0  0
  6  7  1  0  0  0  0
  7  8  2  0  0  0  0
  8  9  1  0  0  0  0
  9 10  2  0  0  0  0
  5 10  1  0  0  0  0
 10 11  1  0  0  0  0
  8 12  1  0  0  0  0
  6 13  1  0  0  0  0
  1 14  1  0  0  0  0
  1 15  1  0  0  0  0
  1 16  1  0  0  0  0
  7 17  1  0  0  0  0
  9 18  1  0  0  0  0
M  END
$$$$
