C10H16
APtclcactv06231803043D 0   0.00000     0.00000
 
 26 27  0  0  0  0  0  0  0  0999 V2000
    3.1700    0.6256   -0.2679 C   0  0  0  0  0  0  0  0  0  0  0  0
    1.8583    0.1897    0.3882 C   0  0  0  0  0  0  0  0  0  0  0  0
    0.7461    1.1855    0.0266 C   0  0  0  0  0  0  0  0  0  0  0  0
   -0.5328    0.7372    0.7548 C   0  0  0  0  0  0  0  0  0  0  0  0
   -0.7794   -0.7809    0.7617 C   0  0  0  0  0  0  0  0  0  0  0  0
   -1.6470    0.1356   -0.1037 C   0  0  0  0  0  0  0  0  0  0  0  0
   -3.0901    0.3723    0.3461 C   0  0  0  0  0  0  0  0  0  0  0  0
   -1.4268    0.0931   -1.6172 C   0  0  0  0  0  0  0  0  0  0  0  0
    0.2515   -1.6275    0.0561 C   0  0  0  0  0  0  0  0  0  0  0  0
    1.4702   -1.1773   -0.1173 C   0  0  0  0  0  0  0  0  0  0  0  0
    3.4426    1.6186    0.0895 H   0  0  0  0  0  0  0  0  0  0  0  0
    3.9579   -0.0822   -0.0101 H   0  0  0  0  0  0  0  0  0  0  0  0
    3.0441    0.6508   -1.3503 H   0  0  0  0  0  0  0  0  0  0  0  0
    1.9837    0.1592    1.4705 H   0  0  0  0  0  0  0  0  0  0  0  0
    1.0259    2.1872    0.3529 H   0  0  0  0  0  0  0  0  0  0  0  0
    0.5799    1.1794   -1.0507 H   0  0  0  0  0  0  0  0  0  0  0  0
   -0.8017    1.3080    1.6436 H   0  0  0  0  0  0  0  0  0  0  0  0
   -1.2330   -1.2175    1.6514 H   0  0  0  0  0  0  0  0  0  0  0  0
   -3.2360   -0.0543    1.3385 H   0  0  0  0  0  0  0  0  0  0  0  0
   -3.2897    1.4434    0.3781 H   0  0  0  0  0  0  0  0  0  0  0  0
   -3.7728   -0.1036   -0.3579 H   0  0  0  0  0  0  0  0  0  0  0  0
   -2.2979   -0.3511   -2.0987 H   0  0  0  0  0  0  0  0  0  0  0  0
   -1.2819    1.1064   -1.9918 H   0  0  0  0  0  0  0  0  0  0  0  0
   -0.5438   -0.5061   -1.8392 H   0  0  0  0  0  0  0  0  0  0  0  0
   -0.0161   -2.6086   -0.3076 H   0  0  0  0  0  0  0  0  0  0  0  0
    2.2008   -1.7888   -0.6259 H   0  0  0  0  0  0  0  0  0  0  0  0
  1  2  1  0  0  0  0
  2  3  1  0  0  0  0
  3  4  1  0  0  0  0
  4  5  1  0  0  0  0
  5  6  1  0  0  0  0
  4  6  1  0  0  0  0
  6  7  1  0  0  0  0
  6  8  1  0  0  0  0
  5  9  1  0  0  0  0
  9 10  2  0  0  0  0
  2 10  1  0  0  0  0
  1 11  1  0  0  0  0
  1 12  1  0  0  0  0
  1 13  1  0  0  0  0
  2 14  1  0  0  0  0
  3 15  1  0  0  0  0
  3 16  1  0  0  0  0
  4 17  1  0  0  0  0
  5 18  1  0  0  0  0
  7 19  1  0  0  0  0
  7 20  1  0  0  0  0
  7 21  1  0  0  0  0
  8 22  1  0  0  0  0
  8 23  1  0  0  0  0
  8 24  1  0  0  0  0
  9 25  1  0  0  0  0
 10 26  1  0  0  0  0
M  END
$$$$
