C15H24
APtclcactv06231803043D 0   0.00000     0.00000
 
 39 41  0  0  0  0  0  0  0  0999 V2000
   -2.1605    2.6716    0.7883 C   0  0  0  0  0  0  0  0  0  0  0  0
   -2.0991    1.2418    0.3162 C   0  0  0  0  0  0  0  0  0  0  0  0
   -2.9053    0.7227   -0.5688 C   0  0  0  0  0  0  0  0  0  0  0  0
   -2.5751   -0.7298   -0.8206 C   0  0  0  0  0  0  0  0  0  0  0  0
   -1.6770   -1.1443    0.3667 C   0  0  0  0  0  0  0  0  0  0  0  0
   -1.0925    0.2260    0.8014 C   0  0  0  0  0  0  0  0  0  0  0  0
    0.0620   -0.0301   -0.1797 C   0  0  0  0  0  0  0  0  0  0  0  0
   -0.2556   -1.5359   -0.0574 C   0  0  0  0  0  0  0  0  0  0  0  0
    0.6254   -2.0154    1.1207 C   0  0  0  0  0  0  0  0  0  0  0  0
    1.9317   -1.2065    0.9257 C   0  0  0  0  0  0  0  0  0  0  0  0
    1.4502    0.1769    0.4511 C   0  0  0  0  0  0  0  0  0  0  0  0
    2.4193    0.7400   -0.5903 C   0  0  0  0  0  0  0  0  0  0  0  0
    1.9102    2.0973   -1.0795 C   0  0  0  0  0  0  0  0  0  0  0  0
    3.8027    0.9114    0.0404 C   0  0  0  0  0  0  0  0  0  0  0  0
   -0.1481   -2.3618   -1.3408 C   0  0  0  0  0  0  0  0  0  0  0  0
   -2.9735    3.1881    0.2782 H   0  0  0  0  0  0  0  0  0  0  0  0
   -2.3354    2.6919    1.8640 H   0  0  0  0  0  0  0  0  0  0  0  0
   -1.2168    3.1691    0.5643 H   0  0  0  0  0  0  0  0  0  0  0  0
   -3.7042    1.2609   -1.0571 H   0  0  0  0  0  0  0  0  0  0  0  0
   -3.4857   -1.3287   -0.8345 H   0  0  0  0  0  0  0  0  0  0  0  0
   -2.0346   -0.8382   -1.7609 H   0  0  0  0  0  0  0  0  0  0  0  0
   -2.1561   -1.7578    1.1297 H   0  0  0  0  0  0  0  0  0  0  0  0
   -0.8218    0.3230    1.8528 H   0  0  0  0  0  0  0  0  0  0  0  0
   -0.0618    0.4033   -1.1722 H   0  0  0  0  0  0  0  0  0  0  0  0
    0.1593   -1.7714    2.0754 H   0  0  0  0  0  0  0  0  0  0  0  0
    0.8194   -3.0854    1.0470 H   0  0  0  0  0  0  0  0  0  0  0  0
    2.4715   -1.1206    1.8687 H   0  0  0  0  0  0  0  0  0  0  0  0
    2.5596   -1.6731    0.1667 H   0  0  0  0  0  0  0  0  0  0  0  0
    1.3763    0.8576    1.2992 H   0  0  0  0  0  0  0  0  0  0  0  0
    2.4870    0.0521   -1.4331 H   0  0  0  0  0  0  0  0  0  0  0  0
    1.8425    2.7852   -0.2368 H   0  0  0  0  0  0  0  0  0  0  0  0
    2.6006    2.4985   -1.8215 H   0  0  0  0  0  0  0  0  0  0  0  0
    0.9247    1.9752   -1.5289 H   0  0  0  0  0  0  0  0  0  0  0  0
    4.1654   -0.0556    0.3889 H   0  0  0  0  0  0  0  0  0  0  0  0
    4.4931    1.3125   -0.7015 H   0  0  0  0  0  0  0  0  0  0  0  0
    3.7351    1.5993    0.8832 H   0  0  0  0  0  0  0  0  0  0  0  0
    0.8926   -2.3990   -1.6628 H   0  0  0  0  0  0  0  0  0  0  0  0
   -0.5067   -3.3738   -1.1528 H   0  0  0  0  0  0  0  0  0  0  0  0
   -0.7535   -1.9009   -2.1213 H   0  0  0  0  0  0  0  0  0  0  0  0
  1  2  1  0  0  0  0
  2  3  2  0  0  0  0
  3  4  1  0  0  0  0
  4  5  1  0  0  0  0
  5  6  1  0  0  0  0
  2  6  1  0  0  0  0
  6  7  1  0  0  0  0
  7  8  1  0  0  0  0
  5  8  1  0  0  0  0
  8  9  1  0  0  0  0
  9 10  1  0  0  0  0
 10 11  1  0  0  0  0
  7 11  1  0  0  0  0
 11 12  1  0  0  0  0
 12 13  1  0  0  0  0
 12 14  1  0  0  0  0
  8 15  1  0  0  0  0
  1 16  1  0  0  0  0
  1 17  1  0  0  0  0
  1 18  1  0  0  0  0
  3 19  1  0  0  0  0
  4 20  1  0  0  0  0
  4 21  1  0  0  0  0
  5 22  1  0  0  0  0
  6 23  1  0  0  0  0
  7 24  1  0  0  0  0
  9 25  1  0  0  0  0
  9 26  1  0  0  0  0
 10 27  1  0  0  0  0
 10 28  1  0  0  0  0
 11 29  1  0  0  0  0
 12 30  1  0  0  0  0
 13 31  1  0  0  0  0
 13 32  1  0  0  0  0
 13 33  1  0  0  0  0
 14 34  1  0  0  0  0
 14 35  1  0  0  0  0
 14 36  1  0  0  0  0
 15 37  1  0  0  0  0
 15 38  1  0  0  0  0
 15 39  1  0  0  0  0
M  END
$$$$
