C26H52O3
APtclcactv06281816503D 0   0.00000     0.00000
 
 81 80  0  0  0  0  0  0  0  0999 V2000
    1.1533   -0.5010   -0.0000 C   0  0  0  0  0  0  0  0  0  0  0  0
   -0.1027    0.3727    0.0000 C   0  0  0  0  0  0  0  0  0  0  0  0
   -1.3451   -0.5203   -0.0000 C   0  0  0  0  0  0  0  0  0  0  0  0
   -2.6011    0.3534    0.0000 C   0  0  0  0  0  0  0  0  0  0  0  0
   -3.8435   -0.5396    0.0000 C   0  0  0  0  0  0  0  0  0  0  0  0
   -5.0995    0.3341    0.0000 C   0  0  0  0  0  0  0  0  0  0  0  0
   -6.3419   -0.5589    0.0000 C   0  0  0  0  0  0  0  0  0  0  0  0
   -7.5979    0.3147   -0.0000 C   0  0  0  0  0  0  0  0  0  0  0  0
   -8.8403   -0.5782    0.0000 C   0  0  0  0  0  0  0  0  0  0  0  0
  -10.0963    0.2954   -0.0000 C   0  0  0  0  0  0  0  0  0  0  0  0
  -11.3387   -0.5975    0.0000 C   0  0  0  0  0  0  0  0  0  0  0  0
  -12.5947    0.2761   -0.0000 C   0  0  0  0  0  0  0  0  0  0  0  0
  -13.8371   -0.6169    0.0000 C   0  0  0  0  0  0  0  0  0  0  0  0
  -15.0743    0.2437   -0.0000 C   0  0  0  0  0  0  0  0  0  0  0  0
  -14.9727    1.4476   -0.0000 O   0  0  0  0  0  0  0  0  0  0  0  0
  -16.2890   -0.3274    0.0000 O   0  0  0  0  0  0  0  0  0  0  0  0
    2.3957    0.3920    0.0000 C   0  0  0  0  0  0  0  0  0  0  0  0
    3.6517   -0.4817   -0.0000 C   0  0  0  0  0  0  0  0  0  0  0  0
    4.8941    0.4113    0.0000 C   0  0  0  0  0  0  0  0  0  0  0  0
    6.1501   -0.4623   -0.0000 C   0  0  0  0  0  0  0  0  0  0  0  0
    7.3925    0.4306    0.0000 C   0  0  0  0  0  0  0  0  0  0  0  0
    8.6485   -0.4430   -0.0000 C   0  0  0  0  0  0  0  0  0  0  0  0
    9.8909    0.4499    0.0000 C   0  0  0  0  0  0  0  0  0  0  0  0
   11.1469   -0.4237   -0.0000 C   0  0  0  0  0  0  0  0  0  0  0  0
   12.3893    0.4693    0.0000 C   0  0  0  0  0  0  0  0  0  0  0  0
   13.6453   -0.4044   -0.0000 C   0  0  0  0  0  0  0  0  0  0  0  0
   14.8877    0.4886    0.0000 C   0  0  0  0  0  0  0  0  0  0  0  0
   16.1437   -0.3851   -0.0000 C   0  0  0  0  0  0  0  0  0  0  0  0
   17.3041    0.4489    0.0000 O   0  0  0  0  0  0  0  0  0  0  0  0
    1.1582   -1.1303    0.8900 H   0  0  0  0  0  0  0  0  0  0  0  0
    1.1582   -1.1303   -0.8900 H   0  0  0  0  0  0  0  0  0  0  0  0
   -0.1076    1.0020    0.8900 H   0  0  0  0  0  0  0  0  0  0  0  0
   -0.1076    1.0020   -0.8900 H   0  0  0  0  0  0  0  0  0  0  0  0
   -1.3402   -1.1496   -0.8900 H   0  0  0  0  0  0  0  0  0  0  0  0
   -1.3402   -1.1496    0.8900 H   0  0  0  0  0  0  0  0  0  0  0  0
   -2.6060    0.9827    0.8900 H   0  0  0  0  0  0  0  0  0  0  0  0
   -2.6060    0.9827   -0.8900 H   0  0  0  0  0  0  0  0  0  0  0  0
   -3.8386   -1.1689   -0.8900 H   0  0  0  0  0  0  0  0  0  0  0  0
   -3.8386   -1.1689    0.8900 H   0  0  0  0  0  0  0  0  0  0  0  0
   -5.1044    0.9634    0.8900 H   0  0  0  0  0  0  0  0  0  0  0  0
   -5.1044    0.9634   -0.8900 H   0  0  0  0  0  0  0  0  0  0  0  0
   -6.3370   -1.1882   -0.8900 H   0  0  0  0  0  0  0  0  0  0  0  0
   -6.3370   -1.1882    0.8900 H   0  0  0  0  0  0  0  0  0  0  0  0
   -7.6028    0.9440    0.8900 H   0  0  0  0  0  0  0  0  0  0  0  0
   -7.6028    0.9440   -0.8900 H   0  0  0  0  0  0  0  0  0  0  0  0
   -8.8354   -1.2075   -0.8900 H   0  0  0  0  0  0  0  0  0  0  0  0
   -8.8354   -1.2075    0.8900 H   0  0  0  0  0  0  0  0  0  0  0  0
  -10.1012    0.9247    0.8900 H   0  0  0  0  0  0  0  0  0  0  0  0
  -10.1012    0.9247   -0.8900 H   0  0  0  0  0  0  0  0  0  0  0  0
  -11.3338   -1.2268   -0.8900 H   0  0  0  0  0  0  0  0  0  0  0  0
  -11.3338   -1.2268    0.8900 H   0  0  0  0  0  0  0  0  0  0  0  0
  -12.5996    0.9054    0.8900 H   0  0  0  0  0  0  0  0  0  0  0  0
  -12.5996    0.9054   -0.8900 H   0  0  0  0  0  0  0  0  0  0  0  0
  -13.8323   -1.2462   -0.8900 H   0  0  0  0  0  0  0  0  0  0  0  0
  -13.8323   -1.2462    0.8900 H   0  0  0  0  0  0  0  0  0  0  0  0
  -17.0529    0.2656   -0.0000 H   0  0  0  0  0  0  0  0  0  0  0  0
    2.3908    1.0213   -0.8900 H   0  0  0  0  0  0  0  0  0  0  0  0
    2.3908    1.0213    0.8900 H   0  0  0  0  0  0  0  0  0  0  0  0
    3.6566   -1.1110    0.8900 H   0  0  0  0  0  0  0  0  0  0  0  0
    3.6566   -1.1110   -0.8900 H   0  0  0  0  0  0  0  0  0  0  0  0
    4.8892    1.0406   -0.8900 H   0  0  0  0  0  0  0  0  0  0  0  0
    4.8892    1.0406    0.8900 H   0  0  0  0  0  0  0  0  0  0  0  0
    6.1550   -1.0916    0.8900 H   0  0  0  0  0  0  0  0  0  0  0  0
    6.1550   -1.0916   -0.8900 H   0  0  0  0  0  0  0  0  0  0  0  0
    7.3876    1.0599   -0.8900 H   0  0  0  0  0  0  0  0  0  0  0  0
    7.3876    1.0599    0.8900 H   0  0  0  0  0  0  0  0  0  0  0  0
    8.6534   -1.0723    0.8900 H   0  0  0  0  0  0  0  0  0  0  0  0
    8.6534   -1.0723   -0.8900 H   0  0  0  0  0  0  0  0  0  0  0  0
    9.8860    1.0792   -0.8900 H   0  0  0  0  0  0  0  0  0  0  0  0
    9.8860    1.0792    0.8900 H   0  0  0  0  0  0  0  0  0  0  0  0
   11.1518   -1.0530    0.8900 H   0  0  0  0  0  0  0  0  0  0  0  0
   11.1518   -1.0530   -0.8900 H   0  0  0  0  0  0  0  0  0  0  0  0
   12.3844    1.0986   -0.8900 H   0  0  0  0  0  0  0  0  0  0  0  0
   12.3844    1.0986    0.8900 H   0  0  0  0  0  0  0  0  0  0  0  0
   13.6502   -1.0337    0.8900 H   0  0  0  0  0  0  0  0  0  0  0  0
   13.6502   -1.0337   -0.8900 H   0  0  0  0  0  0  0  0  0  0  0  0
   14.8828    1.1179   -0.8900 H   0  0  0  0  0  0  0  0  0  0  0  0
   14.8828    1.1179    0.8900 H   0  0  0  0  0  0  0  0  0  0  0  0
   16.1486   -1.0144    0.8900 H   0  0  0  0  0  0  0  0  0  0  0  0
   16.1486   -1.0144   -0.8900 H   0  0  0  0  0  0  0  0  0  0  0  0
   18.1391   -0.0388   -0.0000 H   0  0  0  0  0  0  0  0  0  0  0  0
  1  2  1  0  0  0  0
  2  3  1  0  0  0  0
  3  4  1  0  0  0  0
  4  5  1  0  0  0  0
  5  6  1  0  0  0  0
  6  7  1  0  0  0  0
  7  8  1  0  0  0  0
  8  9  1  0  0  0  0
  9 10  1  0  0  0  0
 10 11  1  0  0  0  0
 11 12  1  0  0  0  0
 12 13  1  0  0  0  0
 13 14  1  0  0  0  0
 14 15  2  0  0  0  0
 14 16  1  0  0  0  0
  1 17  1  0  0  0  0
 17 18  1  0  0  0  0
 18 19  1  0  0  0  0
 19 20  1  0  0  0  0
 20 21  1  0  0  0  0
 21 22  1  0  0  0  0
 22 23  1  0  0  0  0
 23 24  1  0  0  0  0
 24 25  1  0  0  0  0
 25 26  1  0  0  0  0
 26 27  1  0  0  0  0
 27 28  1  0  0  0  0
 28 29  1  0  0  0  0
  1 30  1  0  0  0  0
  1 31  1  0  0  0  0
  2 32  1  0  0  0  0
  2 33  1  0  0  0  0
  3 34  1  0  0  0  0
  3 35  1  0  0  0  0
  4 36  1  0  0  0  0
  4 37  1  0  0  0  0
  5 38  1  0  0  0  0
  5 39  1  0  0  0  0
  6 40  1  0  0  0  0
  6 41  1  0  0  0  0
  7 42  1  0  0  0  0
  7 43  1  0  0  0  0
  8 44  1  0  0  0  0
  8 45  1  0  0  0  0
  9 46  1  0  0  0  0
  9 47  1  0  0  0  0
 10 48  1  0  0  0  0
 10 49  1  0  0  0  0
 11 50  1  0  0  0  0
 11 51  1  0  0  0  0
 12 52  1  0  0  0  0
 12 53  1  0  0  0  0
 13 54  1  0  0  0  0
 13 55  1  0  0  0  0
 16 56  1  0  0  0  0
 17 57  1  0  0  0  0
 17 58  1  0  0  0  0
 18 59  1  0  0  0  0
 18 60  1  0  0  0  0
 19 61  1  0  0  0  0
 19 62  1  0  0  0  0
 20 63  1  0  0  0  0
 20 64  1  0  0  0  0
 21 65  1  0  0  0  0
 21 66  1  0  0  0  0
 22 67  1  0  0  0  0
 22 68  1  0  0  0  0
 23 69  1  0  0  0  0
 23 70  1  0  0  0  0
 24 71  1  0  0  0  0
 24 72  1  0  0  0  0
 25 73  1  0  0  0  0
 25 74  1  0  0  0  0
 26 75  1  0  0  0  0
 26 76  1  0  0  0  0
 27 77  1  0  0  0  0
 27 78  1  0  0  0  0
 28 79  1  0  0  0  0
 28 80  1  0  0  0  0
 29 81  1  0  0  0  0
M  END
$$$$
