C14H26O2
APtclcactv06281816433D 0   0.00000     0.00000
 
 42 41  0  0  0  0  0  0  0  0999 V2000
   -7.7765    2.4369   -0.4079 C   0  0  0  0  0  0  0  0  0  0  0  0
   -7.3357    1.1265    0.2474 C   0  0  0  0  0  0  0  0  0  0  0  0
   -5.9977    0.6834   -0.3478 C   0  0  0  0  0  0  0  0  0  0  0  0
   -5.5570   -0.6270    0.3075 C   0  0  0  0  0  0  0  0  0  0  0  0
   -4.2391   -1.0634   -0.2787 C   0  0  0  0  0  0  0  0  0  0  0  0
   -3.2179   -1.2979    0.5076 C   0  0  0  0  0  0  0  0  0  0  0  0
   -1.9000   -1.7343   -0.0787 C   0  0  0  0  0  0  0  0  0  0  0  0
   -0.7948   -0.7847    0.3878 C   0  0  0  0  0  0  0  0  0  0  0  0
    0.5432   -1.2278   -0.2074 C   0  0  0  0  0  0  0  0  0  0  0  0
    1.6484   -0.2781    0.2591 C   0  0  0  0  0  0  0  0  0  0  0  0
    2.9864   -0.7212   -0.3362 C   0  0  0  0  0  0  0  0  0  0  0  0
    4.0916    0.2285    0.1303 C   0  0  0  0  0  0  0  0  0  0  0  0
    5.4296   -0.2146   -0.4649 C   0  0  0  0  0  0  0  0  0  0  0  0
    6.5181    0.7208   -0.0054 C   0  0  0  0  0  0  0  0  0  0  0  0
    6.2512    1.6468    0.7233 O   0  0  0  0  0  0  0  0  0  0  0  0
    7.7843    0.5252   -0.4058 O   0  0  0  0  0  0  0  0  0  0  0  0
   -7.0253    3.2052   -0.2251 H   0  0  0  0  0  0  0  0  0  0  0  0
   -7.8886    2.2864   -1.4817 H   0  0  0  0  0  0  0  0  0  0  0  0
   -8.7298    2.7525    0.0161 H   0  0  0  0  0  0  0  0  0  0  0  0
   -7.2237    1.2769    1.3212 H   0  0  0  0  0  0  0  0  0  0  0  0
   -8.0870    0.3581    0.0646 H   0  0  0  0  0  0  0  0  0  0  0  0
   -6.1098    0.5329   -1.4215 H   0  0  0  0  0  0  0  0  0  0  0  0
   -5.2465    1.4517   -0.1650 H   0  0  0  0  0  0  0  0  0  0  0  0
   -5.4449   -0.4766    1.3813 H   0  0  0  0  0  0  0  0  0  0  0  0
   -6.3082   -1.3953    0.1247 H   0  0  0  0  0  0  0  0  0  0  0  0
   -4.1365   -1.1829   -1.3472 H   0  0  0  0  0  0  0  0  0  0  0  0
   -3.3205   -1.1785    1.5761 H   0  0  0  0  0  0  0  0  0  0  0  0
   -1.6725   -2.7474    0.2530 H   0  0  0  0  0  0  0  0  0  0  0  0
   -1.9617   -1.7135   -1.1667 H   0  0  0  0  0  0  0  0  0  0  0  0
   -1.0224    0.2284    0.0562 H   0  0  0  0  0  0  0  0  0  0  0  0
   -0.7332   -0.8055    1.4759 H   0  0  0  0  0  0  0  0  0  0  0  0
    0.7707   -2.2408    0.1242 H   0  0  0  0  0  0  0  0  0  0  0  0
    0.4815   -1.2069   -1.2955 H   0  0  0  0  0  0  0  0  0  0  0  0
    1.4208    0.7350   -0.0726 H   0  0  0  0  0  0  0  0  0  0  0  0
    1.7100   -0.2990    1.3471 H   0  0  0  0  0  0  0  0  0  0  0  0
    3.2139   -1.7343   -0.0045 H   0  0  0  0  0  0  0  0  0  0  0  0
    2.9247   -0.7003   -1.4242 H   0  0  0  0  0  0  0  0  0  0  0  0
    3.8640    1.2416   -0.2013 H   0  0  0  0  0  0  0  0  0  0  0  0
    4.1532    0.2076    1.2184 H   0  0  0  0  0  0  0  0  0  0  0  0
    5.6571   -1.2277   -0.1332 H   0  0  0  0  0  0  0  0  0  0  0  0
    5.3679   -0.1937   -1.5530 H   0  0  0  0  0  0  0  0  0  0  0  0
    8.4479    1.1512   -0.0850 H   0  0  0  0  0  0  0  0  0  0  0  0
  1  2  1  0  0  0  0
  2  3  1  0  0  0  0
  3  4  1  0  0  0  0
  4  5  1  0  0  0  0
  5  6  2  0  0  0  0
  6  7  1  0  0  0  0
  7  8  1  0  0  0  0
  8  9  1  0  0  0  0
  9 10  1  0  0  0  0
 10 11  1  0  0  0  0
 11 12  1  0  0  0  0
 12 13  1  0  0  0  0
 13 14  1  0  0  0  0
 14 15  2  0  0  0  0
 14 16  1  0  0  0  0
  1 17  1  0  0  0  0
  1 18  1  0  0  0  0
  1 19  1  0  0  0  0
  2 20  1  0  0  0  0
  2 21  1  0  0  0  0
  3 22  1  0  0  0  0
  3 23  1  0  0  0  0
  4 24  1  0  0  0  0
  4 25  1  0  0  0  0
  5 26  1  0  0  0  0
  6 27  1  0  0  0  0
  7 28  1  0  0  0  0
  7 29  1  0  0  0  0
  8 30  1  0  0  0  0
  8 31  1  0  0  0  0
  9 32  1  0  0  0  0
  9 33  1  0  0  0  0
 10 34  1  0  0  0  0
 10 35  1  0  0  0  0
 11 36  1  0  0  0  0
 11 37  1  0  0  0  0
 12 38  1  0  0  0  0
 12 39  1  0  0  0  0
 13 40  1  0  0  0  0
 13 41  1  0  0  0  0
 16 42  1  0  0  0  0
M  END
$$$$
