C20H32O3
APtclcactv06281816513D 0   0.00000     0.00000
 
 55 54  0  0  0  0  0  0  0  0999 V2000
    9.5214    3.9812   -0.5940 C   0  0  0  0  0  0  0  0  0  0  0  0
    8.1195    3.4510   -0.2868 C   0  0  0  0  0  0  0  0  0  0  0  0
    8.2054    1.9706    0.0902 C   0  0  0  0  0  0  0  0  0  0  0  0
    6.8035    1.4404    0.3975 C   0  0  0  0  0  0  0  0  0  0  0  0
    6.8894   -0.0399    0.7745 C   0  0  0  0  0  0  0  0  0  0  0  0
    5.5086   -0.5622    1.0771 C   0  0  0  0  0  0  0  0  0  0  0  0
    5.0506   -1.6109    0.4395 C   0  0  0  0  0  0  0  0  0  0  0  0
    3.6698   -2.1332    0.7421 C   0  0  0  0  0  0  0  0  0  0  0  0
    2.8567   -2.2049   -0.5520 C   0  0  0  0  0  0  0  0  0  0  0  0
    1.5199   -2.8411   -0.2707 C   0  0  0  0  0  0  0  0  0  0  0  0
    0.3998   -2.2065   -0.5996 C   0  0  0  0  0  0  0  0  0  0  0  0
   -0.9053   -2.8276   -0.3250 C   0  0  0  0  0  0  0  0  0  0  0  0
   -2.0254   -2.1930   -0.6540 C   0  0  0  0  0  0  0  0  0  0  0  0
   -3.3622   -2.8292   -0.3727 C   0  0  0  0  0  0  0  0  0  0  0  0
   -4.2044   -1.8866    0.4479 C   0  0  0  0  0  0  0  0  0  0  0  0
   -5.3958   -1.5389    0.0287 C   0  0  0  0  0  0  0  0  0  0  0  0
   -6.2379   -0.5963    0.8493 C   0  0  0  0  0  0  0  0  0  0  0  0
   -6.6545    0.5972   -0.0127 C   0  0  0  0  0  0  0  0  0  0  0  0
   -7.5096    1.5542    0.8204 C   0  0  0  0  0  0  0  0  0  0  0  0
   -7.9199    2.7298   -0.0285 C   0  0  0  0  0  0  0  0  0  0  0  0
   -7.5649    2.7954   -1.1816 O   0  0  0  0  0  0  0  0  0  0  0  0
   -8.6797    3.7039    0.4963 O   0  0  0  0  0  0  0  0  0  0  0  0
    2.6581   -0.8855   -1.0635 O   0  0  0  0  0  0  0  0  0  0  0  0
   10.1541    3.8665    0.2861 H   0  0  0  0  0  0  0  0  0  0  0  0
    9.9486    3.4190   -1.4244 H   0  0  0  0  0  0  0  0  0  0  0  0
    9.4602    5.0358   -0.8626 H   0  0  0  0  0  0  0  0  0  0  0  0
    7.6923    4.0132    0.5436 H   0  0  0  0  0  0  0  0  0  0  0  0
    7.4867    3.5656   -1.1669 H   0  0  0  0  0  0  0  0  0  0  0  0
    8.6326    1.4084   -0.7401 H   0  0  0  0  0  0  0  0  0  0  0  0
    8.8382    1.8560    0.9703 H   0  0  0  0  0  0  0  0  0  0  0  0
    6.3763    2.0026    1.2279 H   0  0  0  0  0  0  0  0  0  0  0  0
    6.1707    1.5550   -0.4826 H   0  0  0  0  0  0  0  0  0  0  0  0
    7.3166   -0.6022   -0.0559 H   0  0  0  0  0  0  0  0  0  0  0  0
    7.5222   -0.1546    1.6546 H   0  0  0  0  0  0  0  0  0  0  0  0
    4.8965   -0.0719    1.8197 H   0  0  0  0  0  0  0  0  0  0  0  0
    5.6627   -2.1012   -0.3031 H   0  0  0  0  0  0  0  0  0  0  0  0
    3.7456   -3.1288    1.1792 H   0  0  0  0  0  0  0  0  0  0  0  0
    3.1745   -1.4642    1.4458 H   0  0  0  0  0  0  0  0  0  0  0  0
    3.3959   -2.8023   -1.2872 H   0  0  0  0  0  0  0  0  0  0  0  0
    1.4722   -3.8128    0.1983 H   0  0  0  0  0  0  0  0  0  0  0  0
    0.4474   -1.2348   -1.0686 H   0  0  0  0  0  0  0  0  0  0  0  0
   -0.9529   -3.7993    0.1440 H   0  0  0  0  0  0  0  0  0  0  0  0
   -1.9777   -1.2213   -1.1229 H   0  0  0  0  0  0  0  0  0  0  0  0
   -3.8684   -3.0427   -1.3142 H   0  0  0  0  0  0  0  0  0  0  0  0
   -3.2140   -3.7577    0.1788 H   0  0  0  0  0  0  0  0  0  0  0  0
   -3.8257   -1.4978    1.3816 H   0  0  0  0  0  0  0  0  0  0  0  0
   -5.7745   -1.9277   -0.9050 H   0  0  0  0  0  0  0  0  0  0  0  0
   -7.1277   -1.1177    1.2023 H   0  0  0  0  0  0  0  0  0  0  0  0
   -5.6605   -0.2434    1.7038 H   0  0  0  0  0  0  0  0  0  0  0  0
   -5.7648    1.1186   -0.3657 H   0  0  0  0  0  0  0  0  0  0  0  0
   -7.2320    0.2443   -0.8672 H   0  0  0  0  0  0  0  0  0  0  0  0
   -8.3993    1.0328    1.1735 H   0  0  0  0  0  0  0  0  0  0  0  0
   -6.9321    1.9071    1.6750 H   0  0  0  0  0  0  0  0  0  0  0  0
   -8.9176    4.4376   -0.0870 H   0  0  0  0  0  0  0  0  0  0  0  0
    2.1834   -0.2972   -0.4605 H   0  0  0  0  0  0  0  0  0  0  0  0
  1  2  1  0  0  0  0
  2  3  1  0  0  0  0
  3  4  1  0  0  0  0
  4  5  1  0  0  0  0
  5  6  1  0  0  0  0
  6  7  2  0  0  0  0
  7  8  1  0  0  0  0
  8  9  1  0  0  0  0
  9 10  1  0  0  0  0
 10 11  2  0  0  0  0
 11 12  1  0  0  0  0
 12 13  2  0  0  0  0
 13 14  1  0  0  0  0
 14 15  1  0  0  0  0
 15 16  2  0  0  0  0
 16 17  1  0  0  0  0
 17 18  1  0  0  0  0
 18 19  1  0  0  0  0
 19 20  1  0  0  0  0
 20 21  2  0  0  0  0
 20 22  1  0  0  0  0
  9 23  1  0  0  0  0
  1 24  1  0  0  0  0
  1 25  1  0  0  0  0
  1 26  1  0  0  0  0
  2 27  1  0  0  0  0
  2 28  1  0  0  0  0
  3 29  1  0  0  0  0
  3 30  1  0  0  0  0
  4 31  1  0  0  0  0
  4 32  1  0  0  0  0
  5 33  1  0  0  0  0
  5 34  1  0  0  0  0
  6 35  1  0  0  0  0
  7 36  1  0  0  0  0
  8 37  1  0  0  0  0
  8 38  1  0  0  0  0
  9 39  1  0  0  0  0
 10 40  1  0  0  0  0
 11 41  1  0  0  0  0
 12 42  1  0  0  0  0
 13 43  1  0  0  0  0
 14 44  1  0  0  0  0
 14 45  1  0  0  0  0
 15 46  1  0  0  0  0
 16 47  1  0  0  0  0
 17 48  1  0  0  0  0
 17 49  1  0  0  0  0
 18 50  1  0  0  0  0
 18 51  1  0  0  0  0
 19 52  1  0  0  0  0
 19 53  1  0  0  0  0
 22 54  1  0  0  0  0
 23 55  1  0  0  0  0
M  END
$$$$
