C20H34O2
APtclcactv06281816503D 0   0.00000     0.00000
 
 56 55  0  0  0  0  0  0  0  0999 V2000
   10.7865    2.0225    1.2796 C   0  0  0  0  0  0  0  0  0  0  0  0
    9.5116    2.7147    0.7933 C   0  0  0  0  0  0  0  0  0  0  0  0
    8.9075    1.9195   -0.3353 C   0  0  0  0  0  0  0  0  0  0  0  0
    7.6628    1.5180   -0.2608 C   0  0  0  0  0  0  0  0  0  0  0  0
    7.0588    0.7228   -1.3895 C   0  0  0  0  0  0  0  0  0  0  0  0
    6.5007   -0.5694   -0.8512 C   0  0  0  0  0  0  0  0  0  0  0  0
    5.2479   -0.8835   -1.0701 C   0  0  0  0  0  0  0  0  0  0  0  0
    4.6899   -2.1757   -0.5317 C   0  0  0  0  0  0  0  0  0  0  0  0
    3.4705   -1.8863    0.3052 C   0  0  0  0  0  0  0  0  0  0  0  0
    2.3341   -2.4788    0.0337 C   0  0  0  0  0  0  0  0  0  0  0  0
    1.1147   -2.1894    0.8706 C   0  0  0  0  0  0  0  0  0  0  0  0
   -0.0286   -1.7291   -0.0360 C   0  0  0  0  0  0  0  0  0  0  0  0
   -1.2666   -1.4353    0.8136 C   0  0  0  0  0  0  0  0  0  0  0  0
   -2.4099   -0.9751   -0.0930 C   0  0  0  0  0  0  0  0  0  0  0  0
   -3.6479   -0.6813    0.7567 C   0  0  0  0  0  0  0  0  0  0  0  0
   -4.7912   -0.2211   -0.1500 C   0  0  0  0  0  0  0  0  0  0  0  0
   -6.0292    0.0727    0.6997 C   0  0  0  0  0  0  0  0  0  0  0  0
   -7.1725    0.5330   -0.2069 C   0  0  0  0  0  0  0  0  0  0  0  0
   -8.4105    0.8268    0.6427 C   0  0  0  0  0  0  0  0  0  0  0  0
   -9.5366    1.2801   -0.2503 C   0  0  0  0  0  0  0  0  0  0  0  0
   -9.3665    1.3600   -1.4438 O   0  0  0  0  0  0  0  0  0  0  0  0
  -10.7287    1.5951    0.2803 O   0  0  0  0  0  0  0  0  0  0  0  0
   11.2234    2.5976    2.0960 H   0  0  0  0  0  0  0  0  0  0  0  0
   10.5440    1.0195    1.6309 H   0  0  0  0  0  0  0  0  0  0  0  0
   11.5003    1.9572    0.4585 H   0  0  0  0  0  0  0  0  0  0  0  0
    8.7978    2.7799    1.6145 H   0  0  0  0  0  0  0  0  0  0  0  0
    9.7540    3.7176    0.4421 H   0  0  0  0  0  0  0  0  0  0  0  0
    9.5008    1.6807   -1.2056 H   0  0  0  0  0  0  0  0  0  0  0  0
    7.0695    1.7568    0.6095 H   0  0  0  0  0  0  0  0  0  0  0  0
    6.2580    1.2995   -1.8523 H   0  0  0  0  0  0  0  0  0  0  0  0
    7.8263    0.5056   -2.1324 H   0  0  0  0  0  0  0  0  0  0  0  0
    7.1337   -1.2366   -0.2849 H   0  0  0  0  0  0  0  0  0  0  0  0
    4.6150   -0.2163   -1.6363 H   0  0  0  0  0  0  0  0  0  0  0  0
    4.4148   -2.8264   -1.3618 H   0  0  0  0  0  0  0  0  0  0  0  0
    5.4433   -2.6690    0.0824 H   0  0  0  0  0  0  0  0  0  0  0  0
    3.5335   -1.1905    1.1287 H   0  0  0  0  0  0  0  0  0  0  0  0
    2.2711   -3.1746   -0.7899 H   0  0  0  0  0  0  0  0  0  0  0  0
    0.8159   -3.0930    1.4019 H   0  0  0  0  0  0  0  0  0  0  0  0
    1.3461   -1.4043    1.5905 H   0  0  0  0  0  0  0  0  0  0  0  0
    0.2702   -0.8255   -0.5674 H   0  0  0  0  0  0  0  0  0  0  0  0
   -0.2600   -2.5142   -0.7559 H   0  0  0  0  0  0  0  0  0  0  0  0
   -1.5654   -2.3389    1.3449 H   0  0  0  0  0  0  0  0  0  0  0  0
   -1.0352   -0.6503    1.5335 H   0  0  0  0  0  0  0  0  0  0  0  0
   -2.1111   -0.0715   -0.6243 H   0  0  0  0  0  0  0  0  0  0  0  0
   -2.6413   -1.7602   -0.8129 H   0  0  0  0  0  0  0  0  0  0  0  0
   -3.9467   -1.5849    1.2880 H   0  0  0  0  0  0  0  0  0  0  0  0
   -3.4165    0.1038    1.4766 H   0  0  0  0  0  0  0  0  0  0  0  0
   -4.4924    0.6825   -0.6813 H   0  0  0  0  0  0  0  0  0  0  0  0
   -5.0226   -1.0061   -0.8699 H   0  0  0  0  0  0  0  0  0  0  0  0
   -6.3280   -0.8309    1.2310 H   0  0  0  0  0  0  0  0  0  0  0  0
   -5.7978    0.8578    1.4196 H   0  0  0  0  0  0  0  0  0  0  0  0
   -6.8737    1.4366   -0.7382 H   0  0  0  0  0  0  0  0  0  0  0  0
   -7.4039   -0.2521   -0.9268 H   0  0  0  0  0  0  0  0  0  0  0  0
   -8.7093   -0.0768    1.1740 H   0  0  0  0  0  0  0  0  0  0  0  0
   -8.1791    1.6118    1.3626 H   0  0  0  0  0  0  0  0  0  0  0  0
  -11.4202    1.8807   -0.3324 H   0  0  0  0  0  0  0  0  0  0  0  0
  1  2  1  0  0  0  0
  2  3  1  0  0  0  0
  3  4  2  0  0  0  0
  4  5  1  0  0  0  0
  5  6  1  0  0  0  0
  6  7  2  0  0  0  0
  7  8  1  0  0  0  0
  8  9  1  0  0  0  0
  9 10  2  0  0  0  0
 10 11  1  0  0  0  0
 11 12  1  0  0  0  0
 12 13  1  0  0  0  0
 13 14  1  0  0  0  0
 14 15  1  0  0  0  0
 15 16  1  0  0  0  0
 16 17  1  0  0  0  0
 17 18  1  0  0  0  0
 18 19  1  0  0  0  0
 19 20  1  0  0  0  0
 20 21  2  0  0  0  0
 20 22  1  0  0  0  0
  1 23  1  0  0  0  0
  1 24  1  0  0  0  0
  1 25  1  0  0  0  0
  2 26  1  0  0  0  0
  2 27  1  0  0  0  0
  3 28  1  0  0  0  0
  4 29  1  0  0  0  0
  5 30  1  0  0  0  0
  5 31  1  0  0  0  0
  6 32  1  0  0  0  0
  7 33  1  0  0  0  0
  8 34  1  0  0  0  0
  8 35  1  0  0  0  0
  9 36  1  0  0  0  0
 10 37  1  0  0  0  0
 11 38  1  0  0  0  0
 11 39  1  0  0  0  0
 12 40  1  0  0  0  0
 12 41  1  0  0  0  0
 13 42  1  0  0  0  0
 13 43  1  0  0  0  0
 14 44  1  0  0  0  0
 14 45  1  0  0  0  0
 15 46  1  0  0  0  0
 15 47  1  0  0  0  0
 16 48  1  0  0  0  0
 16 49  1  0  0  0  0
 17 50  1  0  0  0  0
 17 51  1  0  0  0  0
 18 52  1  0  0  0  0
 18 53  1  0  0  0  0
 19 54  1  0  0  0  0
 19 55  1  0  0  0  0
 22 56  1  0  0  0  0
M  END
$$$$
