C24H48O3
APtclcactv06281816503D 0   0.00000     0.00000
 
 75 74  0  0  0  0  0  0  0  0999 V2000
    1.1390   -0.3785   -0.0000 C   0  0  0  0  0  0  0  0  0  0  0  0
   -0.1025    0.5158    0.0000 C   0  0  0  0  0  0  0  0  0  0  0  0
   -1.3594   -0.3566   -0.0000 C   0  0  0  0  0  0  0  0  0  0  0  0
   -2.6008    0.5377   -0.0000 C   0  0  0  0  0  0  0  0  0  0  0  0
   -3.8578   -0.3346   -0.0000 C   0  0  0  0  0  0  0  0  0  0  0  0
   -5.0992    0.5597   -0.0000 C   0  0  0  0  0  0  0  0  0  0  0  0
   -6.3562   -0.3126   -0.0000 C   0  0  0  0  0  0  0  0  0  0  0  0
   -7.5976    0.5817   -0.0000 C   0  0  0  0  0  0  0  0  0  0  0  0
   -8.8546   -0.2907    0.0000 C   0  0  0  0  0  0  0  0  0  0  0  0
  -10.0960    0.6036   -0.0000 C   0  0  0  0  0  0  0  0  0  0  0  0
  -11.3529   -0.2687    0.0000 C   0  0  0  0  0  0  0  0  0  0  0  0
  -12.5944    0.6256   -0.0000 C   0  0  0  0  0  0  0  0  0  0  0  0
  -13.8324   -0.2336    0.0000 C   0  0  0  0  0  0  0  0  0  0  0  0
  -13.7321   -1.4377    0.0000 O   0  0  0  0  0  0  0  0  0  0  0  0
  -15.0466    0.3387   -0.0000 O   0  0  0  0  0  0  0  0  0  0  0  0
    2.3959    0.4938    0.0000 C   0  0  0  0  0  0  0  0  0  0  0  0
    3.6374   -0.4005   -0.0000 C   0  0  0  0  0  0  0  0  0  0  0  0
    4.8943    0.4718    0.0000 C   0  0  0  0  0  0  0  0  0  0  0  0
    6.1357   -0.4224   -0.0000 C   0  0  0  0  0  0  0  0  0  0  0  0
    7.3927    0.4499    0.0000 C   0  0  0  0  0  0  0  0  0  0  0  0
    8.6341   -0.4444   -0.0000 C   0  0  0  0  0  0  0  0  0  0  0  0
    9.8911    0.4279    0.0000 C   0  0  0  0  0  0  0  0  0  0  0  0
   11.1325   -0.4664   -0.0000 C   0  0  0  0  0  0  0  0  0  0  0  0
   12.3895    0.4060    0.0000 C   0  0  0  0  0  0  0  0  0  0  0  0
   13.6309   -0.4883   -0.0000 C   0  0  0  0  0  0  0  0  0  0  0  0
   14.8878    0.3840    0.0000 C   0  0  0  0  0  0  0  0  0  0  0  0
   16.0473   -0.4513   -0.0000 O   0  0  0  0  0  0  0  0  0  0  0  0
    1.1334   -1.0078    0.8900 H   0  0  0  0  0  0  0  0  0  0  0  0
    1.1334   -1.0078   -0.8900 H   0  0  0  0  0  0  0  0  0  0  0  0
   -0.0969    1.1451    0.8900 H   0  0  0  0  0  0  0  0  0  0  0  0
   -0.0969    1.1451   -0.8900 H   0  0  0  0  0  0  0  0  0  0  0  0
   -1.3649   -0.9858   -0.8900 H   0  0  0  0  0  0  0  0  0  0  0  0
   -1.3649   -0.9858    0.8900 H   0  0  0  0  0  0  0  0  0  0  0  0
   -2.5953    1.1670    0.8900 H   0  0  0  0  0  0  0  0  0  0  0  0
   -2.5953    1.1670   -0.8900 H   0  0  0  0  0  0  0  0  0  0  0  0
   -3.8633   -0.9639   -0.8900 H   0  0  0  0  0  0  0  0  0  0  0  0
   -3.8633   -0.9639    0.8900 H   0  0  0  0  0  0  0  0  0  0  0  0
   -5.0937    1.1890    0.8900 H   0  0  0  0  0  0  0  0  0  0  0  0
   -5.0937    1.1890   -0.8900 H   0  0  0  0  0  0  0  0  0  0  0  0
   -6.3617   -0.9419   -0.8900 H   0  0  0  0  0  0  0  0  0  0  0  0
   -6.3617   -0.9419    0.8900 H   0  0  0  0  0  0  0  0  0  0  0  0
   -7.5921    1.2109    0.8900 H   0  0  0  0  0  0  0  0  0  0  0  0
   -7.5921    1.2109   -0.8900 H   0  0  0  0  0  0  0  0  0  0  0  0
   -8.8601   -0.9200   -0.8900 H   0  0  0  0  0  0  0  0  0  0  0  0
   -8.8601   -0.9200    0.8900 H   0  0  0  0  0  0  0  0  0  0  0  0
  -10.0905    1.2329    0.8900 H   0  0  0  0  0  0  0  0  0  0  0  0
  -10.0905    1.2329   -0.8900 H   0  0  0  0  0  0  0  0  0  0  0  0
  -11.3585   -0.8980   -0.8900 H   0  0  0  0  0  0  0  0  0  0  0  0
  -11.3585   -0.8980    0.8900 H   0  0  0  0  0  0  0  0  0  0  0  0
  -12.5888    1.2549    0.8900 H   0  0  0  0  0  0  0  0  0  0  0  0
  -12.5888    1.2549   -0.8900 H   0  0  0  0  0  0  0  0  0  0  0  0
  -15.8111   -0.2535    0.0000 H   0  0  0  0  0  0  0  0  0  0  0  0
    2.4015    1.1231   -0.8900 H   0  0  0  0  0  0  0  0  0  0  0  0
    2.4015    1.1231    0.8900 H   0  0  0  0  0  0  0  0  0  0  0  0
    3.6318   -1.0298    0.8900 H   0  0  0  0  0  0  0  0  0  0  0  0
    3.6318   -1.0298   -0.8900 H   0  0  0  0  0  0  0  0  0  0  0  0
    4.8998    1.1011   -0.8900 H   0  0  0  0  0  0  0  0  0  0  0  0
    4.8998    1.1011    0.8900 H   0  0  0  0  0  0  0  0  0  0  0  0
    6.1302   -1.0517    0.8900 H   0  0  0  0  0  0  0  0  0  0  0  0
    6.1302   -1.0517   -0.8900 H   0  0  0  0  0  0  0  0  0  0  0  0
    7.3982    1.0792   -0.8900 H   0  0  0  0  0  0  0  0  0  0  0  0
    7.3982    1.0792    0.8900 H   0  0  0  0  0  0  0  0  0  0  0  0
    8.6286   -1.0737    0.8900 H   0  0  0  0  0  0  0  0  0  0  0  0
    8.6286   -1.0737   -0.8900 H   0  0  0  0  0  0  0  0  0  0  0  0
    9.8966    1.0572   -0.8900 H   0  0  0  0  0  0  0  0  0  0  0  0
    9.8966    1.0572    0.8900 H   0  0  0  0  0  0  0  0  0  0  0  0
   11.1270   -1.0957    0.8900 H   0  0  0  0  0  0  0  0  0  0  0  0
   11.1270   -1.0957   -0.8900 H   0  0  0  0  0  0  0  0  0  0  0  0
   12.3950    1.0353   -0.8900 H   0  0  0  0  0  0  0  0  0  0  0  0
   12.3950    1.0353    0.8900 H   0  0  0  0  0  0  0  0  0  0  0  0
   13.6254   -1.1176    0.8900 H   0  0  0  0  0  0  0  0  0  0  0  0
   13.6254   -1.1176   -0.8900 H   0  0  0  0  0  0  0  0  0  0  0  0
   14.8934    1.0133   -0.8900 H   0  0  0  0  0  0  0  0  0  0  0  0
   14.8934    1.0133    0.8900 H   0  0  0  0  0  0  0  0  0  0  0  0
   16.8828    0.0356    0.0000 H   0  0  0  0  0  0  0  0  0  0  0  0
  1  2  1  0  0  0  0
  2  3  1  0  0  0  0
  3  4  1  0  0  0  0
  4  5  1  0  0  0  0
  5  6  1  0  0  0  0
  6  7  1  0  0  0  0
  7  8  1  0  0  0  0
  8  9  1  0  0  0  0
  9 10  1  0  0  0  0
 10 11  1  0  0  0  0
 11 12  1  0  0  0  0
 12 13  1  0  0  0  0
 13 14  2  0  0  0  0
 13 15  1  0  0  0  0
  1 16  1  0  0  0  0
 16 17  1  0  0  0  0
 17 18  1  0  0  0  0
 18 19  1  0  0  0  0
 19 20  1  0  0  0  0
 20 21  1  0  0  0  0
 21 22  1  0  0  0  0
 22 23  1  0  0  0  0
 23 24  1  0  0  0  0
 24 25  1  0  0  0  0
 25 26  1  0  0  0  0
 26 27  1  0  0  0  0
  1 28  1  0  0  0  0
  1 29  1  0  0  0  0
  2 30  1  0  0  0  0
  2 31  1  0  0  0  0
  3 32  1  0  0  0  0
  3 33  1  0  0  0  0
  4 34  1  0  0  0  0
  4 35  1  0  0  0  0
  5 36  1  0  0  0  0
  5 37  1  0  0  0  0
  6 38  1  0  0  0  0
  6 39  1  0  0  0  0
  7 40  1  0  0  0  0
  7 41  1  0  0  0  0
  8 42  1  0  0  0  0
  8 43  1  0  0  0  0
  9 44  1  0  0  0  0
  9 45  1  0  0  0  0
 10 46  1  0  0  0  0
 10 47  1  0  0  0  0
 11 48  1  0  0  0  0
 11 49  1  0  0  0  0
 12 50  1  0  0  0  0
 12 51  1  0  0  0  0
 15 52  1  0  0  0  0
 16 53  1  0  0  0  0
 16 54  1  0  0  0  0
 17 55  1  0  0  0  0
 17 56  1  0  0  0  0
 18 57  1  0  0  0  0
 18 58  1  0  0  0  0
 19 59  1  0  0  0  0
 19 60  1  0  0  0  0
 20 61  1  0  0  0  0
 20 62  1  0  0  0  0
 21 63  1  0  0  0  0
 21 64  1  0  0  0  0
 22 65  1  0  0  0  0
 22 66  1  0  0  0  0
 23 67  1  0  0  0  0
 23 68  1  0  0  0  0
 24 69  1  0  0  0  0
 24 70  1  0  0  0  0
 25 71  1  0  0  0  0
 25 72  1  0  0  0  0
 26 73  1  0  0  0  0
 26 74  1  0  0  0  0
 27 75  1  0  0  0  0
M  END
$$$$
