C21H20O7
APtclcactv06281816513D 0   0.00000     0.00000
 
 48 50  0  0  0  0  0  0  0  0999 V2000
   -6.7880    0.7977   -0.7957 C   0  0  0  0  0  0  0  0  0  0  0  0
   -5.8563    0.1479   -1.7860 C   0  0  0  0  0  0  0  0  0  0  0  0
   -4.5654    0.3552   -1.7041 C   0  0  0  0  0  0  0  0  0  0  0  0
   -3.9994    1.1348   -0.5453 C   0  0  0  0  0  0  0  0  0  0  0  0
   -2.9502    0.3078    0.1521 C   0  0  0  0  0  0  0  0  0  0  0  0
   -3.3310   -0.6813    1.0475 C   0  0  0  0  0  0  0  0  0  0  0  0
   -2.3647   -1.4491    1.6958 C   0  0  0  0  0  0  0  0  0  0  0  0
   -1.0243   -1.2262    1.4474 C   0  0  0  0  0  0  0  0  0  0  0  0
   -0.6402   -0.2299    0.5448 C   0  0  0  0  0  0  0  0  0  0  0  0
   -1.6144    0.5320   -0.1055 C   0  0  0  0  0  0  0  0  0  0  0  0
    0.7891    0.0129    0.2761 C   0  0  0  0  0  0  0  0  0  0  0  0
    1.2543    1.2932    0.3072 C   0  0  0  0  0  0  0  0  0  0  0  0
    2.6273    1.5435    0.0508 C   0  0  0  0  0  0  0  0  0  0  0  0
    3.0798    2.6771    0.0705 O   0  0  0  0  0  0  0  0  0  0  0  0
    3.4846    0.3831   -0.2392 C   0  0  0  0  0  0  0  0  0  0  0  0
    4.8516    0.5373   -0.5033 C   0  0  0  0  0  0  0  0  0  0  0  0
    5.6235   -0.5781   -0.7710 C   0  0  0  0  0  0  0  0  0  0  0  0
    5.0453   -1.8428   -0.7775 C   0  0  0  0  0  0  0  0  0  0  0  0
    3.6931   -2.0030   -0.5175 C   0  0  0  0  0  0  0  0  0  0  0  0
    2.9025   -0.8969   -0.2464 C   0  0  0  0  0  0  0  0  0  0  0  0
    1.5860   -1.0374    0.0148 O   0  0  0  0  0  0  0  0  0  0  0  0
    5.8125   -2.9312   -1.0416 O   0  0  0  0  0  0  0  0  0  0  0  0
    5.4141    1.7723   -0.4970 O   0  0  0  0  0  0  0  0  0  0  0  0
    0.4088    2.3237    0.5816 O   0  0  0  0  0  0  0  0  0  0  0  0
    0.6315    3.0392    1.7984 C   0  0  0  0  0  0  0  0  0  0  0  0
   -2.7418   -2.4174    2.5732 O   0  0  0  0  0  0  0  0  0  0  0  0
   -4.6490   -0.9018    1.2935 O   0  0  0  0  0  0  0  0  0  0  0  0
   -6.4095   -0.7403   -2.8704 C   0  0  0  0  0  0  0  0  0  0  0  0
   -6.6260    1.8756   -0.7976 H   0  0  0  0  0  0  0  0  0  0  0  0
   -7.8201    0.5850   -1.0743 H   0  0  0  0  0  0  0  0  0  0  0  0
   -6.5920    0.4025    0.2010 H   0  0  0  0  0  0  0  0  0  0  0  0
   -3.9067   -0.0328   -2.4670 H   0  0  0  0  0  0  0  0  0  0  0  0
   -3.5498    2.0572   -0.9130 H   0  0  0  0  0  0  0  0  0  0  0  0
   -4.7985    1.3746    0.1562 H   0  0  0  0  0  0  0  0  0  0  0  0
   -0.2747   -1.8198    1.9495 H   0  0  0  0  0  0  0  0  0  0  0  0
   -1.3209    1.3021   -0.8036 H   0  0  0  0  0  0  0  0  0  0  0  0
    6.6780   -0.4669   -0.9759 H   0  0  0  0  0  0  0  0  0  0  0  0
    3.2552   -2.9902   -0.5261 H   0  0  0  0  0  0  0  0  0  0  0  0
    6.2108   -3.3315   -0.2566 H   0  0  0  0  0  0  0  0  0  0  0  0
    5.7531    2.0457    0.3664 H   0  0  0  0  0  0  0  0  0  0  0  0
   -0.1654    3.7689    1.9419 H   0  0  0  0  0  0  0  0  0  0  0  0
    0.6390    2.3402    2.6348 H   0  0  0  0  0  0  0  0  0  0  0  0
    1.5907    3.5542    1.7467 H   0  0  0  0  0  0  0  0  0  0  0  0
   -2.8755   -3.2850    2.1678 H   0  0  0  0  0  0  0  0  0  0  0  0
   -5.0553   -1.5531    0.7054 H   0  0  0  0  0  0  0  0  0  0  0  0
   -7.4944   -0.7924   -2.7791 H   0  0  0  0  0  0  0  0  0  0  0  0
   -6.1463   -0.3302   -3.8454 H   0  0  0  0  0  0  0  0  0  0  0  0
   -5.9880   -1.7406   -2.7711 H   0  0  0  0  0  0  0  0  0  0  0  0
  1  2  1  0  0  0  0
  2  3  2  0  0  0  0
  3  4  1  0  0  0  0
  4  5  1  0  0  0  0
  5  6  2  0  0  0  0
  6  7  1  0  0  0  0
  7  8  2  0  0  0  0
  8  9  1  0  0  0  0
  9 10  2  0  0  0  0
  5 10  1  0  0  0  0
  9 11  1  0  0  0  0
 11 12  2  0  0  0  0
 12 13  1  0  0  0  0
 13 14  2  0  0  0  0
 13 15  1  0  0  0  0
 15 16  2  0  0  0  0
 16 17  1  0  0  0  0
 17 18  2  0  0  0  0
 18 19  1  0  0  0  0
 19 20  2  0  0  0  0
 15 20  1  0  0  0  0
 20 21  1  0  0  0  0
 11 21  1  0  0  0  0
 18 22  1  0  0  0  0
 16 23  1  0  0  0  0
 12 24  1  0  0  0  0
 24 25  1  0  0  0  0
  7 26  1  0  0  0  0
  6 27  1  0  0  0  0
  2 28  1  0  0  0  0
  1 29  1  0  0  0  0
  1 30  1  0  0  0  0
  1 31  1  0  0  0  0
  3 32  1  0  0  0  0
  4 33  1  0  0  0  0
  4 34  1  0  0  0  0
  8 35  1  0  0  0  0
 10 36  1  0  0  0  0
 17 37  1  0  0  0  0
 19 38  1  0  0  0  0
 22 39  1  0  0  0  0
 23 40  1  0  0  0  0
 25 41  1  0  0  0  0
 25 42  1  0  0  0  0
 25 43  1  0  0  0  0
 26 44  1  0  0  0  0
 27 45  1  0  0  0  0
 28 46  1  0  0  0  0
 28 47  1  0  0  0  0
 28 48  1  0  0  0  0
M  END
$$$$
