C20H18O7
APtclcactv06281816513D 0   0.00000     0.00000
 
 45 47  0  0  0  0  0  0  0  0999 V2000
    6.5561   -1.2344    1.0400 C   0  0  0  0  0  0  0  0  0  0  0  0
    5.6236   -2.0532    0.1850 C   0  0  0  0  0  0  0  0  0  0  0  0
    4.3274   -1.9003    0.2978 C   0  0  0  0  0  0  0  0  0  0  0  0
    3.7689   -0.9055    1.2825 C   0  0  0  0  0  0  0  0  0  0  0  0
    2.8522    0.0513    0.5647 C   0  0  0  0  0  0  0  0  0  0  0  0
    3.3844    1.1124   -0.1536 C   0  0  0  0  0  0  0  0  0  0  0  0
    2.5411    2.0009   -0.8191 C   0  0  0  0  0  0  0  0  0  0  0  0
    1.1720    1.8261   -0.7645 C   0  0  0  0  0  0  0  0  0  0  0  0
    0.6353    0.7567   -0.0412 C   0  0  0  0  0  0  0  0  0  0  0  0
    1.4869   -0.1331    0.6188 C   0  0  0  0  0  0  0  0  0  0  0  0
   -0.8254    0.5655    0.0210 C   0  0  0  0  0  0  0  0  0  0  0  0
   -1.6159    1.6381    0.3061 C   0  0  0  0  0  0  0  0  0  0  0  0
   -3.0236    1.4706    0.3696 C   0  0  0  0  0  0  0  0  0  0  0  0
   -3.7631    2.4084    0.6218 O   0  0  0  0  0  0  0  0  0  0  0  0
   -3.5571    0.1222    0.1189 C   0  0  0  0  0  0  0  0  0  0  0  0
   -4.9336   -0.1342    0.1607 C   0  0  0  0  0  0  0  0  0  0  0  0
   -5.3954   -1.4148   -0.0809 C   0  0  0  0  0  0  0  0  0  0  0  0
   -4.4985   -2.4394   -0.3631 C   0  0  0  0  0  0  0  0  0  0  0  0
   -3.1350   -2.1932   -0.4057 C   0  0  0  0  0  0  0  0  0  0  0  0
   -2.6524   -0.9157   -0.1667 C   0  0  0  0  0  0  0  0  0  0  0  0
   -1.3282   -0.6592   -0.2108 O   0  0  0  0  0  0  0  0  0  0  0  0
   -4.9629   -3.6931   -0.5988 O   0  0  0  0  0  0  0  0  0  0  0  0
   -5.8074    0.8669    0.4368 O   0  0  0  0  0  0  0  0  0  0  0  0
   -1.0599    2.8602    0.5285 O   0  0  0  0  0  0  0  0  0  0  0  0
    3.0665    3.0400   -1.5218 O   0  0  0  0  0  0  0  0  0  0  0  0
    4.7310    1.2862   -0.2081 O   0  0  0  0  0  0  0  0  0  0  0  0
    6.1821   -3.0480   -0.7996 C   0  0  0  0  0  0  0  0  0  0  0  0
    6.3575   -1.4381    2.0922 H   0  0  0  0  0  0  0  0  0  0  0  0
    7.5879   -1.4979    0.8074 H   0  0  0  0  0  0  0  0  0  0  0  0
    6.3975   -0.1750    0.8388 H   0  0  0  0  0  0  0  0  0  0  0  0
    3.6591   -2.4871   -0.3149 H   0  0  0  0  0  0  0  0  0  0  0  0
    3.2101   -1.4336    2.0551 H   0  0  0  0  0  0  0  0  0  0  0  0
    4.5869   -0.3500    1.7413 H   0  0  0  0  0  0  0  0  0  0  0  0
    0.5175    2.5142   -1.2791 H   0  0  0  0  0  0  0  0  0  0  0  0
    1.0754   -0.9603    1.1780 H   0  0  0  0  0  0  0  0  0  0  0  0
   -6.4553   -1.6200   -0.0500 H   0  0  0  0  0  0  0  0  0  0  0  0
   -2.4481   -2.9972   -0.6252 H   0  0  0  0  0  0  0  0  0  0  0  0
   -5.1579   -3.8719   -1.5289 H   0  0  0  0  0  0  0  0  0  0  0  0
   -6.1212    1.3418   -0.3450 H   0  0  0  0  0  0  0  0  0  0  0  0
   -1.7032    3.5556    0.7225 H   0  0  0  0  0  0  0  0  0  0  0  0
    3.2546    2.8336   -2.4476 H   0  0  0  0  0  0  0  0  0  0  0  0
    5.1569    0.8293   -0.9463 H   0  0  0  0  0  0  0  0  0  0  0  0
    6.2936   -4.0171   -0.3134 H   0  0  0  0  0  0  0  0  0  0  0  0
    5.5019   -3.1424   -1.6461 H   0  0  0  0  0  0  0  0  0  0  0  0
    7.1546   -2.7040   -1.1516 H   0  0  0  0  0  0  0  0  0  0  0  0
  1  2  1  0  0  0  0
  2  3  2  0  0  0  0
  3  4  1  0  0  0  0
  4  5  1  0  0  0  0
  5  6  2  0  0  0  0
  6  7  1  0  0  0  0
  7  8  2  0  0  0  0
  8  9  1  0  0  0  0
  9 10  2  0  0  0  0
  5 10  1  0  0  0  0
  9 11  1  0  0  0  0
 11 12  2  0  0  0  0
 12 13  1  0  0  0  0
 13 14  2  0  0  0  0
 13 15  1  0  0  0  0
 15 16  2  0  0  0  0
 16 17  1  0  0  0  0
 17 18  2  0  0  0  0
 18 19  1  0  0  0  0
 19 20  2  0  0  0  0
 15 20  1  0  0  0  0
 20 21  1  0  0  0  0
 11 21  1  0  0  0  0
 18 22  1  0  0  0  0
 16 23  1  0  0  0  0
 12 24  1  0  0  0  0
  7 25  1  0  0  0  0
  6 26  1  0  0  0  0
  2 27  1  0  0  0  0
  1 28  1  0  0  0  0
  1 29  1  0  0  0  0
  1 30  1  0  0  0  0
  3 31  1  0  0  0  0
  4 32  1  0  0  0  0
  4 33  1  0  0  0  0
  8 34  1  0  0  0  0
 10 35  1  0  0  0  0
 17 36  1  0  0  0  0
 19 37  1  0  0  0  0
 22 38  1  0  0  0  0
 23 39  1  0  0  0  0
 24 40  1  0  0  0  0
 25 41  1  0  0  0  0
 26 42  1  0  0  0  0
 27 43  1  0  0  0  0
 27 44  1  0  0  0  0
 27 45  1  0  0  0  0
M  END
$$$$
