C31H20O10
APtclcactv06281816543D 0   0.00000     0.00000
 
 61 66  0  0  0  0  0  0  0  0999 V2000
   -2.4716   -1.5761    4.3865 C   0  0  0  0  0  0  0  0  0  0  0  0
   -2.2711   -1.7186    2.9789 O   0  0  0  0  0  0  0  0  0  0  0  0
   -1.0428   -1.4008    2.4960 C   0  0  0  0  0  0  0  0  0  0  0  0
   -0.7782   -1.5176    1.1257 C   0  0  0  0  0  0  0  0  0  0  0  0
    0.4799   -1.1916    0.6343 C   0  0  0  0  0  0  0  0  0  0  0  0
    1.4728   -0.7495    1.5099 C   0  0  0  0  0  0  0  0  0  0  0  0
    1.1980   -0.6365    2.8764 C   0  0  0  0  0  0  0  0  0  0  0  0
   -0.0526   -0.9552    3.3598 C   0  0  0  0  0  0  0  0  0  0  0  0
    2.8108   -0.4022    0.9946 C   0  0  0  0  0  0  0  0  0  0  0  0
    3.7585    0.0258    1.8713 C   0  0  0  0  0  0  0  0  0  0  0  0
    5.0478    0.3629    1.3954 C   0  0  0  0  0  0  0  0  0  0  0  0
    5.9223    0.7499    2.1536 O   0  0  0  0  0  0  0  0  0  0  0  0
    5.2933    0.2279   -0.0504 C   0  0  0  0  0  0  0  0  0  0  0  0
    6.5393    0.5387   -0.6086 C   0  0  0  0  0  0  0  0  0  0  0  0
    6.7293    0.3980   -1.9711 C   0  0  0  0  0  0  0  0  0  0  0  0
    5.6895   -0.0484   -2.7790 C   0  0  0  0  0  0  0  0  0  0  0  0
    4.4532   -0.3579   -2.2328 C   0  0  0  0  0  0  0  0  0  0  0  0
    4.2438   -0.2237   -0.8695 C   0  0  0  0  0  0  0  0  0  0  0  0
    3.0480   -0.5260   -0.3210 O   0  0  0  0  0  0  0  0  0  0  0  0
    5.8865   -0.1821   -4.1155 O   0  0  0  0  0  0  0  0  0  0  0  0
    7.5527    0.9751    0.1816 O   0  0  0  0  0  0  0  0  0  0  0  0
   -1.8377   -1.9883    0.2018 C   0  0  0  0  0  0  0  0  0  0  0  0
   -1.9772   -3.3523   -0.0680 C   0  0  0  0  0  0  0  0  0  0  0  0
   -2.9667   -3.8021   -0.9319 C   0  0  0  0  0  0  0  0  0  0  0  0
   -3.8270   -2.9031   -1.5363 C   0  0  0  0  0  0  0  0  0  0  0  0
   -3.6980   -1.5325   -1.2738 C   0  0  0  0  0  0  0  0  0  0  0  0
   -2.7039   -1.0700   -0.3977 C   0  0  0  0  0  0  0  0  0  0  0  0
   -2.5887    0.2512   -0.1504 O   0  0  0  0  0  0  0  0  0  0  0  0
   -3.3986    1.1600   -0.7164 C   0  0  0  0  0  0  0  0  0  0  0  0
   -4.3927    0.8158   -1.5790 C   0  0  0  0  0  0  0  0  0  0  0  0
   -4.5967   -0.5472   -1.8993 C   0  0  0  0  0  0  0  0  0  0  0  0
   -5.4786   -0.8924   -2.6691 O   0  0  0  0  0  0  0  0  0  0  0  0
   -3.2036    2.5854   -0.3904 C   0  0  0  0  0  0  0  0  0  0  0  0
   -1.9123    3.1074   -0.2738 C   0  0  0  0  0  0  0  0  0  0  0  0
   -1.7348    4.4389    0.0302 C   0  0  0  0  0  0  0  0  0  0  0  0
   -2.8373    5.2631    0.2211 C   0  0  0  0  0  0  0  0  0  0  0  0
   -4.1230    4.7481    0.1066 C   0  0  0  0  0  0  0  0  0  0  0  0
   -4.3097    3.4191   -0.2028 C   0  0  0  0  0  0  0  0  0  0  0  0
   -2.6578    6.5750    0.5207 O   0  0  0  0  0  0  0  0  0  0  0  0
   -4.7921   -3.3468   -2.3808 O   0  0  0  0  0  0  0  0  0  0  0  0
   -1.1390   -4.2440    0.5186 O   0  0  0  0  0  0  0  0  0  0  0  0
   -2.3034   -0.5383    4.6743 H   0  0  0  0  0  0  0  0  0  0  0  0
   -3.4927   -1.8621    4.6389 H   0  0  0  0  0  0  0  0  0  0  0  0
   -1.7718   -2.2192    4.9202 H   0  0  0  0  0  0  0  0  0  0  0  0
    0.6889   -1.2803   -0.4216 H   0  0  0  0  0  0  0  0  0  0  0  0
    1.9664   -0.2947    3.5540 H   0  0  0  0  0  0  0  0  0  0  0  0
   -0.2601   -0.8660    4.4159 H   0  0  0  0  0  0  0  0  0  0  0  0
    3.5285    0.1081    2.9233 H   0  0  0  0  0  0  0  0  0  0  0  0
    7.6876    0.6358   -2.4088 H   0  0  0  0  0  0  0  0  0  0  0  0
    3.6528   -0.7034   -2.8703 H   0  0  0  0  0  0  0  0  0  0  0  0
    6.2068   -1.0552   -4.3804 H   0  0  0  0  0  0  0  0  0  0  0  0
    8.1096    0.2674    0.5337 H   0  0  0  0  0  0  0  0  0  0  0  0
   -3.0649   -4.8586   -1.1333 H   0  0  0  0  0  0  0  0  0  0  0  0
   -5.0235    1.5770   -2.0136 H   0  0  0  0  0  0  0  0  0  0  0  0
   -1.0549    2.4675   -0.4216 H   0  0  0  0  0  0  0  0  0  0  0  0
   -0.7373    4.8430    0.1208 H   0  0  0  0  0  0  0  0  0  0  0  0
   -4.9771    5.3920    0.2564 H   0  0  0  0  0  0  0  0  0  0  0  0
   -5.3092    3.0198   -0.2920 H   0  0  0  0  0  0  0  0  0  0  0  0
   -2.6077    7.1520   -0.2537 H   0  0  0  0  0  0  0  0  0  0  0  0
   -5.6308   -3.5532   -1.9459 H   0  0  0  0  0  0  0  0  0  0  0  0
   -1.4544   -4.5799    1.3688 H   0  0  0  0  0  0  0  0  0  0  0  0
  1  2  1  0  0  0  0
  2  3  1  0  0  0  0
  3  4  2  0  0  0  0
  4  5  1  0  0  0  0
  5  6  2  0  0  0  0
  6  7  1  0  0  0  0
  7  8  2  0  0  0  0
  3  8  1  0  0  0  0
  6  9  1  0  0  0  0
  9 10  2  0  0  0  0
 10 11  1  0  0  0  0
 11 12  2  0  0  0  0
 11 13  1  0  0  0  0
 13 14  2  0  0  0  0
 14 15  1  0  0  0  0
 15 16  2  0  0  0  0
 16 17  1  0  0  0  0
 17 18  2  0  0  0  0
 13 18  1  0  0  0  0
 18 19  1  0  0  0  0
  9 19  1  0  0  0  0
 16 20  1  0  0  0  0
 14 21  1  0  0  0  0
  4 22  1  0  0  0  0
 22 23  2  0  0  0  0
 23 24  1  0  0  0  0
 24 25  2  0  0  0  0
 25 26  1  0  0  0  0
 26 27  2  0  0  0  0
 22 27  1  0  0  0  0
 27 28  1  0  0  0  0
 28 29  1  0  0  0  0
 29 30  2  0  0  0  0
 30 31  1  0  0  0  0
 26 31  1  0  0  0  0
 31 32  2  0  0  0  0
 29 33  1  0  0  0  0
 33 34  2  0  0  0  0
 34 35  1  0  0  0  0
 35 36  2  0  0  0  0
 36 37  1  0  0  0  0
 37 38  2  0  0  0  0
 33 38  1  0  0  0  0
 36 39  1  0  0  0  0
 25 40  1  0  0  0  0
 23 41  1  0  0  0  0
  1 42  1  0  0  0  0
  1 43  1  0  0  0  0
  1 44  1  0  0  0  0
  5 45  1  0  0  0  0
  7 46  1  0  0  0  0
  8 47  1  0  0  0  0
 10 48  1  0  0  0  0
 15 49  1  0  0  0  0
 17 50  1  0  0  0  0
 20 51  1  0  0  0  0
 21 52  1  0  0  0  0
 24 53  1  0  0  0  0
 30 54  1  0  0  0  0
 34 55  1  0  0  0  0
 35 56  1  0  0  0  0
 37 57  1  0  0  0  0
 38 58  1  0  0  0  0
 39 59  1  0  0  0  0
 40 60  1  0  0  0  0
 41 61  1  0  0  0  0
M  END
$$$$
