C16H18O3
APtclcactv06281816583D 0   0.00000     0.00000
 
 37 38  0  0  0  0  0  0  0  0999 V2000
   -2.8553    3.0162    0.2193 C   0  0  0  0  0  0  0  0  0  0  0  0
   -2.2010    1.9102   -0.4059 O   0  0  0  0  0  0  0  0  0  0  0  0
   -2.7316    0.6777   -0.1910 C   0  0  0  0  0  0  0  0  0  0  0  0
   -2.1464   -0.4404   -0.7678 C   0  0  0  0  0  0  0  0  0  0  0  0
   -2.6852   -1.6941   -0.5493 C   0  0  0  0  0  0  0  0  0  0  0  0
   -3.8074   -1.8375    0.2437 C   0  0  0  0  0  0  0  0  0  0  0  0
   -4.3965   -0.7222    0.8229 C   0  0  0  0  0  0  0  0  0  0  0  0
   -3.8548    0.5358    0.6095 C   0  0  0  0  0  0  0  0  0  0  0  0
   -5.5006   -0.8639    1.6024 O   0  0  0  0  0  0  0  0  0  0  0  0
   -0.9225   -0.2874   -1.6337 C   0  0  0  0  0  0  0  0  0  0  0  0
    0.3274   -0.2694   -0.7515 C   0  0  0  0  0  0  0  0  0  0  0  0
    1.5699   -0.1141   -1.6306 C   0  0  0  0  0  0  0  0  0  0  0  0
    2.8010   -0.0964   -0.7616 C   0  0  0  0  0  0  0  0  0  0  0  0
    3.4478   -1.2798   -0.4569 C   0  0  0  0  0  0  0  0  0  0  0  0
    4.5766   -1.2662    0.3394 C   0  0  0  0  0  0  0  0  0  0  0  0
    5.0610   -0.0638    0.8335 C   0  0  0  0  0  0  0  0  0  0  0  0
    4.4102    1.1223    0.5263 C   0  0  0  0  0  0  0  0  0  0  0  0
    3.2851    1.1039   -0.2751 C   0  0  0  0  0  0  0  0  0  0  0  0
    6.1710   -0.0478    1.6175 O   0  0  0  0  0  0  0  0  0  0  0  0
   -2.3315    3.9382   -0.0332 H   0  0  0  0  0  0  0  0  0  0  0  0
   -3.8852    3.0753   -0.1327 H   0  0  0  0  0  0  0  0  0  0  0  0
   -2.8481    2.8787    1.3005 H   0  0  0  0  0  0  0  0  0  0  0  0
   -2.2285   -2.5631   -0.9994 H   0  0  0  0  0  0  0  0  0  0  0  0
   -4.2269   -2.8183    0.4127 H   0  0  0  0  0  0  0  0  0  0  0  0
   -4.3117    1.4048    1.0594 H   0  0  0  0  0  0  0  0  0  0  0  0
   -5.3054   -1.0025    2.5393 H   0  0  0  0  0  0  0  0  0  0  0  0
   -0.8635   -1.1236   -2.3304 H   0  0  0  0  0  0  0  0  0  0  0  0
   -0.9868    0.6466   -2.1919 H   0  0  0  0  0  0  0  0  0  0  0  0
    0.2684    0.5668   -0.0548 H   0  0  0  0  0  0  0  0  0  0  0  0
    0.3916   -1.2034   -0.1933 H   0  0  0  0  0  0  0  0  0  0  0  0
    1.6289   -0.9503   -2.3273 H   0  0  0  0  0  0  0  0  0  0  0  0
    1.5057    0.8199   -2.1888 H   0  0  0  0  0  0  0  0  0  0  0  0
    3.0701   -2.2156   -0.8415 H   0  0  0  0  0  0  0  0  0  0  0  0
    5.0812   -2.1909    0.5775 H   0  0  0  0  0  0  0  0  0  0  0  0
    4.7855    2.0596    0.9097 H   0  0  0  0  0  0  0  0  0  0  0  0
    2.7782    2.0270   -0.5146 H   0  0  0  0  0  0  0  0  0  0  0  0
    6.9983    0.0480    1.1261 H   0  0  0  0  0  0  0  0  0  0  0  0
  1  2  1  0  0  0  0
  2  3  1  0  0  0  0
  3  4  2  0  0  0  0
  4  5  1  0  0  0  0
  5  6  2  0  0  0  0
  6  7  1  0  0  0  0
  7  8  2  0  0  0  0
  3  8  1  0  0  0  0
  7  9  1  0  0  0  0
  4 10  1  0  0  0  0
 10 11  1  0  0  0  0
 11 12  1  0  0  0  0
 12 13  1  0  0  0  0
 13 14  2  0  0  0  0
 14 15  1  0  0  0  0
 15 16  2  0  0  0  0
 16 17  1  0  0  0  0
 17 18  2  0  0  0  0
 13 18  1  0  0  0  0
 16 19  1  0  0  0  0
  1 20  1  0  0  0  0
  1 21  1  0  0  0  0
  1 22  1  0  0  0  0
  5 23  1  0  0  0  0
  6 24  1  0  0  0  0
  8 25  1  0  0  0  0
  9 26  1  0  0  0  0
 10 27  1  0  0  0  0
 10 28  1  0  0  0  0
 11 29  1  0  0  0  0
 11 30  1  0  0  0  0
 12 31  1  0  0  0  0
 12 32  1  0  0  0  0
 14 33  1  0  0  0  0
 15 34  1  0  0  0  0
 17 35  1  0  0  0  0
 18 36  1  0  0  0  0
 19 37  1  0  0  0  0
M  END
$$$$
