C19H16O4
APtclcactv06281816563D 0   0.00000     0.00000
 
 39 40  0  0  0  0  0  0  0  0999 V2000
   -5.0806   -1.1310   -0.0139 C   0  0  0  0  0  0  0  0  0  0  0  0
   -6.3328   -1.7015   -0.0173 C   0  0  0  0  0  0  0  0  0  0  0  0
   -7.4666   -0.8961   -0.0118 C   0  0  0  0  0  0  0  0  0  0  0  0
   -7.3420    0.4889   -0.0024 C   0  0  0  0  0  0  0  0  0  0  0  0
   -6.0947    1.0700    0.0015 C   0  0  0  0  0  0  0  0  0  0  0  0
   -4.9491    0.2637   -0.0045 C   0  0  0  0  0  0  0  0  0  0  0  0
   -3.6160    0.8778    0.0002 C   0  0  0  0  0  0  0  0  0  0  0  0
   -2.5092    0.0952   -0.0056 C   0  0  0  0  0  0  0  0  0  0  0  0
   -1.2305    0.6843   -0.0012 C   0  0  0  0  0  0  0  0  0  0  0  0
   -1.1190    1.8939    0.0078 O   0  0  0  0  0  0  0  0  0  0  0  0
   -0.0000   -0.1857   -0.0076 C   0  0  0  0  0  0  0  0  0  0  0  0
    1.2305    0.6843   -0.0011 C   0  0  0  0  0  0  0  0  0  0  0  0
    1.1190    1.8939    0.0079 O   0  0  0  0  0  0  0  0  0  0  0  0
    2.5092    0.0952   -0.0055 C   0  0  0  0  0  0  0  0  0  0  0  0
    3.6160    0.8778    0.0004 C   0  0  0  0  0  0  0  0  0  0  0  0
    4.9491    0.2637   -0.0041 C   0  0  0  0  0  0  0  0  0  0  0  0
    6.0946    1.0700    0.0019 C   0  0  0  0  0  0  0  0  0  0  0  0
    7.3420    0.4889   -0.0024 C   0  0  0  0  0  0  0  0  0  0  0  0
    7.4666   -0.8961   -0.0127 C   0  0  0  0  0  0  0  0  0  0  0  0
    6.3328   -1.7014   -0.0188 C   0  0  0  0  0  0  0  0  0  0  0  0
    5.0806   -1.1311   -0.0087 C   0  0  0  0  0  0  0  0  0  0  0  0
    8.6992   -1.4639   -0.0174 O   0  0  0  0  0  0  0  0  0  0  0  0
   -8.6992   -1.4640   -0.0161 O   0  0  0  0  0  0  0  0  0  0  0  0
   -4.2008   -1.7574   -0.0141 H   0  0  0  0  0  0  0  0  0  0  0  0
   -6.4354   -2.7766   -0.0246 H   0  0  0  0  0  0  0  0  0  0  0  0
   -8.2258    1.1096    0.0015 H   0  0  0  0  0  0  0  0  0  0  0  0
   -5.9990    2.1458    0.0084 H   0  0  0  0  0  0  0  0  0  0  0  0
   -3.5169    1.9532    0.0082 H   0  0  0  0  0  0  0  0  0  0  0  0
   -2.6083   -0.9802   -0.0136 H   0  0  0  0  0  0  0  0  0  0  0  0
   -0.0000   -0.8216    0.8776 H   0  0  0  0  0  0  0  0  0  0  0  0
    0.0000   -0.8084   -0.9023 H   0  0  0  0  0  0  0  0  0  0  0  0
    2.6083   -0.9802   -0.0135 H   0  0  0  0  0  0  0  0  0  0  0  0
    3.5169    1.9532    0.0084 H   0  0  0  0  0  0  0  0  0  0  0  0
    5.9990    2.1458    0.0096 H   0  0  0  0  0  0  0  0  0  0  0  0
    8.2258    1.1096    0.0019 H   0  0  0  0  0  0  0  0  0  0  0  0
    6.4354   -2.7765   -0.0268 H   0  0  0  0  0  0  0  0  0  0  0  0
    4.2008   -1.7574   -0.0131 H   0  0  0  0  0  0  0  0  0  0  0  0
    9.0567   -1.6351    0.8646 H   0  0  0  0  0  0  0  0  0  0  0  0
   -9.0566   -1.6348    0.8660 H   0  0  0  0  0  0  0  0  0  0  0  0
  1  2  2  0  0  0  0
  2  3  1  0  0  0  0
  3  4  2  0  0  0  0
  4  5  1  0  0  0  0
  5  6  2  0  0  0  0
  1  6  1  0  0  0  0
  6  7  1  0  0  0  0
  7  8  2  0  0  0  0
  8  9  1  0  0  0  0
  9 10  2  0  0  0  0
  9 11  1  0  0  0  0
 11 12  1  0  0  0  0
 12 13  2  0  0  0  0
 12 14  1  0  0  0  0
 14 15  2  0  0  0  0
 15 16  1  0  0  0  0
 16 17  2  0  0  0  0
 17 18  1  0  0  0  0
 18 19  2  0  0  0  0
 19 20  1  0  0  0  0
 20 21  2  0  0  0  0
 16 21  1  0  0  0  0
 19 22  1  0  0  0  0
  3 23  1  0  0  0  0
  1 24  1  0  0  0  0
  2 25  1  0  0  0  0
  4 26  1  0  0  0  0
  5 27  1  0  0  0  0
  7 28  1  0  0  0  0
  8 29  1  0  0  0  0
 11 30  1  0  0  0  0
 11 31  1  0  0  0  0
 14 32  1  0  0  0  0
 15 33  1  0  0  0  0
 17 34  1  0  0  0  0
 18 35  1  0  0  0  0
 20 36  1  0  0  0  0
 21 37  1  0  0  0  0
 22 38  1  0  0  0  0
 23 39  1  0  0  0  0
M  END
$$$$
