C15H22O
APtclcactv06281816553D 0   0.00000     0.00000
 
 38 38  0  0  0  0  0  0  0  0999 V2000
    5.6099   -1.0680    0.4688 C   0  0  0  0  0  0  0  0  0  0  0  0
    4.2133   -0.5546    0.2303 C   0  0  0  0  0  0  0  0  0  0  0  0
    3.8819    0.7389    0.5880 C   0  0  0  0  0  0  0  0  0  0  0  0
    2.6008    1.2098    0.3692 C   0  0  0  0  0  0  0  0  0  0  0  0
    1.6512    0.3874   -0.2077 C   0  0  0  0  0  0  0  0  0  0  0  0
    1.9828   -0.9058   -0.5662 C   0  0  0  0  0  0  0  0  0  0  0  0
    3.2651   -1.3753   -0.3514 C   0  0  0  0  0  0  0  0  0  0  0  0
    0.2543    0.9005   -0.4453 C   0  0  0  0  0  0  0  0  0  0  0  0
   -0.0643    0.8387   -1.9404 C   0  0  0  0  0  0  0  0  0  0  0  0
   -0.7449    0.0351    0.3253 C   0  0  0  0  0  0  0  0  0  0  0  0
   -2.1480    0.6289    0.1855 C   0  0  0  0  0  0  0  0  0  0  0  0
   -3.1490   -0.2880    0.8400 C   0  0  0  0  0  0  0  0  0  0  0  0
   -4.1764   -0.7298    0.1579 C   0  0  0  0  0  0  0  0  0  0  0  0
   -4.2928   -0.4225   -1.3129 C   0  0  0  0  0  0  0  0  0  0  0  0
   -5.2420   -1.5453    0.8439 C   0  0  0  0  0  0  0  0  0  0  0  0
   -2.1888    1.9089    0.8195 O   0  0  0  0  0  0  0  0  0  0  0  0
    5.6662   -1.5214    1.4585 H   0  0  0  0  0  0  0  0  0  0  0  0
    5.8570   -1.8135   -0.2870 H   0  0  0  0  0  0  0  0  0  0  0  0
    6.3166   -0.2404    0.4076 H   0  0  0  0  0  0  0  0  0  0  0  0
    4.6238    1.3815    1.0387 H   0  0  0  0  0  0  0  0  0  0  0  0
    2.3416    2.2202    0.6494 H   0  0  0  0  0  0  0  0  0  0  0  0
    1.2408   -1.5484   -1.0166 H   0  0  0  0  0  0  0  0  0  0  0  0
    3.5243   -2.3856   -0.6315 H   0  0  0  0  0  0  0  0  0  0  0  0
    0.1826    1.9322   -0.1009 H   0  0  0  0  0  0  0  0  0  0  0  0
   -1.0747    1.2098   -2.1123 H   0  0  0  0  0  0  0  0  0  0  0  0
    0.6475    1.4552   -2.4894 H   0  0  0  0  0  0  0  0  0  0  0  0
    0.0073   -0.1930   -2.2848 H   0  0  0  0  0  0  0  0  0  0  0  0
   -0.7367   -0.9770   -0.0794 H   0  0  0  0  0  0  0  0  0  0  0  0
   -0.4652    0.0076    1.3784 H   0  0  0  0  0  0  0  0  0  0  0  0
   -2.3924    0.7388   -0.8710 H   0  0  0  0  0  0  0  0  0  0  0  0
   -3.0193   -0.5809    1.8714 H   0  0  0  0  0  0  0  0  0  0  0  0
   -3.3915   -0.7571   -1.8264 H   0  0  0  0  0  0  0  0  0  0  0  0
   -5.1591   -0.9402   -1.7247 H   0  0  0  0  0  0  0  0  0  0  0  0
   -4.4121    0.6521   -1.4512 H   0  0  0  0  0  0  0  0  0  0  0  0
   -6.0154   -0.8813    1.2300 H   0  0  0  0  0  0  0  0  0  0  0  0
   -5.6833   -2.2406    0.1299 H   0  0  0  0  0  0  0  0  0  0  0  0
   -4.7979   -2.1037    1.6680 H   0  0  0  0  0  0  0  0  0  0  0  0
   -1.9081    1.8987    1.7448 H   0  0  0  0  0  0  0  0  0  0  0  0
  1  2  1  0  0  0  0
  2  3  2  0  0  0  0
  3  4  1  0  0  0  0
  4  5  2  0  0  0  0
  5  6  1  0  0  0  0
  6  7  2  0  0  0  0
  2  7  1  0  0  0  0
  5  8  1  0  0  0  0
  8  9  1  0  0  0  0
  8 10  1  0  0  0  0
 10 11  1  0  0  0  0
 11 12  1  0  0  0  0
 12 13  2  0  0  0  0
 13 14  1  0  0  0  0
 13 15  1  0  0  0  0
 11 16  1  0  0  0  0
  1 17  1  0  0  0  0
  1 18  1  0  0  0  0
  1 19  1  0  0  0  0
  3 20  1  0  0  0  0
  4 21  1  0  0  0  0
  6 22  1  0  0  0  0
  7 23  1  0  0  0  0
  8 24  1  0  0  0  0
  9 25  1  0  0  0  0
  9 26  1  0  0  0  0
  9 27  1  0  0  0  0
 10 28  1  0  0  0  0
 10 29  1  0  0  0  0
 11 30  1  0  0  0  0
 12 31  1  0  0  0  0
 14 32  1  0  0  0  0
 14 33  1  0  0  0  0
 14 34  1  0  0  0  0
 15 35  1  0  0  0  0
 15 36  1  0  0  0  0
 15 37  1  0  0  0  0
 16 38  1  0  0  0  0
M  END
$$$$
