C20H18O5
APtclcactv06281816513D 0   0.00000     0.00000
 
 43 45  0  0  0  0  0  0  0  0999 V2000
   -6.6310    1.2993    0.6500 C   0  0  0  0  0  0  0  0  0  0  0  0
   -5.7727    1.5259   -0.5678 C   0  0  0  0  0  0  0  0  0  0  0  0
   -4.4687    1.4418   -0.4749 C   0  0  0  0  0  0  0  0  0  0  0  0
   -3.8327    0.9897    0.8144 C   0  0  0  0  0  0  0  0  0  0  0  0
   -2.9132   -0.1724    0.5404 C   0  0  0  0  0  0  0  0  0  0  0  0
   -3.4367   -1.4508    0.3903 C   0  0  0  0  0  0  0  0  0  0  0  0
   -2.5932   -2.5263    0.1380 C   0  0  0  0  0  0  0  0  0  0  0  0
   -1.2342   -2.3289    0.0357 C   0  0  0  0  0  0  0  0  0  0  0  0
   -0.7033   -1.0444    0.1856 C   0  0  0  0  0  0  0  0  0  0  0  0
   -1.5557    0.0350    0.4337 C   0  0  0  0  0  0  0  0  0  0  0  0
    0.7517   -0.8281    0.0770 C   0  0  0  0  0  0  0  0  0  0  0  0
    1.5553   -1.8975   -0.1700 C   0  0  0  0  0  0  0  0  0  0  0  0
    2.9537   -1.7093   -0.2775 C   0  0  0  0  0  0  0  0  0  0  0  0
    3.7043   -2.6459   -0.4988 O   0  0  0  0  0  0  0  0  0  0  0  0
    3.4678   -0.3391   -0.1126 C   0  0  0  0  0  0  0  0  0  0  0  0
    4.8370   -0.0604   -0.2036 C   0  0  0  0  0  0  0  0  0  0  0  0
    5.2794    1.2400   -0.0430 C   0  0  0  0  0  0  0  0  0  0  0  0
    4.3698    2.2614    0.2069 C   0  0  0  0  0  0  0  0  0  0  0  0
    3.0126    1.9924    0.2982 C   0  0  0  0  0  0  0  0  0  0  0  0
    2.5503    0.6955    0.1401 C   0  0  0  0  0  0  0  0  0  0  0  0
    1.2317    0.4174    0.2202 O   0  0  0  0  0  0  0  0  0  0  0  0
    4.8147    3.5343    0.3634 O   0  0  0  0  0  0  0  0  0  0  0  0
    5.7233   -1.0589   -0.4471 O   0  0  0  0  0  0  0  0  0  0  0  0
   -4.7758   -1.6500    0.4908 O   0  0  0  0  0  0  0  0  0  0  0  0
   -6.4145    1.8491   -1.8924 C   0  0  0  0  0  0  0  0  0  0  0  0
   -6.3130    1.9697    1.4485 H   0  0  0  0  0  0  0  0  0  0  0  0
   -7.6735    1.4987    0.4020 H   0  0  0  0  0  0  0  0  0  0  0  0
   -6.5274    0.2658    0.9805 H   0  0  0  0  0  0  0  0  0  0  0  0
   -3.8494    1.6965   -1.3222 H   0  0  0  0  0  0  0  0  0  0  0  0
   -3.2610    1.8116    1.2453 H   0  0  0  0  0  0  0  0  0  0  0  0
   -4.6095    0.6813    1.5141 H   0  0  0  0  0  0  0  0  0  0  0  0
   -3.0042   -3.5184    0.0223 H   0  0  0  0  0  0  0  0  0  0  0  0
   -0.5794   -3.1653   -0.1597 H   0  0  0  0  0  0  0  0  0  0  0  0
   -1.1497    1.0290    0.5501 H   0  0  0  0  0  0  0  0  0  0  0  0
    1.1291   -2.8834   -0.2828 H   0  0  0  0  0  0  0  0  0  0  0  0
    6.3340    1.4626   -0.1115 H   0  0  0  0  0  0  0  0  0  0  0  0
    2.3155    2.7939    0.4930 H   0  0  0  0  0  0  0  0  0  0  0  0
    4.8584    4.0397   -0.4599 H   0  0  0  0  0  0  0  0  0  0  0  0
    5.8947   -1.2122   -1.3863 H   0  0  0  0  0  0  0  0  0  0  0  0
   -5.2494   -1.5706   -0.3486 H   0  0  0  0  0  0  0  0  0  0  0  0
   -7.4977    1.8759   -1.7744 H   0  0  0  0  0  0  0  0  0  0  0  0
   -6.0626    2.8207   -2.2391 H   0  0  0  0  0  0  0  0  0  0  0  0
   -6.1473    1.0844   -2.6218 H   0  0  0  0  0  0  0  0  0  0  0  0
  1  2  1  0  0  0  0
  2  3  2  0  0  0  0
  3  4  1  0  0  0  0
  4  5  1  0  0  0  0
  5  6  2  0  0  0  0
  6  7  1  0  0  0  0
  7  8  2  0  0  0  0
  8  9  1  0  0  0  0
  9 10  2  0  0  0  0
  5 10  1  0  0  0  0
  9 11  1  0  0  0  0
 11 12  2  0  0  0  0
 12 13  1  0  0  0  0
 13 14  2  0  0  0  0
 13 15  1  0  0  0  0
 15 16  2  0  0  0  0
 16 17  1  0  0  0  0
 17 18  2  0  0  0  0
 18 19  1  0  0  0  0
 19 20  2  0  0  0  0
 15 20  1  0  0  0  0
 20 21  1  0  0  0  0
 11 21  1  0  0  0  0
 18 22  1  0  0  0  0
 16 23  1  0  0  0  0
  6 24  1  0  0  0  0
  2 25  1  0  0  0  0
  1 26  1  0  0  0  0
  1 27  1  0  0  0  0
  1 28  1  0  0  0  0
  3 29  1  0  0  0  0
  4 30  1  0  0  0  0
  4 31  1  0  0  0  0
  7 32  1  0  0  0  0
  8 33  1  0  0  0  0
 10 34  1  0  0  0  0
 12 35  1  0  0  0  0
 17 36  1  0  0  0  0
 19 37  1  0  0  0  0
 22 38  1  0  0  0  0
 23 39  1  0  0  0  0
 24 40  1  0  0  0  0
 25 41  1  0  0  0  0
 25 42  1  0  0  0  0
 25 43  1  0  0  0  0
M  END
$$$$
