C14H14O3
APtclcactv06281816573D 0   0.00000     0.00000
 
 31 32  0  0  0  0  0  0  0  0999 V2000
   -2.9447    0.3818   -1.1985 C   0  0  0  0  0  0  0  0  0  0  0  0
   -4.0420   -0.4576   -1.2002 C   0  0  0  0  0  0  0  0  0  0  0  0
   -4.5939   -0.8782    0.0011 C   0  0  0  0  0  0  0  0  0  0  0  0
   -4.0422   -0.4544    1.2014 C   0  0  0  0  0  0  0  0  0  0  0  0
   -2.9450    0.3849    1.1977 C   0  0  0  0  0  0  0  0  0  0  0  0
   -2.3967    0.8026   -0.0009 C   0  0  0  0  0  0  0  0  0  0  0  0
   -1.1994    1.7179   -0.0020 C   0  0  0  0  0  0  0  0  0  0  0  0
   -0.0028    0.9368   -0.0011 O   0  0  0  0  0  0  0  0  0  0  0  0
    1.1975    1.7123   -0.0020 C   0  0  0  0  0  0  0  0  0  0  0  0
    2.3905    0.7915   -0.0010 C   0  0  0  0  0  0  0  0  0  0  0  0
    2.9368    0.3685   -1.1986 C   0  0  0  0  0  0  0  0  0  0  0  0
    4.0301   -0.4760   -1.2003 C   0  0  0  0  0  0  0  0  0  0  0  0
    4.5802   -0.8991    0.0010 C   0  0  0  0  0  0  0  0  0  0  0  0
    4.0304   -0.4728    1.2013 C   0  0  0  0  0  0  0  0  0  0  0  0
    2.9403    0.3758    1.1976 C   0  0  0  0  0  0  0  0  0  0  0  0
    5.6555   -1.7302    0.0019 O   0  0  0  0  0  0  0  0  0  0  0  0
   -5.6736   -1.7035    0.0021 O   0  0  0  0  0  0  0  0  0  0  0  0
   -2.5120    0.7059   -2.1334 H   0  0  0  0  0  0  0  0  0  0  0  0
   -4.4699   -0.7858   -2.1359 H   0  0  0  0  0  0  0  0  0  0  0  0
   -4.4703   -0.7802    2.1379 H   0  0  0  0  0  0  0  0  0  0  0  0
   -2.5153    0.7153    2.1318 H   0  0  0  0  0  0  0  0  0  0  0  0
   -1.2229    2.3457   -0.8927 H   0  0  0  0  0  0  0  0  0  0  0  0
   -1.2228    2.3478    0.8873 H   0  0  0  0  0  0  0  0  0  0  0  0
    1.2238    2.3400   -0.8927 H   0  0  0  0  0  0  0  0  0  0  0  0
    1.2238    2.3421    0.8872 H   0  0  0  0  0  0  0  0  0  0  0  0
    2.5082    0.6981   -2.1335 H   0  0  0  0  0  0  0  0  0  0  0  0
    4.4561   -0.8067   -2.1360 H   0  0  0  0  0  0  0  0  0  0  0  0
    4.4567   -0.8011    2.1377 H   0  0  0  0  0  0  0  0  0  0  0  0
    2.5120    0.7079    2.1317 H   0  0  0  0  0  0  0  0  0  0  0  0
    6.5069   -1.2717    0.0010 H   0  0  0  0  0  0  0  0  0  0  0  0
   -5.4496   -2.6442    0.0032 H   0  0  0  0  0  0  0  0  0  0  0  0
  1  2  2  0  0  0  0
  2  3  1  0  0  0  0
  3  4  2  0  0  0  0
  4  5  1  0  0  0  0
  5  6  2  0  0  0  0
  1  6  1  0  0  0  0
  6  7  1  0  0  0  0
  7  8  1  0  0  0  0
  8  9  1  0  0  0  0
  9 10  1  0  0  0  0
 10 11  2  0  0  0  0
 11 12  1  0  0  0  0
 12 13  2  0  0  0  0
 13 14  1  0  0  0  0
 14 15  2  0  0  0  0
 10 15  1  0  0  0  0
 13 16  1  0  0  0  0
  3 17  1  0  0  0  0
  1 18  1  0  0  0  0
  2 19  1  0  0  0  0
  4 20  1  0  0  0  0
  5 21  1  0  0  0  0
  7 22  1  0  0  0  0
  7 23  1  0  0  0  0
  9 24  1  0  0  0  0
  9 25  1  0  0  0  0
 11 26  1  0  0  0  0
 12 27  1  0  0  0  0
 14 28  1  0  0  0  0
 15 29  1  0  0  0  0
 16 30  1  0  0  0  0
 17 31  1  0  0  0  0
M  END
$$$$
