C14H14O5
APtclcactv06281816583D 0   0.00000     0.00000
 
 33 35  0  0  0  0  0  0  0  0999 V2000
    4.9041   -0.8822   -0.3650 C   0  0  0  0  0  0  0  0  0  0  0  0
    4.0062    0.2814    0.0601 C   0  0  0  0  0  0  0  0  0  0  0  0
    4.6507    1.6034   -0.3618 C   0  0  0  0  0  0  0  0  0  0  0  0
    2.6391    0.1429   -0.6128 C   0  0  0  0  0  0  0  0  0  0  0  0
    1.9237   -1.1444   -0.1398 C   0  0  0  0  0  0  0  0  0  0  0  0
    0.4754   -0.6962   -0.0894 C   0  0  0  0  0  0  0  0  0  0  0  0
    0.4784    0.6967   -0.1234 C   0  0  0  0  0  0  0  0  0  0  0  0
    1.7487    1.1826   -0.1749 O   0  0  0  0  0  0  0  0  0  0  0  0
   -0.7322    1.3850   -0.0982 C   0  0  0  0  0  0  0  0  0  0  0  0
   -1.9308    0.6967   -0.0351 C   0  0  0  0  0  0  0  0  0  0  0  0
   -1.9278   -0.7101    0.0045 C   0  0  0  0  0  0  0  0  0  0  0  0
   -0.7044   -1.4032   -0.0228 C   0  0  0  0  0  0  0  0  0  0  0  0
   -0.6867   -2.7596    0.0149 O   0  0  0  0  0  0  0  0  0  0  0  0
   -3.1586   -1.4105    0.0712 C   0  0  0  0  0  0  0  0  0  0  0  0
   -4.3161   -0.6995    0.0942 C   0  0  0  0  0  0  0  0  0  0  0  0
   -4.2750    0.7084    0.0519 C   0  0  0  0  0  0  0  0  0  0  0  0
   -5.3170    1.3391    0.0725 O   0  0  0  0  0  0  0  0  0  0  0  0
   -3.1050    1.3667   -0.0109 O   0  0  0  0  0  0  0  0  0  0  0  0
    3.8425    0.2630    1.4795 O   0  0  0  0  0  0  0  0  0  0  0  0
    5.8780   -0.7836    0.1144 H   0  0  0  0  0  0  0  0  0  0  0  0
    4.4449   -1.8240   -0.0644 H   0  0  0  0  0  0  0  0  0  0  0  0
    5.0289   -0.8681   -1.4477 H   0  0  0  0  0  0  0  0  0  0  0  0
    4.8412    1.5885   -1.4349 H   0  0  0  0  0  0  0  0  0  0  0  0
    3.9785    2.4277   -0.1235 H   0  0  0  0  0  0  0  0  0  0  0  0
    5.5916    1.7357    0.1724 H   0  0  0  0  0  0  0  0  0  0  0  0
    2.7421    0.1508   -1.6979 H   0  0  0  0  0  0  0  0  0  0  0  0
    2.0570   -1.9515   -0.8602 H   0  0  0  0  0  0  0  0  0  0  0  0
    2.2734   -1.4441    0.8481 H   0  0  0  0  0  0  0  0  0  0  0  0
   -0.7353    2.4646   -0.1284 H   0  0  0  0  0  0  0  0  0  0  0  0
   -0.7154   -3.1776   -0.8566 H   0  0  0  0  0  0  0  0  0  0  0  0
   -3.1757   -2.4899    0.1035 H   0  0  0  0  0  0  0  0  0  0  0  0
   -5.2654   -1.2120    0.1445 H   0  0  0  0  0  0  0  0  0  0  0  0
    4.6705    0.3467    1.9721 H   0  0  0  0  0  0  0  0  0  0  0  0
  1  2  1  0  0  0  0
  2  3  1  0  0  0  0
  2  4  1  0  0  0  0
  4  5  1  0  0  0  0
  5  6  1  0  0  0  0
  6  7  2  0  0  0  0
  7  8  1  0  0  0  0
  4  8  1  0  0  0  0
  7  9  1  0  0  0  0
  9 10  2  0  0  0  0
 10 11  1  0  0  0  0
 11 12  2  0  0  0  0
  6 12  1  0  0  0  0
 12 13  1  0  0  0  0
 11 14  1  0  0  0  0
 14 15  2  0  0  0  0
 15 16  1  0  0  0  0
 16 17  2  0  0  0  0
 16 18  1  0  0  0  0
 10 18  1  0  0  0  0
  2 19  1  0  0  0  0
  1 20  1  0  0  0  0
  1 21  1  0  0  0  0
  1 22  1  0  0  0  0
  3 23  1  0  0  0  0
  3 24  1  0  0  0  0
  3 25  1  0  0  0  0
  4 26  1  0  0  0  0
  5 27  1  0  0  0  0
  5 28  1  0  0  0  0
  9 29  1  0  0  0  0
 13 30  1  0  0  0  0
 14 31  1  0  0  0  0
 15 32  1  0  0  0  0
 19 33  1  0  0  0  0
M  END
$$$$
