C12H13NO4
APtclcactv06281816583D 0   0.00000     0.00000
 
 30 31  0  0  0  0  0  0  0  0999 V2000
    4.2721    0.6440    0.0425 C   0  0  0  0  0  0  0  0  0  0  0  0
    2.8220    0.8507    0.0157 N   0  0  0  0  0  0  0  0  0  0  0  0
    2.3393    2.1229   -0.1156 C   0  0  0  0  0  0  0  0  0  0  0  0
    1.0251    2.3928   -0.1483 C   0  0  0  0  0  0  0  0  0  0  0  0
    0.0622    1.2935   -0.0404 C   0  0  0  0  0  0  0  0  0  0  0  0
   -1.3121    1.5153   -0.0690 C   0  0  0  0  0  0  0  0  0  0  0  0
   -2.1819    0.4438    0.0360 C   0  0  0  0  0  0  0  0  0  0  0  0
   -1.6956   -0.8569    0.1703 C   0  0  0  0  0  0  0  0  0  0  0  0
   -0.3316   -1.0988    0.2013 C   0  0  0  0  0  0  0  0  0  0  0  0
    0.5607   -0.0249    0.0957 C   0  0  0  0  0  0  0  0  0  0  0  0
    2.0105   -0.2203    0.1159 C   0  0  0  0  0  0  0  0  0  0  0  0
    2.4792   -1.3395    0.2272 O   0  0  0  0  0  0  0  0  0  0  0  0
    0.1360   -2.3670    0.3332 O   0  0  0  0  0  0  0  0  0  0  0  0
    0.3652   -3.1023   -0.8705 C   0  0  0  0  0  0  0  0  0  0  0  0
   -2.5681   -1.8967    0.2721 O   0  0  0  0  0  0  0  0  0  0  0  0
   -3.5225    0.6610    0.0085 O   0  0  0  0  0  0  0  0  0  0  0  0
   -3.9577    2.0149   -0.1305 C   0  0  0  0  0  0  0  0  0  0  0  0
    4.7779    1.6048   -0.0532 H   0  0  0  0  0  0  0  0  0  0  0  0
    4.5551    0.1767    0.9857 H   0  0  0  0  0  0  0  0  0  0  0  0
    4.5622   -0.0033   -0.7851 H   0  0  0  0  0  0  0  0  0  0  0  0
    3.0407    2.9402   -0.1955 H   0  0  0  0  0  0  0  0  0  0  0  0
    0.6803    3.4109   -0.2529 H   0  0  0  0  0  0  0  0  0  0  0  0
   -1.6976    2.5189   -0.1723 H   0  0  0  0  0  0  0  0  0  0  0  0
   -0.5686   -3.1907   -1.4257 H   0  0  0  0  0  0  0  0  0  0  0  0
    1.1025   -2.5802   -1.4804 H   0  0  0  0  0  0  0  0  0  0  0  0
    0.7366   -4.0969   -0.6235 H   0  0  0  0  0  0  0  0  0  0  0  0
   -2.8164   -2.2864   -0.5773 H   0  0  0  0  0  0  0  0  0  0  0  0
   -3.5826    2.6049    0.7058 H   0  0  0  0  0  0  0  0  0  0  0  0
   -3.5753    2.4254   -1.0651 H   0  0  0  0  0  0  0  0  0  0  0  0
   -5.0472    2.0474   -0.1383 H   0  0  0  0  0  0  0  0  0  0  0  0
  1  2  1  0  0  0  0
  2  3  1  0  0  0  0
  3  4  2  0  0  0  0
  4  5  1  0  0  0  0
  5  6  2  0  0  0  0
  6  7  1  0  0  0  0
  7  8  2  0  0  0  0
  8  9  1  0  0  0  0
  9 10  2  0  0  0  0
  5 10  1  0  0  0  0
 10 11  1  0  0  0  0
  2 11  1  0  0  0  0
 11 12  2  0  0  0  0
  9 13  1  0  0  0  0
 13 14  1  0  0  0  0
  8 15  1  0  0  0  0
  7 16  1  0  0  0  0
 16 17  1  0  0  0  0
  1 18  1  0  0  0  0
  1 19  1  0  0  0  0
  1 20  1  0  0  0  0
  3 21  1  0  0  0  0
  4 22  1  0  0  0  0
  6 23  1  0  0  0  0
 14 24  1  0  0  0  0
 14 25  1  0  0  0  0
 14 26  1  0  0  0  0
 15 27  1  0  0  0  0
 17 28  1  0  0  0  0
 17 29  1  0  0  0  0
 17 30  1  0  0  0  0
M  END
$$$$
