C18H16O8
APtclcactv06281816583D 0   0.00000     0.00000
 
 42 44  0  0  0  0  0  0  0  0999 V2000
    6.6259   -1.9540   -0.9602 C   0  0  0  0  0  0  0  0  0  0  0  0
    6.1663   -0.9352   -0.0698 O   0  0  0  0  0  0  0  0  0  0  0  0
    4.8283   -0.7005   -0.0389 C   0  0  0  0  0  0  0  0  0  0  0  0
    4.3139    0.2798    0.8076 C   0  0  0  0  0  0  0  0  0  0  0  0
    2.9535    0.5200    0.8405 C   0  0  0  0  0  0  0  0  0  0  0  0
    2.0963   -0.2218    0.0229 C   0  0  0  0  0  0  0  0  0  0  0  0
    2.6193   -1.2030   -0.8239 C   0  0  0  0  0  0  0  0  0  0  0  0
    3.9779   -1.4337   -0.8548 C   0  0  0  0  0  0  0  0  0  0  0  0
    0.6437    0.0298    0.0541 C   0  0  0  0  0  0  0  0  0  0  0  0
    0.1991    1.3161   -0.0138 C   0  0  0  0  0  0  0  0  0  0  0  0
   -1.1955    1.5751    0.0150 C   0  0  0  0  0  0  0  0  0  0  0  0
   -1.6303    2.7142   -0.0442 O   0  0  0  0  0  0  0  0  0  0  0  0
   -2.0976    0.4169    0.1185 C   0  0  0  0  0  0  0  0  0  0  0  0
   -3.4880    0.5806    0.1527 C   0  0  0  0  0  0  0  0  0  0  0  0
   -4.3037   -0.5350    0.2502 C   0  0  0  0  0  0  0  0  0  0  0  0
   -3.7412   -1.8085    0.3136 C   0  0  0  0  0  0  0  0  0  0  0  0
   -2.3659   -1.9749    0.2804 C   0  0  0  0  0  0  0  0  0  0  0  0
   -1.5341   -0.8700    0.1826 C   0  0  0  0  0  0  0  0  0  0  0  0
   -0.1927   -1.0183    0.1430 O   0  0  0  0  0  0  0  0  0  0  0  0
   -4.5486   -2.8968    0.4091 O   0  0  0  0  0  0  0  0  0  0  0  0
   -5.6568   -0.3869    0.2847 O   0  0  0  0  0  0  0  0  0  0  0  0
   -6.3427   -0.3972   -0.9689 C   0  0  0  0  0  0  0  0  0  0  0  0
   -4.0325    1.8235    0.0912 O   0  0  0  0  0  0  0  0  0  0  0  0
    1.0858    2.3442   -0.1081 O   0  0  0  0  0  0  0  0  0  0  0  0
    1.0723    3.1037   -1.3185 C   0  0  0  0  0  0  0  0  0  0  0  0
    5.1508    0.9998    1.6018 O   0  0  0  0  0  0  0  0  0  0  0  0
    7.7101   -2.0389   -0.8866 H   0  0  0  0  0  0  0  0  0  0  0  0
    6.1677   -2.9057   -0.6909 H   0  0  0  0  0  0  0  0  0  0  0  0
    6.3504   -1.6945   -1.9824 H   0  0  0  0  0  0  0  0  0  0  0  0
    2.5536    1.2789    1.4967 H   0  0  0  0  0  0  0  0  0  0  0  0
    1.9594   -1.7779   -1.4568 H   0  0  0  0  0  0  0  0  0  0  0  0
    4.3809   -2.1919   -1.5098 H   0  0  0  0  0  0  0  0  0  0  0  0
   -1.9414   -2.9667    0.3309 H   0  0  0  0  0  0  0  0  0  0  0  0
   -4.8107   -3.2682   -0.4444 H   0  0  0  0  0  0  0  0  0  0  0  0
   -7.4119   -0.2706   -0.7991 H   0  0  0  0  0  0  0  0  0  0  0  0
   -5.9745    0.4184   -1.5912 H   0  0  0  0  0  0  0  0  0  0  0  0
   -6.1647   -1.3474   -1.4726 H   0  0  0  0  0  0  0  0  0  0  0  0
   -4.2185    2.1274   -0.8078 H   0  0  0  0  0  0  0  0  0  0  0  0
    1.8900    3.8242   -1.3045 H   0  0  0  0  0  0  0  0  0  0  0  0
    1.1932    2.4333   -2.1694 H   0  0  0  0  0  0  0  0  0  0  0  0
    0.1232    3.6328   -1.4049 H   0  0  0  0  0  0  0  0  0  0  0  0
    5.4838    1.8092    1.1906 H   0  0  0  0  0  0  0  0  0  0  0  0
  1  2  1  0  0  0  0
  2  3  1  0  0  0  0
  3  4  2  0  0  0  0
  4  5  1  0  0  0  0
  5  6  2  0  0  0  0
  6  7  1  0  0  0  0
  7  8  2  0  0  0  0
  3  8  1  0  0  0  0
  6  9  1  0  0  0  0
  9 10  2  0  0  0  0
 10 11  1  0  0  0  0
 11 12  2  0  0  0  0
 11 13  1  0  0  0  0
 13 14  2  0  0  0  0
 14 15  1  0  0  0  0
 15 16  2  0  0  0  0
 16 17  1  0  0  0  0
 17 18  2  0  0  0  0
 13 18  1  0  0  0  0
 18 19  1  0  0  0  0
  9 19  1  0  0  0  0
 16 20  1  0  0  0  0
 15 21  1  0  0  0  0
 21 22  1  0  0  0  0
 14 23  1  0  0  0  0
 10 24  1  0  0  0  0
 24 25  1  0  0  0  0
  4 26  1  0  0  0  0
  1 27  1  0  0  0  0
  1 28  1  0  0  0  0
  1 29  1  0  0  0  0
  5 30  1  0  0  0  0
  7 31  1  0  0  0  0
  8 32  1  0  0  0  0
 17 33  1  0  0  0  0
 20 34  1  0  0  0  0
 22 35  1  0  0  0  0
 22 36  1  0  0  0  0
 22 37  1  0  0  0  0
 23 38  1  0  0  0  0
 25 39  1  0  0  0  0
 25 40  1  0  0  0  0
 25 41  1  0  0  0  0
 26 42  1  0  0  0  0
M  END
$$$$
