C19H20O
APtclcactv06281816593D 0   0.00000     0.00000
 
 40 41  0  0  0  0  0  0  0  0999 V2000
    7.3561   -1.0822    0.4413 C   0  0  0  0  0  0  0  0  0  0  0  0
    6.3649   -1.9296   -0.0173 C   0  0  0  0  0  0  0  0  0  0  0  0
    5.1382   -1.4172   -0.3962 C   0  0  0  0  0  0  0  0  0  0  0  0
    4.9026   -0.0574   -0.3162 C   0  0  0  0  0  0  0  0  0  0  0  0
    5.8935    0.7899    0.1433 C   0  0  0  0  0  0  0  0  0  0  0  0
    7.1207    0.2776    0.5209 C   0  0  0  0  0  0  0  0  0  0  0  0
    3.5657    0.5014   -0.7302 C   0  0  0  0  0  0  0  0  0  0  0  0
    2.6273    0.5269    0.4779 C   0  0  0  0  0  0  0  0  0  0  0  0
    1.2904    1.0856    0.0638 C   0  0  0  0  0  0  0  0  0  0  0  0
    0.1764    0.3852    0.2866 C   0  0  0  0  0  0  0  0  0  0  0  0
   -1.1211    0.9275   -0.1153 C   0  0  0  0  0  0  0  0  0  0  0  0
   -1.1848    2.0141   -0.6512 O   0  0  0  0  0  0  0  0  0  0  0  0
   -2.3789    0.1365    0.1362 C   0  0  0  0  0  0  0  0  0  0  0  0
   -3.5872    0.9235   -0.3753 C   0  0  0  0  0  0  0  0  0  0  0  0
   -4.8450    0.1326   -0.1238 C   0  0  0  0  0  0  0  0  0  0  0  0
   -5.5357    0.2915    1.0630 C   0  0  0  0  0  0  0  0  0  0  0  0
   -6.6895   -0.4340    1.2938 C   0  0  0  0  0  0  0  0  0  0  0  0
   -7.1528   -1.3182    0.3375 C   0  0  0  0  0  0  0  0  0  0  0  0
   -6.4626   -1.4765   -0.8497 C   0  0  0  0  0  0  0  0  0  0  0  0
   -5.3112   -0.7477   -1.0822 C   0  0  0  0  0  0  0  0  0  0  0  0
    8.3129   -1.4831    0.7417 H   0  0  0  0  0  0  0  0  0  0  0  0
    6.5489   -2.9920   -0.0798 H   0  0  0  0  0  0  0  0  0  0  0  0
    4.3641   -2.0791   -0.7552 H   0  0  0  0  0  0  0  0  0  0  0  0
    5.7097    1.8523    0.2052 H   0  0  0  0  0  0  0  0  0  0  0  0
    7.8950    0.9396    0.8796 H   0  0  0  0  0  0  0  0  0  0  0  0
    3.6972    1.5147   -1.1096 H   0  0  0  0  0  0  0  0  0  0  0  0
    3.1358   -0.1260   -1.5111 H   0  0  0  0  0  0  0  0  0  0  0  0
    2.4958   -0.4865    0.8573 H   0  0  0  0  0  0  0  0  0  0  0  0
    3.0572    1.1542    1.2587 H   0  0  0  0  0  0  0  0  0  0  0  0
    1.2337    2.0529   -0.4132 H   0  0  0  0  0  0  0  0  0  0  0  0
    0.2331   -0.5821    0.7636 H   0  0  0  0  0  0  0  0  0  0  0  0
   -2.3188   -0.8177   -0.3871 H   0  0  0  0  0  0  0  0  0  0  0  0
   -2.4881   -0.0420    1.2060 H   0  0  0  0  0  0  0  0  0  0  0  0
   -3.6473    1.8778    0.1480 H   0  0  0  0  0  0  0  0  0  0  0  0
   -3.4780    1.1021   -1.4450 H   0  0  0  0  0  0  0  0  0  0  0  0
   -5.1737    0.9823    1.8101 H   0  0  0  0  0  0  0  0  0  0  0  0
   -7.2287   -0.3104    2.2213 H   0  0  0  0  0  0  0  0  0  0  0  0
   -8.0538   -1.8856    0.5181 H   0  0  0  0  0  0  0  0  0  0  0  0
   -6.8244   -2.1675   -1.5966 H   0  0  0  0  0  0  0  0  0  0  0  0
   -4.7719   -0.8714   -2.0098 H   0  0  0  0  0  0  0  0  0  0  0  0
  1  2  2  0  0  0  0
  2  3  1  0  0  0  0
  3  4  2  0  0  0  0
  4  5  1  0  0  0  0
  5  6  2  0  0  0  0
  1  6  1  0  0  0  0
  4  7  1  0  0  0  0
  7  8  1  0  0  0  0
  8  9  1  0  0  0  0
  9 10  2  0  0  0  0
 10 11  1  0  0  0  0
 11 12  2  0  0  0  0
 11 13  1  0  0  0  0
 13 14  1  0  0  0  0
 14 15  1  0  0  0  0
 15 16  2  0  0  0  0
 16 17  1  0  0  0  0
 17 18  2  0  0  0  0
 18 19  1  0  0  0  0
 19 20  2  0  0  0  0
 15 20  1  0  0  0  0
  1 21  1  0  0  0  0
  2 22  1  0  0  0  0
  3 23  1  0  0  0  0
  5 24  1  0  0  0  0
  6 25  1  0  0  0  0
  7 26  1  0  0  0  0
  7 27  1  0  0  0  0
  8 28  1  0  0  0  0
  8 29  1  0  0  0  0
  9 30  1  0  0  0  0
 10 31  1  0  0  0  0
 13 32  1  0  0  0  0
 13 33  1  0  0  0  0
 14 34  1  0  0  0  0
 14 35  1  0  0  0  0
 16 36  1  0  0  0  0
 17 37  1  0  0  0  0
 18 38  1  0  0  0  0
 19 39  1  0  0  0  0
 20 40  1  0  0  0  0
M  END
$$$$
