C17H14O7
APtclcactv06281816593D 0   0.00000     0.00000
 
 38 40  0  0  0  0  0  0  0  0999 V2000
   -4.3243   -1.5039    2.0252 C   0  0  0  0  0  0  0  0  0  0  0  0
   -4.8039   -0.4573    1.1786 O   0  0  0  0  0  0  0  0  0  0  0  0
   -3.8788    0.2122    0.4400 C   0  0  0  0  0  0  0  0  0  0  0  0
   -4.2778    1.2446   -0.4069 C   0  0  0  0  0  0  0  0  0  0  0  0
   -3.3366    1.9301   -1.1623 C   0  0  0  0  0  0  0  0  0  0  0  0
   -2.0028    1.5929   -1.0788 C   0  0  0  0  0  0  0  0  0  0  0  0
   -1.5953    0.5585   -0.2317 C   0  0  0  0  0  0  0  0  0  0  0  0
   -2.5427   -0.1276    0.5335 C   0  0  0  0  0  0  0  0  0  0  0  0
   -0.1690    0.1961   -0.1408 C   0  0  0  0  0  0  0  0  0  0  0  0
    0.1800   -1.1188   -0.2178 C   0  0  0  0  0  0  0  0  0  0  0  0
    1.5485   -1.4840   -0.1326 C   0  0  0  0  0  0  0  0  0  0  0  0
    1.8986   -2.6516   -0.1980 O   0  0  0  0  0  0  0  0  0  0  0  0
    2.5294   -0.4001    0.0371 C   0  0  0  0  0  0  0  0  0  0  0  0
    3.9010   -0.6690    0.1299 C   0  0  0  0  0  0  0  0  0  0  0  0
    4.7908    0.3772    0.2885 C   0  0  0  0  0  0  0  0  0  0  0  0
    4.3258    1.6860    0.3553 C   0  0  0  0  0  0  0  0  0  0  0  0
    2.9698    1.9597    0.2647 C   0  0  0  0  0  0  0  0  0  0  0  0
    2.0618    0.9243    0.1050 C   0  0  0  0  0  0  0  0  0  0  0  0
    0.7393    1.1753    0.0093 O   0  0  0  0  0  0  0  0  0  0  0  0
    5.2083    2.7058    0.5112 O   0  0  0  0  0  0  0  0  0  0  0  0
    4.3530   -1.9470    0.0649 O   0  0  0  0  0  0  0  0  0  0  0  0
   -0.7764   -2.0742   -0.3747 O   0  0  0  0  0  0  0  0  0  0  0  0
   -0.7642   -2.8093   -1.6001 C   0  0  0  0  0  0  0  0  0  0  0  0
   -5.5915    1.5806   -0.4936 O   0  0  0  0  0  0  0  0  0  0  0  0
   -5.1627   -1.9543    2.5566 H   0  0  0  0  0  0  0  0  0  0  0  0
   -3.8283   -2.2625    1.4196 H   0  0  0  0  0  0  0  0  0  0  0  0
   -3.6162   -1.0934    2.7449 H   0  0  0  0  0  0  0  0  0  0  0  0
   -3.6502    2.7295   -1.8172 H   0  0  0  0  0  0  0  0  0  0  0  0
   -1.2726    2.1275   -1.6683 H   0  0  0  0  0  0  0  0  0  0  0  0
   -2.2322   -0.9272    1.1897 H   0  0  0  0  0  0  0  0  0  0  0  0
    5.8497    0.1775    0.3611 H   0  0  0  0  0  0  0  0  0  0  0  0
    2.6205    2.9802    0.3187 H   0  0  0  0  0  0  0  0  0  0  0  0
    5.5372    3.0720   -0.3211 H   0  0  0  0  0  0  0  0  0  0  0  0
    4.5572   -2.2469   -0.8315 H   0  0  0  0  0  0  0  0  0  0  0  0
   -1.6337   -3.4654   -1.6389 H   0  0  0  0  0  0  0  0  0  0  0  0
   -0.7948   -2.1155   -2.4403 H   0  0  0  0  0  0  0  0  0  0  0  0
    0.1452   -3.4076   -1.6559 H   0  0  0  0  0  0  0  0  0  0  0  0
   -5.8668    2.2580    0.1392 H   0  0  0  0  0  0  0  0  0  0  0  0
  1  2  1  0  0  0  0
  2  3  1  0  0  0  0
  3  4  2  0  0  0  0
  4  5  1  0  0  0  0
  5  6  2  0  0  0  0
  6  7  1  0  0  0  0
  7  8  2  0  0  0  0
  3  8  1  0  0  0  0
  7  9  1  0  0  0  0
  9 10  2  0  0  0  0
 10 11  1  0  0  0  0
 11 12  2  0  0  0  0
 11 13  1  0  0  0  0
 13 14  2  0  0  0  0
 14 15  1  0  0  0  0
 15 16  2  0  0  0  0
 16 17  1  0  0  0  0
 17 18  2  0  0  0  0
 13 18  1  0  0  0  0
 18 19  1  0  0  0  0
  9 19  1  0  0  0  0
 16 20  1  0  0  0  0
 14 21  1  0  0  0  0
 10 22  1  0  0  0  0
 22 23  1  0  0  0  0
  4 24  1  0  0  0  0
  1 25  1  0  0  0  0
  1 26  1  0  0  0  0
  1 27  1  0  0  0  0
  5 28  1  0  0  0  0
  6 29  1  0  0  0  0
  8 30  1  0  0  0  0
 15 31  1  0  0  0  0
 17 32  1  0  0  0  0
 20 33  1  0  0  0  0
 21 34  1  0  0  0  0
 23 35  1  0  0  0  0
 23 36  1  0  0  0  0
 23 37  1  0  0  0  0
 24 38  1  0  0  0  0
M  END
$$$$
