C7H8O7
APtclcactv06281816583D 0   0.00000     0.00000
 
 22 22  0  0  0  0  0  0  0  0999 V2000
   -1.2570    1.2855    0.1330 C   0  0  0  0  0  0  0  0  0  0  0  0
   -1.2945   -0.0304   -0.0154 C   0  0  0  0  0  0  0  0  0  0  0  0
   -0.1804   -0.7915   -0.1417 O   0  0  0  0  0  0  0  0  0  0  0  0
    1.0411   -0.1265   -0.4756 C   0  0  0  0  0  0  0  0  0  0  0  0
    1.1949    1.0913    0.4456 C   0  0  0  0  0  0  0  0  0  0  0  0
    0.0361    2.0540    0.1656 C   0  0  0  0  0  0  0  0  0  0  0  0
    0.2422    2.6936   -1.0955 O   0  0  0  0  0  0  0  0  0  0  0  0
    1.1533    0.6711    1.8108 O   0  0  0  0  0  0  0  0  0  0  0  0
    2.2022   -1.0658   -0.2738 C   0  0  0  0  0  0  0  0  0  0  0  0
    2.0176   -2.1611    0.2018 O   0  0  0  0  0  0  0  0  0  0  0  0
    3.4414   -0.6856   -0.6224 O   0  0  0  0  0  0  0  0  0  0  0  0
   -2.6081   -0.6974   -0.0439 C   0  0  0  0  0  0  0  0  0  0  0  0
   -3.6250   -0.0415    0.0674 O   0  0  0  0  0  0  0  0  0  0  0  0
   -2.6818   -2.0349   -0.1934 O   0  0  0  0  0  0  0  0  0  0  0  0
   -2.1871    1.8259    0.2294 H   0  0  0  0  0  0  0  0  0  0  0  0
    1.0090    0.2007   -1.5148 H   0  0  0  0  0  0  0  0  0  0  0  0
    2.1433    1.5886    0.2422 H   0  0  0  0  0  0  0  0  0  0  0  0
   -0.0086    2.8073    0.9522 H   0  0  0  0  0  0  0  0  0  0  0  0
   -0.4547    3.3186   -1.3381 H   0  0  0  0  0  0  0  0  0  0  0  0
    1.2451    1.3932    2.4475 H   0  0  0  0  0  0  0  0  0  0  0  0
    4.1540   -1.3223   -0.4740 H   0  0  0  0  0  0  0  0  0  0  0  0
   -3.5655   -2.4272   -0.2061 H   0  0  0  0  0  0  0  0  0  0  0  0
  1  2  2  0  0  0  0
  2  3  1  0  0  0  0
  3  4  1  0  0  0  0
  4  5  1  0  0  0  0
  5  6  1  0  0  0  0
  1  6  1  0  0  0  0
  6  7  1  0  0  0  0
  5  8  1  0  0  0  0
  4  9  1  0  0  0  0
  9 10  2  0  0  0  0
  9 11  1  0  0  0  0
  2 12  1  0  0  0  0
 12 13  2  0  0  0  0
 12 14  1  0  0  0  0
  1 15  1  0  0  0  0
  4 16  1  0  0  0  0
  5 17  1  0  0  0  0
  6 18  1  0  0  0  0
  7 19  1  0  0  0  0
  8 20  1  0  0  0  0
 11 21  1  0  0  0  0
 14 22  1  0  0  0  0
M  END
$$$$
