C15H22O
APtclcactv06281816593D 0   0.00000     0.00000
 
 38 38  0  0  0  0  0  0  0  0999 V2000
   -4.2803    2.0515   -0.4543 C   0  0  0  0  0  0  0  0  0  0  0  0
   -5.0467    0.7877   -0.1599 C   0  0  0  0  0  0  0  0  0  0  0  0
   -4.4478   -0.3747   -0.2382 C   0  0  0  0  0  0  0  0  0  0  0  0
   -2.9667   -0.4427   -0.5078 C   0  0  0  0  0  0  0  0  0  0  0  0
   -2.2871   -1.2722    0.5836 C   0  0  0  0  0  0  0  0  0  0  0  0
   -0.8060   -1.3401    0.3140 C   0  0  0  0  0  0  0  0  0  0  0  0
    0.0048   -0.4893    0.8926 C   0  0  0  0  0  0  0  0  0  0  0  0
    1.4938   -0.6154    0.6975 C   0  0  0  0  0  0  0  0  0  0  0  0
    2.0563    0.7146    0.1920 C   0  0  0  0  0  0  0  0  0  0  0  0
    3.5453    0.5885   -0.0031 C   0  0  0  0  0  0  0  0  0  0  0  0
    4.1768    0.2023   -1.1263 C   0  0  0  0  0  0  0  0  0  0  0  0
    5.4999    0.2192   -0.8964 O   0  0  0  0  0  0  0  0  0  0  0  0
    5.7300    0.6132    0.3667 C   0  0  0  0  0  0  0  0  0  0  0  0
    4.5468    0.8593    0.9574 C   0  0  0  0  0  0  0  0  0  0  0  0
   -0.2576   -2.3868   -0.6213 C   0  0  0  0  0  0  0  0  0  0  0  0
   -6.5019    0.8612    0.2247 C   0  0  0  0  0  0  0  0  0  0  0  0
   -3.8281    1.9800   -1.4435 H   0  0  0  0  0  0  0  0  0  0  0  0
   -4.9598    2.9033   -0.4261 H   0  0  0  0  0  0  0  0  0  0  0  0
   -3.4989    2.1852    0.2937 H   0  0  0  0  0  0  0  0  0  0  0  0
   -5.0155   -1.2844   -0.1096 H   0  0  0  0  0  0  0  0  0  0  0  0
   -2.7950   -0.9085   -1.4781 H   0  0  0  0  0  0  0  0  0  0  0  0
   -2.5512    0.5650   -0.5100 H   0  0  0  0  0  0  0  0  0  0  0  0
   -2.4588   -0.8063    1.5539 H   0  0  0  0  0  0  0  0  0  0  0  0
   -2.7027   -2.2799    0.5857 H   0  0  0  0  0  0  0  0  0  0  0  0
   -0.3939    0.3026    1.5094 H   0  0  0  0  0  0  0  0  0  0  0  0
    1.9642   -0.8714    1.6469 H   0  0  0  0  0  0  0  0  0  0  0  0
    1.6995   -1.3980   -0.0327 H   0  0  0  0  0  0  0  0  0  0  0  0
    1.5859    0.9707   -0.7574 H   0  0  0  0  0  0  0  0  0  0  0  0
    1.8505    1.4972    0.9222 H   0  0  0  0  0  0  0  0  0  0  0  0
    3.7006   -0.0749   -2.0551 H   0  0  0  0  0  0  0  0  0  0  0  0
    6.7006    0.7188    0.8285 H   0  0  0  0  0  0  0  0  0  0  0  0
    4.3914    1.1924    1.9729 H   0  0  0  0  0  0  0  0  0  0  0  0
   -0.1505   -1.9620   -1.6194 H   0  0  0  0  0  0  0  0  0  0  0  0
    0.7159   -2.7207   -0.2622 H   0  0  0  0  0  0  0  0  0  0  0  0
   -0.9415   -3.2347   -0.6588 H   0  0  0  0  0  0  0  0  0  0  0  0
   -7.1180    0.8091   -0.6730 H   0  0  0  0  0  0  0  0  0  0  0  0
   -6.7465    0.0271    0.8823 H   0  0  0  0  0  0  0  0  0  0  0  0
   -6.6938    1.8008    0.7429 H   0  0  0  0  0  0  0  0  0  0  0  0
  1  2  1  0  0  0  0
  2  3  2  0  0  0  0
  3  4  1  0  0  0  0
  4  5  1  0  0  0  0
  5  6  1  0  0  0  0
  6  7  2  0  0  0  0
  7  8  1  0  0  0  0
  8  9  1  0  0  0  0
  9 10  1  0  0  0  0
 10 11  2  0  0  0  0
 11 12  1  0  0  0  0
 12 13  1  0  0  0  0
 13 14  2  0  0  0  0
 10 14  1  0  0  0  0
  6 15  1  0  0  0  0
  2 16  1  0  0  0  0
  1 17  1  0  0  0  0
  1 18  1  0  0  0  0
  1 19  1  0  0  0  0
  3 20  1  0  0  0  0
  4 21  1  0  0  0  0
  4 22  1  0  0  0  0
  5 23  1  0  0  0  0
  5 24  1  0  0  0  0
  7 25  1  0  0  0  0
  8 26  1  0  0  0  0
  8 27  1  0  0  0  0
  9 28  1  0  0  0  0
  9 29  1  0  0  0  0
 11 30  1  0  0  0  0
 13 31  1  0  0  0  0
 14 32  1  0  0  0  0
 15 33  1  0  0  0  0
 15 34  1  0  0  0  0
 15 35  1  0  0  0  0
 16 36  1  0  0  0  0
 16 37  1  0  0  0  0
 16 38  1  0  0  0  0
M  END
$$$$
