C20H18N2O4
APtclcactv06281816583D 0   0.00000     0.00000
 
 44 48  0  0  0  0  0  0  0  0999 V2000
    0.2955    4.9750    0.6612 C   0  0  0  0  0  0  0  0  0  0  0  0
    0.6089    4.0538   -0.4393 N   0  0  0  0  0  0  0  0  0  0  0  0
    1.3379    2.8764    0.0511 C   0  0  0  0  0  0  0  0  0  0  0  0
    1.6458    1.9425   -1.1210 C   0  0  0  0  0  0  0  0  0  0  0  0
    2.3936    0.7347   -0.6179 C   0  0  0  0  0  0  0  0  0  0  0  0
    3.7722    0.7090   -0.6634 C   0  0  0  0  0  0  0  0  0  0  0  0
    4.4648   -0.4003   -0.2011 C   0  0  0  0  0  0  0  0  0  0  0  0
    3.7684   -1.4937    0.3116 C   0  0  0  0  0  0  0  0  0  0  0  0
    2.3864   -1.4717    0.3592 C   0  0  0  0  0  0  0  0  0  0  0  0
    1.6924   -0.3538   -0.1013 C   0  0  0  0  0  0  0  0  0  0  0  0
    0.2109   -0.3268   -0.0512 C   0  0  0  0  0  0  0  0  0  0  0  0
   -0.4101    0.8034    0.2926 N   0  0  0  0  0  0  0  0  0  0  0  0
   -1.7158    0.9009    0.3593 C   0  0  0  0  0  0  0  0  0  0  0  0
   -2.5235   -0.2084    0.0637 C   0  0  0  0  0  0  0  0  0  0  0  0
   -1.9010   -1.4301   -0.3086 C   0  0  0  0  0  0  0  0  0  0  0  0
   -0.4978   -1.4718   -0.3674 C   0  0  0  0  0  0  0  0  0  0  0  0
   -2.6912   -2.5486   -0.6100 C   0  0  0  0  0  0  0  0  0  0  0  0
   -4.0482   -2.4576   -0.5424 C   0  0  0  0  0  0  0  0  0  0  0  0
   -4.6755   -1.2640   -0.1761 C   0  0  0  0  0  0  0  0  0  0  0  0
   -3.9271   -0.1413    0.1271 C   0  0  0  0  0  0  0  0  0  0  0  0
   -4.7718    0.8794    0.4503 O   0  0  0  0  0  0  0  0  0  0  0  0
   -6.0368    0.2543    0.7370 C   0  0  0  0  0  0  0  0  0  0  0  0
   -6.0005   -0.9535   -0.0457 O   0  0  0  0  0  0  0  0  0  0  0  0
    4.6703   -2.4444    0.6947 O   0  0  0  0  0  0  0  0  0  0  0  0
    5.9330   -1.7593    0.7909 C   0  0  0  0  0  0  0  0  0  0  0  0
    5.8019   -0.6676   -0.1385 O   0  0  0  0  0  0  0  0  0  0  0  0
   -0.2441    5.8377    0.2704 H   0  0  0  0  0  0  0  0  0  0  0  0
   -0.3229    4.4632    1.3986 H   0  0  0  0  0  0  0  0  0  0  0  0
    1.2210    5.3077    1.1312 H   0  0  0  0  0  0  0  0  0  0  0  0
   -0.2282    3.7812   -0.9322 H   0  0  0  0  0  0  0  0  0  0  0  0
    2.2706    3.1946    0.5169 H   0  0  0  0  0  0  0  0  0  0  0  0
    0.7267    2.3501    0.7843 H   0  0  0  0  0  0  0  0  0  0  0  0
    0.7131    1.6243   -1.5868 H   0  0  0  0  0  0  0  0  0  0  0  0
    2.2570    2.4689   -1.8541 H   0  0  0  0  0  0  0  0  0  0  0  0
    4.3137    1.5548   -1.0605 H   0  0  0  0  0  0  0  0  0  0  0  0
    1.8455   -2.3182    0.7558 H   0  0  0  0  0  0  0  0  0  0  0  0
   -2.1716    1.8380    0.6430 H   0  0  0  0  0  0  0  0  0  0  0  0
    0.0163   -2.3802   -0.6447 H   0  0  0  0  0  0  0  0  0  0  0  0
   -2.2247   -3.4800   -0.8953 H   0  0  0  0  0  0  0  0  0  0  0  0
   -4.6503   -3.3232   -0.7765 H   0  0  0  0  0  0  0  0  0  0  0  0
   -6.1178    0.0213    1.7988 H   0  0  0  0  0  0  0  0  0  0  0  0
   -6.8611    0.8928    0.4192 H   0  0  0  0  0  0  0  0  0  0  0  0
    6.0892   -1.3844    1.8024 H   0  0  0  0  0  0  0  0  0  0  0  0
    6.7496   -2.4180    0.4952 H   0  0  0  0  0  0  0  0  0  0  0  0
  1  2  1  0  0  0  0
  2  3  1  0  0  0  0
  3  4  1  0  0  0  0
  4  5  1  0  0  0  0
  5  6  2  0  0  0  0
  6  7  1  0  0  0  0
  7  8  2  0  0  0  0
  8  9  1  0  0  0  0
  9 10  2  0  0  0  0
  5 10  1  0  0  0  0
 10 11  1  0  0  0  0
 11 12  2  0  0  0  0
 12 13  1  0  0  0  0
 13 14  2  0  0  0  0
 14 15  1  0  0  0  0
 15 16  2  0  0  0  0
 11 16  1  0  0  0  0
 15 17  1  0  0  0  0
 17 18  2  0  0  0  0
 18 19  1  0  0  0  0
 19 20  2  0  0  0  0
 14 20  1  0  0  0  0
 20 21  1  0  0  0  0
 21 22  1  0  0  0  0
 22 23  1  0  0  0  0
 19 23  1  0  0  0  0
  8 24  1  0  0  0  0
 24 25  1  0  0  0  0
 25 26  1  0  0  0  0
  7 26  1  0  0  0  0
  1 27  1  0  0  0  0
  1 28  1  0  0  0  0
  1 29  1  0  0  0  0
  2 30  1  0  0  0  0
  3 31  1  0  0  0  0
  3 32  1  0  0  0  0
  4 33  1  0  0  0  0
  4 34  1  0  0  0  0
  6 35  1  0  0  0  0
  9 36  1  0  0  0  0
 13 37  1  0  0  0  0
 16 38  1  0  0  0  0
 17 39  1  0  0  0  0
 18 40  1  0  0  0  0
 22 41  1  0  0  0  0
 22 42  1  0  0  0  0
 25 43  1  0  0  0  0
 25 44  1  0  0  0  0
M  END
$$$$
