C22H18O8
APtclcactv06281816583D 0   0.00000     0.00000
 
 48 52  0  0  0  0  0  0  0  0999 V2000
    3.4662    1.1605    3.0411 C   0  0  0  0  0  0  0  0  0  0  0  0
    3.9276    0.1994    2.0896 O   0  0  0  0  0  0  0  0  0  0  0  0
    3.0712   -0.1388    1.0887 C   0  0  0  0  0  0  0  0  0  0  0  0
    1.8174    0.4420    1.0262 C   0  0  0  0  0  0  0  0  0  0  0  0
    0.9388    0.0947   -0.0020 C   0  0  0  0  0  0  0  0  0  0  0  0
    1.3286   -0.8386   -0.9647 C   0  0  0  0  0  0  0  0  0  0  0  0
    2.5835   -1.4165   -0.8977 C   0  0  0  0  0  0  0  0  0  0  0  0
    3.4592   -1.0647    0.1250 C   0  0  0  0  0  0  0  0  0  0  0  0
    4.6926   -1.6345    0.1886 O   0  0  0  0  0  0  0  0  0  0  0  0
    5.7507   -0.9703   -0.5052 C   0  0  0  0  0  0  0  0  0  0  0  0
    2.9636   -2.3259   -1.8349 O   0  0  0  0  0  0  0  0  0  0  0  0
    2.0167   -2.6365   -2.8590 C   0  0  0  0  0  0  0  0  0  0  0  0
   -0.4016    0.7134   -0.0708 C   0  0  0  0  0  0  0  0  0  0  0  0
   -0.5343    2.0876   -0.3019 C   0  0  0  0  0  0  0  0  0  0  0  0
   -1.8139    2.6712   -0.3657 C   0  0  0  0  0  0  0  0  0  0  0  0
   -2.9377    1.9231   -0.2073 C   0  0  0  0  0  0  0  0  0  0  0  0
   -2.8385    0.5328    0.0266 C   0  0  0  0  0  0  0  0  0  0  0  0
   -3.9882   -0.2536    0.1897 C   0  0  0  0  0  0  0  0  0  0  0  0
   -3.8689   -1.5962    0.4156 C   0  0  0  0  0  0  0  0  0  0  0  0
   -2.6032   -2.2002    0.4873 C   0  0  0  0  0  0  0  0  0  0  0  0
   -1.4676   -1.4570    0.3316 C   0  0  0  0  0  0  0  0  0  0  0  0
   -1.5623   -0.0784    0.0903 C   0  0  0  0  0  0  0  0  0  0  0  0
   -2.7748   -3.5352    0.7198 O   0  0  0  0  0  0  0  0  0  0  0  0
   -4.1453   -3.8124    0.3785 C   0  0  0  0  0  0  0  0  0  0  0  0
   -4.8180   -2.5600    0.6033 O   0  0  0  0  0  0  0  0  0  0  0  0
   -4.1595    2.5135   -0.2734 O   0  0  0  0  0  0  0  0  0  0  0  0
   -1.5910    4.1424   -0.6223 C   0  0  0  0  0  0  0  0  0  0  0  0
   -0.1520    4.3325   -0.6954 O   0  0  0  0  0  0  0  0  0  0  0  0
    0.4598    3.1506   -0.5112 C   0  0  0  0  0  0  0  0  0  0  0  0
    1.6636    2.9839   -0.5163 O   0  0  0  0  0  0  0  0  0  0  0  0
    3.2303    2.0937    2.5297 H   0  0  0  0  0  0  0  0  0  0  0  0
    2.5722    0.7814    3.5362 H   0  0  0  0  0  0  0  0  0  0  0  0
    4.2442    1.3395    3.7832 H   0  0  0  0  0  0  0  0  0  0  0  0
    1.5182    1.1633    1.7723 H   0  0  0  0  0  0  0  0  0  0  0  0
    0.6507   -1.1092   -1.7608 H   0  0  0  0  0  0  0  0  0  0  0  0
    5.8720    0.0363   -0.1050 H   0  0  0  0  0  0  0  0  0  0  0  0
    6.6779   -1.5279   -0.3734 H   0  0  0  0  0  0  0  0  0  0  0  0
    5.5092   -0.9126   -1.5666 H   0  0  0  0  0  0  0  0  0  0  0  0
    1.1122   -3.0430   -2.4064 H   0  0  0  0  0  0  0  0  0  0  0  0
    1.7703   -1.7307   -3.4129 H   0  0  0  0  0  0  0  0  0  0  0  0
    2.4452   -3.3729   -3.5389 H   0  0  0  0  0  0  0  0  0  0  0  0
   -4.9664    0.2011    0.1373 H   0  0  0  0  0  0  0  0  0  0  0  0
   -0.4989   -1.9309    0.3890 H   0  0  0  0  0  0  0  0  0  0  0  0
   -4.2267   -4.1078   -0.6675 H   0  0  0  0  0  0  0  0  0  0  0  0
   -4.5521   -4.5871    1.0285 H   0  0  0  0  0  0  0  0  0  0  0  0
   -4.5375    2.5365   -1.1632 H   0  0  0  0  0  0  0  0  0  0  0  0
   -2.0550    4.4322   -1.5650 H   0  0  0  0  0  0  0  0  0  0  0  0
   -2.0051    4.7317    0.1958 H   0  0  0  0  0  0  0  0  0  0  0  0
  1  2  1  0  0  0  0
  2  3  1  0  0  0  0
  3  4  2  0  0  0  0
  4  5  1  0  0  0  0
  5  6  2  0  0  0  0
  6  7  1  0  0  0  0
  7  8  2  0  0  0  0
  3  8  1  0  0  0  0
  8  9  1  0  0  0  0
  9 10  1  0  0  0  0
  7 11  1  0  0  0  0
 11 12  1  0  0  0  0
  5 13  1  0  0  0  0
 13 14  2  0  0  0  0
 14 15  1  0  0  0  0
 15 16  2  0  0  0  0
 16 17  1  0  0  0  0
 17 18  2  0  0  0  0
 18 19  1  0  0  0  0
 19 20  2  0  0  0  0
 20 21  1  0  0  0  0
 21 22  2  0  0  0  0
 17 22  1  0  0  0  0
 13 22  1  0  0  0  0
 20 23  1  0  0  0  0
 23 24  1  0  0  0  0
 24 25  1  0  0  0  0
 19 25  1  0  0  0  0
 16 26  1  0  0  0  0
 15 27  1  0  0  0  0
 27 28  1  0  0  0  0
 28 29  1  0  0  0  0
 14 29  1  0  0  0  0
 29 30  2  0  0  0  0
  1 31  1  0  0  0  0
  1 32  1  0  0  0  0
  1 33  1  0  0  0  0
  4 34  1  0  0  0  0
  6 35  1  0  0  0  0
 10 36  1  0  0  0  0
 10 37  1  0  0  0  0
 10 38  1  0  0  0  0
 12 39  1  0  0  0  0
 12 40  1  0  0  0  0
 12 41  1  0  0  0  0
 18 42  1  0  0  0  0
 21 43  1  0  0  0  0
 24 44  1  0  0  0  0
 24 45  1  0  0  0  0
 26 46  1  0  0  0  0
 27 47  1  0  0  0  0
 27 48  1  0  0  0  0
M  END
$$$$
