C21H24O8
APtclcactv06281816593D 0   0.00000     0.00000
 
 53 55  0  0  0  0  0  0  0  0999 V2000
    8.8747    2.5128   -0.4738 C   0  0  0  0  0  0  0  0  0  0  0  0
    8.7270    1.0919   -0.4387 O   0  0  0  0  0  0  0  0  0  0  0  0
    7.4685    0.6064   -0.2778 C   0  0  0  0  0  0  0  0  0  0  0  0
    7.2559   -0.7656   -0.2352 C   0  0  0  0  0  0  0  0  0  0  0  0
    5.9812   -1.2627   -0.0717 C   0  0  0  0  0  0  0  0  0  0  0  0
    4.9011   -0.3839    0.0513 C   0  0  0  0  0  0  0  0  0  0  0  0
    5.1201    0.9960    0.0079 C   0  0  0  0  0  0  0  0  0  0  0  0
    6.3991    1.4837   -0.1506 C   0  0  0  0  0  0  0  0  0  0  0  0
    3.5361   -0.9105    0.2258 C   0  0  0  0  0  0  0  0  0  0  0  0
    2.5002   -0.0644    0.3438 C   0  0  0  0  0  0  0  0  0  0  0  0
    1.1347   -0.5911    0.5184 C   0  0  0  0  0  0  0  0  0  0  0  0
    0.9158   -1.9698    0.5614 C   0  0  0  0  0  0  0  0  0  0  0  0
   -0.3690   -2.4598    0.7260 C   0  0  0  0  0  0  0  0  0  0  0  0
   -1.4378   -1.5835    0.8478 C   0  0  0  0  0  0  0  0  0  0  0  0
   -1.2254   -0.2126    0.8057 C   0  0  0  0  0  0  0  0  0  0  0  0
    0.0559    0.2871    0.6472 C   0  0  0  0  0  0  0  0  0  0  0  0
   -2.2764    0.6407    0.9250 O   0  0  0  0  0  0  0  0  0  0  0  0
   -3.5703    0.0571    1.0909 C   0  0  0  0  0  0  0  0  0  0  0  0
   -4.6018    1.1624    1.3317 C   0  0  0  0  0  0  0  0  0  0  0  0
   -4.6575    2.0747    0.1024 C   0  0  0  0  0  0  0  0  0  0  0  0
   -4.9879    1.2300   -1.1320 C   0  0  0  0  0  0  0  0  0  0  0  0
   -3.9414    0.1221   -1.2776 C   0  0  0  0  0  0  0  0  0  0  0  0
   -3.9198   -0.6702   -0.0884 O   0  0  0  0  0  0  0  0  0  0  0  0
   -4.2982   -0.7627   -2.4737 C   0  0  0  0  0  0  0  0  0  0  0  0
   -3.2618   -1.7245   -2.6806 O   0  0  0  0  0  0  0  0  0  0  0  0
   -6.2832    0.6463   -0.9784 O   0  0  0  0  0  0  0  0  0  0  0  0
   -5.6698    3.0660    0.2883 O   0  0  0  0  0  0  0  0  0  0  0  0
   -5.8868    0.5769    1.5505 O   0  0  0  0  0  0  0  0  0  0  0  0
   -0.5833   -3.8012    0.7680 O   0  0  0  0  0  0  0  0  0  0  0  0
    8.2962    2.9178   -1.3042 H   0  0  0  0  0  0  0  0  0  0  0  0
    8.5139    2.9389    0.4623 H   0  0  0  0  0  0  0  0  0  0  0  0
    9.9267    2.7656   -0.6065 H   0  0  0  0  0  0  0  0  0  0  0  0
    8.0909   -1.4438   -0.3307 H   0  0  0  0  0  0  0  0  0  0  0  0
    5.8168   -2.3296   -0.0391 H   0  0  0  0  0  0  0  0  0  0  0  0
    4.2887    1.6788    0.1022 H   0  0  0  0  0  0  0  0  0  0  0  0
    6.5692    2.5497   -0.1843 H   0  0  0  0  0  0  0  0  0  0  0  0
    3.3688   -1.9769    0.2588 H   0  0  0  0  0  0  0  0  0  0  0  0
    2.6675    1.0020    0.3108 H   0  0  0  0  0  0  0  0  0  0  0  0
    1.7470   -2.6527    0.4660 H   0  0  0  0  0  0  0  0  0  0  0  0
   -2.4384   -1.9694    0.9753 H   0  0  0  0  0  0  0  0  0  0  0  0
    0.2202    1.3541    0.6149 H   0  0  0  0  0  0  0  0  0  0  0  0
   -3.5568   -0.6199    1.9451 H   0  0  0  0  0  0  0  0  0  0  0  0
   -4.3129    1.7462    2.2057 H   0  0  0  0  0  0  0  0  0  0  0  0
   -3.6912    2.5598   -0.0357 H   0  0  0  0  0  0  0  0  0  0  0  0
   -4.9751    1.8621   -2.0199 H   0  0  0  0  0  0  0  0  0  0  0  0
   -2.9594    0.5681   -1.4351 H   0  0  0  0  0  0  0  0  0  0  0  0
   -5.2382   -1.2781   -2.2769 H   0  0  0  0  0  0  0  0  0  0  0  0
   -4.4027   -0.1439   -3.3650 H   0  0  0  0  0  0  0  0  0  0  0  0
   -3.4215   -2.3209   -3.4249 H   0  0  0  0  0  0  0  0  0  0  0  0
   -6.9958    1.2918   -0.8759 H   0  0  0  0  0  0  0  0  0  0  0  0
   -5.5277    3.6338    1.0580 H   0  0  0  0  0  0  0  0  0  0  0  0
   -5.9236   -0.0178    2.3121 H   0  0  0  0  0  0  0  0  0  0  0  0
   -0.5369   -4.1793    1.6568 H   0  0  0  0  0  0  0  0  0  0  0  0
  1  2  1  0  0  0  0
  2  3  1  0  0  0  0
  3  4  2  0  0  0  0
  4  5  1  0  0  0  0
  5  6  2  0  0  0  0
  6  7  1  0  0  0  0
  7  8  2  0  0  0  0
  3  8  1  0  0  0  0
  6  9  1  0  0  0  0
  9 10  2  0  0  0  0
 10 11  1  0  0  0  0
 11 12  2  0  0  0  0
 12 13  1  0  0  0  0
 13 14  2  0  0  0  0
 14 15  1  0  0  0  0
 15 16  2  0  0  0  0
 11 16  1  0  0  0  0
 15 17  1  0  0  0  0
 17 18  1  0  0  0  0
 18 19  1  0  0  0  0
 19 20  1  0  0  0  0
 20 21  1  0  0  0  0
 21 22  1  0  0  0  0
 22 23  1  0  0  0  0
 18 23  1  0  0  0  0
 22 24  1  0  0  0  0
 24 25  1  0  0  0  0
 21 26  1  0  0  0  0
 20 27  1  0  0  0  0
 19 28  1  0  0  0  0
 13 29  1  0  0  0  0
  1 30  1  0  0  0  0
  1 31  1  0  0  0  0
  1 32  1  0  0  0  0
  4 33  1  0  0  0  0
  5 34  1  0  0  0  0
  7 35  1  0  0  0  0
  8 36  1  0  0  0  0
  9 37  1  0  0  0  0
 10 38  1  0  0  0  0
 12 39  1  0  0  0  0
 14 40  1  0  0  0  0
 16 41  1  0  0  0  0
 18 42  1  0  0  0  0
 19 43  1  0  0  0  0
 20 44  1  0  0  0  0
 21 45  1  0  0  0  0
 22 46  1  0  0  0  0
 24 47  1  0  0  0  0
 24 48  1  0  0  0  0
 25 49  1  0  0  0  0
 26 50  1  0  0  0  0
 27 51  1  0  0  0  0
 28 52  1  0  0  0  0
 29 53  1  0  0  0  0
M  END
$$$$
