C16H12O7
APtclcactv06281816593D 0   0.00000     0.00000
 
 35 37  0  0  0  0  0  0  0  0999 V2000
   -1.4721    3.3747    0.6036 C   0  0  0  0  0  0  0  0  0  0  0  0
   -1.7706    2.5736   -0.5415 O   0  0  0  0  0  0  0  0  0  0  0  0
   -2.3269    1.3519   -0.3133 C   0  0  0  0  0  0  0  0  0  0  0  0
   -3.7079    1.2175   -0.2530 C   0  0  0  0  0  0  0  0  0  0  0  0
   -4.2887   -0.0243   -0.0211 C   0  0  0  0  0  0  0  0  0  0  0  0
   -3.4942   -1.1422    0.1525 C   0  0  0  0  0  0  0  0  0  0  0  0
   -2.1010   -1.0160    0.0933 C   0  0  0  0  0  0  0  0  0  0  0  0
   -1.5135    0.2380   -0.1463 C   0  0  0  0  0  0  0  0  0  0  0  0
   -0.1685    0.3490   -0.2024 O   0  0  0  0  0  0  0  0  0  0  0  0
    0.6452   -0.7056   -0.0362 C   0  0  0  0  0  0  0  0  0  0  0  0
    0.1763   -1.9606    0.2004 C   0  0  0  0  0  0  0  0  0  0  0  0
   -1.2192   -2.1821    0.2725 C   0  0  0  0  0  0  0  0  0  0  0  0
   -1.6744   -3.2947    0.4835 O   0  0  0  0  0  0  0  0  0  0  0  0
    2.1032   -0.4959   -0.1135 C   0  0  0  0  0  0  0  0  0  0  0  0
    2.6783    0.6429    0.4573 C   0  0  0  0  0  0  0  0  0  0  0  0
    4.0445    0.8343    0.3825 C   0  0  0  0  0  0  0  0  0  0  0  0
    4.8459   -0.1069   -0.2616 C   0  0  0  0  0  0  0  0  0  0  0  0
    4.2749   -1.2379   -0.8285 C   0  0  0  0  0  0  0  0  0  0  0  0
    2.9135   -1.4382   -0.7527 C   0  0  0  0  0  0  0  0  0  0  0  0
    6.1890    0.0834   -0.3350 O   0  0  0  0  0  0  0  0  0  0  0  0
    4.6074    1.9413    0.9368 O   0  0  0  0  0  0  0  0  0  0  0  0
   -4.0614   -2.3550    0.3795 O   0  0  0  0  0  0  0  0  0  0  0  0
   -4.4985    2.3094   -0.4217 O   0  0  0  0  0  0  0  0  0  0  0  0
   -1.0344    4.3197    0.2819 H   0  0  0  0  0  0  0  0  0  0  0  0
   -2.3892    3.5696    1.1596 H   0  0  0  0  0  0  0  0  0  0  0  0
   -0.7652    2.8457    1.2428 H   0  0  0  0  0  0  0  0  0  0  0  0
   -5.3639   -0.1157    0.0239 H   0  0  0  0  0  0  0  0  0  0  0  0
    0.8646   -2.7830    0.3282 H   0  0  0  0  0  0  0  0  0  0  0  0
    2.0561    1.3717    0.9554 H   0  0  0  0  0  0  0  0  0  0  0  0
    4.8994   -1.9646   -1.3270 H   0  0  0  0  0  0  0  0  0  0  0  0
    2.4717   -2.3191   -1.1947 H   0  0  0  0  0  0  0  0  0  0  0  0
    6.6810   -0.2954    0.4063 H   0  0  0  0  0  0  0  0  0  0  0  0
    4.8728    1.8274    1.8597 H   0  0  0  0  0  0  0  0  0  0  0  0
   -4.2492   -2.8581   -0.4247 H   0  0  0  0  0  0  0  0  0  0  0  0
   -4.7506    2.4742   -1.3406 H   0  0  0  0  0  0  0  0  0  0  0  0
  1  2  1  0  0  0  0
  2  3  1  0  0  0  0
  3  4  2  0  0  0  0
  4  5  1  0  0  0  0
  5  6  2  0  0  0  0
  6  7  1  0  0  0  0
  7  8  2  0  0  0  0
  3  8  1  0  0  0  0
  8  9  1  0  0  0  0
  9 10  1  0  0  0  0
 10 11  2  0  0  0  0
 11 12  1  0  0  0  0
  7 12  1  0  0  0  0
 12 13  2  0  0  0  0
 10 14  1  0  0  0  0
 14 15  2  0  0  0  0
 15 16  1  0  0  0  0
 16 17  2  0  0  0  0
 17 18  1  0  0  0  0
 18 19  2  0  0  0  0
 14 19  1  0  0  0  0
 17 20  1  0  0  0  0
 16 21  1  0  0  0  0
  6 22  1  0  0  0  0
  4 23  1  0  0  0  0
  1 24  1  0  0  0  0
  1 25  1  0  0  0  0
  1 26  1  0  0  0  0
  5 27  1  0  0  0  0
 11 28  1  0  0  0  0
 15 29  1  0  0  0  0
 18 30  1  0  0  0  0
 19 31  1  0  0  0  0
 20 32  1  0  0  0  0
 21 33  1  0  0  0  0
 22 34  1  0  0  0  0
 23 35  1  0  0  0  0
M  END
$$$$
