C16H12O5
APtclcactv06281816593D 0   0.00000     0.00000
 
 33 35  0  0  0  0  0  0  0  0999 V2000
    6.1794    0.9820    0.7139 C   0  0  0  0  0  0  0  0  0  0  0  0
    4.8056    1.3650    0.8025 O   0  0  0  0  0  0  0  0  0  0  0  0
    3.8915    0.5141    0.2645 C   0  0  0  0  0  0  0  0  0  0  0  0
    2.5432    0.8252    0.3165 C   0  0  0  0  0  0  0  0  0  0  0  0
    1.6081   -0.0472   -0.2354 C   0  0  0  0  0  0  0  0  0  0  0  0
    2.0370   -1.2328   -0.8389 C   0  0  0  0  0  0  0  0  0  0  0  0
    3.3880   -1.5338   -0.8852 C   0  0  0  0  0  0  0  0  0  0  0  0
    4.3120   -0.6620   -0.3407 C   0  0  0  0  0  0  0  0  0  0  0  0
    1.1295   -2.0890   -1.3792 O   0  0  0  0  0  0  0  0  0  0  0  0
    0.1626    0.2803   -0.1824 C   0  0  0  0  0  0  0  0  0  0  0  0
   -0.3703    1.2253   -1.0001 C   0  0  0  0  0  0  0  0  0  0  0  0
   -1.6589    1.5660   -0.9763 O   0  0  0  0  0  0  0  0  0  0  0  0
   -2.5772    0.7903   -0.3704 C   0  0  0  0  0  0  0  0  0  0  0  0
   -2.1824   -0.2193    0.5250 C   0  0  0  0  0  0  0  0  0  0  0  0
   -0.7395   -0.4151    0.7559 C   0  0  0  0  0  0  0  0  0  0  0  0
   -0.3169   -1.1014    1.6704 O   0  0  0  0  0  0  0  0  0  0  0  0
   -3.1343   -1.0144    1.1627 C   0  0  0  0  0  0  0  0  0  0  0  0
   -4.4617   -0.8152    0.9094 C   0  0  0  0  0  0  0  0  0  0  0  0
   -4.8652    0.1774    0.0184 C   0  0  0  0  0  0  0  0  0  0  0  0
   -3.9318    0.9765   -0.6186 C   0  0  0  0  0  0  0  0  0  0  0  0
   -6.1873    0.3624   -0.2274 O   0  0  0  0  0  0  0  0  0  0  0  0
    6.8006    1.7467    1.1802 H   0  0  0  0  0  0  0  0  0  0  0  0
    6.3256    0.0320    1.2280 H   0  0  0  0  0  0  0  0  0  0  0  0
    6.4600    0.8750   -0.3339 H   0  0  0  0  0  0  0  0  0  0  0  0
    2.2172    1.7424    0.7843 H   0  0  0  0  0  0  0  0  0  0  0  0
    3.7205   -2.4498   -1.3510 H   0  0  0  0  0  0  0  0  0  0  0  0
    5.3647   -0.9006   -0.3793 H   0  0  0  0  0  0  0  0  0  0  0  0
    0.9334   -1.9181   -2.3106 H   0  0  0  0  0  0  0  0  0  0  0  0
    0.2808    1.7243   -1.7025 H   0  0  0  0  0  0  0  0  0  0  0  0
   -2.8234   -1.7843    1.8533 H   0  0  0  0  0  0  0  0  0  0  0  0
   -5.2013   -1.4296    1.4012 H   0  0  0  0  0  0  0  0  0  0  0  0
   -4.2554    1.7433   -1.3068 H   0  0  0  0  0  0  0  0  0  0  0  0
   -6.6129    0.9958    0.3666 H   0  0  0  0  0  0  0  0  0  0  0  0
  1  2  1  0  0  0  0
  2  3  1  0  0  0  0
  3  4  2  0  0  0  0
  4  5  1  0  0  0  0
  5  6  2  0  0  0  0
  6  7  1  0  0  0  0
  7  8  2  0  0  0  0
  3  8  1  0  0  0  0
  6  9  1  0  0  0  0
  5 10  1  0  0  0  0
 10 11  2  0  0  0  0
 11 12  1  0  0  0  0
 12 13  1  0  0  0  0
 13 14  2  0  0  0  0
 14 15  1  0  0  0  0
 10 15  1  0  0  0  0
 15 16  2  0  0  0  0
 14 17  1  0  0  0  0
 17 18  2  0  0  0  0
 18 19  1  0  0  0  0
 19 20  2  0  0  0  0
 13 20  1  0  0  0  0
 19 21  1  0  0  0  0
  1 22  1  0  0  0  0
  1 23  1  0  0  0  0
  1 24  1  0  0  0  0
  4 25  1  0  0  0  0
  7 26  1  0  0  0  0
  8 27  1  0  0  0  0
  9 28  1  0  0  0  0
 11 29  1  0  0  0  0
 17 30  1  0  0  0  0
 18 31  1  0  0  0  0
 20 32  1  0  0  0  0
 21 33  1  0  0  0  0
M  END
$$$$
