C15H20
APtclcactv06281816583D 0   0.00000     0.00000
 
 35 36  0  0  0  0  0  0  0  0999 V2000
   -2.5166    3.0839   -0.0801 C   0  0  0  0  0  0  0  0  0  0  0  0
   -1.9216    1.7056    0.0512 C   0  0  0  0  0  0  0  0  0  0  0  0
   -0.6302    1.5300   -0.1801 C   0  0  0  0  0  0  0  0  0  0  0  0
   -0.0447    0.1771   -0.0861 C   0  0  0  0  0  0  0  0  0  0  0  0
    1.3324   -0.0056   -0.0021 C   0  0  0  0  0  0  0  0  0  0  0  0
    1.8488   -1.2830    0.0932 C   0  0  0  0  0  0  0  0  0  0  0  0
    1.0016   -2.3765    0.0952 C   0  0  0  0  0  0  0  0  0  0  0  0
   -0.3676   -2.2013   -0.0104 C   0  0  0  0  0  0  0  0  0  0  0  0
   -0.8936   -0.9318   -0.1122 C   0  0  0  0  0  0  0  0  0  0  0  0
   -2.3766   -0.7252   -0.2746 C   0  0  0  0  0  0  0  0  0  0  0  0
   -2.8041    0.5545    0.4485 C   0  0  0  0  0  0  0  0  0  0  0  0
   -1.2826   -3.3987   -0.0140 C   0  0  0  0  0  0  0  0  0  0  0  0
    2.2561    1.1851   -0.0157 C   0  0  0  0  0  0  0  0  0  0  0  0
    3.0701    1.2138    1.2795 C   0  0  0  0  0  0  0  0  0  0  0  0
    3.2044    1.0813   -1.2118 C   0  0  0  0  0  0  0  0  0  0  0  0
   -1.7378    3.7899   -0.3683 H   0  0  0  0  0  0  0  0  0  0  0  0
   -3.2963    3.0720   -0.8417 H   0  0  0  0  0  0  0  0  0  0  0  0
   -2.9461    3.3866    0.8749 H   0  0  0  0  0  0  0  0  0  0  0  0
   -0.0065    2.3734   -0.4371 H   0  0  0  0  0  0  0  0  0  0  0  0
    2.9164   -1.4284    0.1661 H   0  0  0  0  0  0  0  0  0  0  0  0
    1.4107   -3.3725    0.1792 H   0  0  0  0  0  0  0  0  0  0  0  0
   -2.6167   -0.6431   -1.3347 H   0  0  0  0  0  0  0  0  0  0  0  0
   -2.9093   -1.5756    0.1510 H   0  0  0  0  0  0  0  0  0  0  0  0
   -2.7379    0.3975    1.5251 H   0  0  0  0  0  0  0  0  0  0  0  0
   -3.8350    0.7892    0.1836 H   0  0  0  0  0  0  0  0  0  0  0  0
   -1.5754   -3.6352    1.0090 H   0  0  0  0  0  0  0  0  0  0  0  0
   -2.1714   -3.1751   -0.6039 H   0  0  0  0  0  0  0  0  0  0  0  0
   -0.7626   -4.2520   -0.4495 H   0  0  0  0  0  0  0  0  0  0  0  0
    1.6687    2.0997   -0.0960 H   0  0  0  0  0  0  0  0  0  0  0  0
    3.7382    2.0750    1.2697 H   0  0  0  0  0  0  0  0  0  0  0  0
    2.3945    1.2878    2.1317 H   0  0  0  0  0  0  0  0  0  0  0  0
    3.6575    0.2992    1.3599 H   0  0  0  0  0  0  0  0  0  0  0  0
    2.6245    1.0608   -2.1345 H   0  0  0  0  0  0  0  0  0  0  0  0
    3.8725    1.9424   -1.2216 H   0  0  0  0  0  0  0  0  0  0  0  0
    3.7918    0.1666   -1.1315 H   0  0  0  0  0  0  0  0  0  0  0  0
  1  2  1  0  0  0  0
  2  3  2  0  0  0  0
  3  4  1  0  0  0  0
  4  5  2  0  0  0  0
  5  6  1  0  0  0  0
  6  7  2  0  0  0  0
  7  8  1  0  0  0  0
  8  9  2  0  0  0  0
  4  9  1  0  0  0  0
  9 10  1  0  0  0  0
 10 11  1  0  0  0  0
  2 11  1  0  0  0  0
  8 12  1  0  0  0  0
  5 13  1  0  0  0  0
 13 14  1  0  0  0  0
 13 15  1  0  0  0  0
  1 16  1  0  0  0  0
  1 17  1  0  0  0  0
  1 18  1  0  0  0  0
  3 19  1  0  0  0  0
  6 20  1  0  0  0  0
  7 21  1  0  0  0  0
 10 22  1  0  0  0  0
 10 23  1  0  0  0  0
 11 24  1  0  0  0  0
 11 25  1  0  0  0  0
 12 26  1  0  0  0  0
 12 27  1  0  0  0  0
 12 28  1  0  0  0  0
 13 29  1  0  0  0  0
 14 30  1  0  0  0  0
 14 31  1  0  0  0  0
 14 32  1  0  0  0  0
 15 33  1  0  0  0  0
 15 34  1  0  0  0  0
 15 35  1  0  0  0  0
M  END
$$$$
