C31H52O4
APtclcactv06281816593D 0   0.00000     0.00000
 
 87 87  0  0  0  0  0  0  0  0999 V2000
   20.0411   -0.7961   -0.0029 C   0  0  0  0  0  0  0  0  0  0  0  0
   18.8210    0.1271   -0.0057 C   0  0  0  0  0  0  0  0  0  0  0  0
   17.5439   -0.7154   -0.0020 C   0  0  0  0  0  0  0  0  0  0  0  0
   16.3239    0.2078   -0.0048 C   0  0  0  0  0  0  0  0  0  0  0  0
   15.0468   -0.6347   -0.0011 C   0  0  0  0  0  0  0  0  0  0  0  0
   13.8267    0.2885   -0.0039 C   0  0  0  0  0  0  0  0  0  0  0  0
   12.5496   -0.5541   -0.0002 C   0  0  0  0  0  0  0  0  0  0  0  0
   11.3295    0.3692   -0.0030 C   0  0  0  0  0  0  0  0  0  0  0  0
   10.0524   -0.4734    0.0007 C   0  0  0  0  0  0  0  0  0  0  0  0
    8.8323    0.4498   -0.0020 C   0  0  0  0  0  0  0  0  0  0  0  0
    7.5552   -0.3927    0.0016 C   0  0  0  0  0  0  0  0  0  0  0  0
    6.3352    0.5305   -0.0011 C   0  0  0  0  0  0  0  0  0  0  0  0
    5.0580   -0.3120    0.0026 C   0  0  0  0  0  0  0  0  0  0  0  0
    3.8380    0.6112   -0.0002 C   0  0  0  0  0  0  0  0  0  0  0  0
    2.5609   -0.2313    0.0035 C   0  0  0  0  0  0  0  0  0  0  0  0
    1.3408    0.6919    0.0007 C   0  0  0  0  0  0  0  0  0  0  0  0
    0.0637   -0.1507    0.0044 C   0  0  0  0  0  0  0  0  0  0  0  0
   -1.1564    0.7726    0.0016 C   0  0  0  0  0  0  0  0  0  0  0  0
   -2.4335   -0.0700    0.0053 C   0  0  0  0  0  0  0  0  0  0  0  0
   -3.6535    0.8532    0.0025 C   0  0  0  0  0  0  0  0  0  0  0  0
   -4.9307    0.0107    0.0062 C   0  0  0  0  0  0  0  0  0  0  0  0
   -6.1507    0.9339    0.0034 C   0  0  0  0  0  0  0  0  0  0  0  0
   -7.3435    0.1470    0.0069 O   0  0  0  0  0  0  0  0  0  0  0  0
   -8.5169    0.8132    0.0050 C   0  0  0  0  0  0  0  0  0  0  0  0
   -8.5257    2.0296    0.0006 O   0  0  0  0  0  0  0  0  0  0  0  0
   -9.7396    0.0955    0.0082 C   0  0  0  0  0  0  0  0  0  0  0  0
  -10.9144    0.7625    0.0063 C   0  0  0  0  0  0  0  0  0  0  0  0
  -12.1818    0.0185    0.0097 C   0  0  0  0  0  0  0  0  0  0  0  0
  -13.4003    0.7076    0.0077 C   0  0  0  0  0  0  0  0  0  0  0  0
  -14.5877    0.0030    0.0104 C   0  0  0  0  0  0  0  0  0  0  0  0
  -14.5716   -1.3914    0.0154 C   0  0  0  0  0  0  0  0  0  0  0  0
  -13.3633   -2.0759    0.0178 C   0  0  0  0  0  0  0  0  0  0  0  0
  -12.1740   -1.3812    0.0089 C   0  0  0  0  0  0  0  0  0  0  0  0
  -15.7411   -2.0820    0.0185 O   0  0  0  0  0  0  0  0  0  0  0  0
  -15.7734    0.6691    0.0085 O   0  0  0  0  0  0  0  0  0  0  0  0
   20.9509   -0.1959   -0.0055 H   0  0  0  0  0  0  0  0  0  0  0  0
   20.0212   -1.4218    0.8894 H   0  0  0  0  0  0  0  0  0  0  0  0
   20.0204   -1.4283   -0.8906 H   0  0  0  0  0  0  0  0  0  0  0  0
   18.8418    0.7593    0.8820 H   0  0  0  0  0  0  0  0  0  0  0  0
   18.8409    0.7529   -0.8980 H   0  0  0  0  0  0  0  0  0  0  0  0
   17.5232   -1.3476   -0.8897 H   0  0  0  0  0  0  0  0  0  0  0  0
   17.5240   -1.3412    0.8903 H   0  0  0  0  0  0  0  0  0  0  0  0
   16.3446    0.8400    0.8829 H   0  0  0  0  0  0  0  0  0  0  0  0
   16.3438    0.8335   -0.8970 H   0  0  0  0  0  0  0  0  0  0  0  0
   15.0260   -1.2670   -0.8888 H   0  0  0  0  0  0  0  0  0  0  0  0
   15.0269   -1.2605    0.8912 H   0  0  0  0  0  0  0  0  0  0  0  0
   13.8474    0.9207    0.8838 H   0  0  0  0  0  0  0  0  0  0  0  0
   13.8466    0.9142   -0.8961 H   0  0  0  0  0  0  0  0  0  0  0  0
   12.5288   -1.1863   -0.8879 H   0  0  0  0  0  0  0  0  0  0  0  0
   12.5297   -1.1798    0.8921 H   0  0  0  0  0  0  0  0  0  0  0  0
   11.3503    1.0014    0.8847 H   0  0  0  0  0  0  0  0  0  0  0  0
   11.3494    0.9949   -0.8952 H   0  0  0  0  0  0  0  0  0  0  0  0
   10.0317   -1.1056   -0.8869 H   0  0  0  0  0  0  0  0  0  0  0  0
   10.0325   -1.0991    0.8930 H   0  0  0  0  0  0  0  0  0  0  0  0
    8.8531    1.0821    0.8856 H   0  0  0  0  0  0  0  0  0  0  0  0
    8.8522    1.0756   -0.8943 H   0  0  0  0  0  0  0  0  0  0  0  0
    7.5345   -1.0249   -0.8860 H   0  0  0  0  0  0  0  0  0  0  0  0
    7.5353   -1.0184    0.8939 H   0  0  0  0  0  0  0  0  0  0  0  0
    6.3559    1.1627    0.8865 H   0  0  0  0  0  0  0  0  0  0  0  0
    6.3551    1.1563   -0.8934 H   0  0  0  0  0  0  0  0  0  0  0  0
    5.0373   -0.9442   -0.8851 H   0  0  0  0  0  0  0  0  0  0  0  0
    5.0382   -0.9378    0.8948 H   0  0  0  0  0  0  0  0  0  0  0  0
    3.8587    1.2434    0.8875 H   0  0  0  0  0  0  0  0  0  0  0  0
    3.8579    1.2369   -0.8925 H   0  0  0  0  0  0  0  0  0  0  0  0
    2.5401   -0.8636   -0.8842 H   0  0  0  0  0  0  0  0  0  0  0  0
    2.5410   -0.8571    0.8957 H   0  0  0  0  0  0  0  0  0  0  0  0
    1.3616    1.3241    0.8884 H   0  0  0  0  0  0  0  0  0  0  0  0
    1.3607    1.3176   -0.8916 H   0  0  0  0  0  0  0  0  0  0  0  0
    0.0429   -0.7829   -0.8833 H   0  0  0  0  0  0  0  0  0  0  0  0
    0.0438   -0.7764    0.8967 H   0  0  0  0  0  0  0  0  0  0  0  0
   -1.1356    1.4048    0.8893 H   0  0  0  0  0  0  0  0  0  0  0  0
   -1.1365    1.3983   -0.8907 H   0  0  0  0  0  0  0  0  0  0  0  0
   -2.4542   -0.7022   -0.8824 H   0  0  0  0  0  0  0  0  0  0  0  0
   -2.4534   -0.6957    0.8976 H   0  0  0  0  0  0  0  0  0  0  0  0
   -3.6328    1.4855    0.8902 H   0  0  0  0  0  0  0  0  0  0  0  0
   -3.6337    1.4790   -0.8898 H   0  0  0  0  0  0  0  0  0  0  0  0
   -4.9514   -0.6215   -0.8815 H   0  0  0  0  0  0  0  0  0  0  0  0
   -4.9505   -0.6150    0.8985 H   0  0  0  0  0  0  0  0  0  0  0  0
   -6.1300    1.5661    0.8911 H   0  0  0  0  0  0  0  0  0  0  0  0
   -6.1308    1.5597   -0.8889 H   0  0  0  0  0  0  0  0  0  0  0  0
   -9.7318   -0.9845    0.0121 H   0  0  0  0  0  0  0  0  0  0  0  0
  -10.9222    1.8425    0.0024 H   0  0  0  0  0  0  0  0  0  0  0  0
  -13.4115    1.7876    0.0045 H   0  0  0  0  0  0  0  0  0  0  0  0
  -13.3562   -3.1559    0.0221 H   0  0  0  0  0  0  0  0  0  0  0  0
  -11.2359   -1.9162    0.0108 H   0  0  0  0  0  0  0  0  0  0  0  0
  -16.0801   -2.2852   -0.8640 H   0  0  0  0  0  0  0  0  0  0  0  0
  -16.1166    0.8588   -0.8754 H   0  0  0  0  0  0  0  0  0  0  0  0
  1  2  1  0  0  0  0
  2  3  1  0  0  0  0
  3  4  1  0  0  0  0
  4  5  1  0  0  0  0
  5  6  1  0  0  0  0
  6  7  1  0  0  0  0
  7  8  1  0  0  0  0
  8  9  1  0  0  0  0
  9 10  1  0  0  0  0
 10 11  1  0  0  0  0
 11 12  1  0  0  0  0
 12 13  1  0  0  0  0
 13 14  1  0  0  0  0
 14 15  1  0  0  0  0
 15 16  1  0  0  0  0
 16 17  1  0  0  0  0
 17 18  1  0  0  0  0
 18 19  1  0  0  0  0
 19 20  1  0  0  0  0
 20 21  1  0  0  0  0
 21 22  1  0  0  0  0
 22 23  1  0  0  0  0
 23 24  1  0  0  0  0
 24 25  2  0  0  0  0
 24 26  1  0  0  0  0
 26 27  2  0  0  0  0
 27 28  1  0  0  0  0
 28 29  2  0  0  0  0
 29 30  1  0  0  0  0
 30 31  2  0  0  0  0
 31 32  1  0  0  0  0
 32 33  2  0  0  0  0
 28 33  1  0  0  0  0
 31 34  1  0  0  0  0
 30 35  1  0  0  0  0
  1 36  1  0  0  0  0
  1 37  1  0  0  0  0
  1 38  1  0  0  0  0
  2 39  1  0  0  0  0
  2 40  1  0  0  0  0
  3 41  1  0  0  0  0
  3 42  1  0  0  0  0
  4 43  1  0  0  0  0
  4 44  1  0  0  0  0
  5 45  1  0  0  0  0
  5 46  1  0  0  0  0
  6 47  1  0  0  0  0
  6 48  1  0  0  0  0
  7 49  1  0  0  0  0
  7 50  1  0  0  0  0
  8 51  1  0  0  0  0
  8 52  1  0  0  0  0
  9 53  1  0  0  0  0
  9 54  1  0  0  0  0
 10 55  1  0  0  0  0
 10 56  1  0  0  0  0
 11 57  1  0  0  0  0
 11 58  1  0  0  0  0
 12 59  1  0  0  0  0
 12 60  1  0  0  0  0
 13 61  1  0  0  0  0
 13 62  1  0  0  0  0
 14 63  1  0  0  0  0
 14 64  1  0  0  0  0
 15 65  1  0  0  0  0
 15 66  1  0  0  0  0
 16 67  1  0  0  0  0
 16 68  1  0  0  0  0
 17 69  1  0  0  0  0
 17 70  1  0  0  0  0
 18 71  1  0  0  0  0
 18 72  1  0  0  0  0
 19 73  1  0  0  0  0
 19 74  1  0  0  0  0
 20 75  1  0  0  0  0
 20 76  1  0  0  0  0
 21 77  1  0  0  0  0
 21 78  1  0  0  0  0
 22 79  1  0  0  0  0
 22 80  1  0  0  0  0
 26 81  1  0  0  0  0
 27 82  1  0  0  0  0
 29 83  1  0  0  0  0
 32 84  1  0  0  0  0
 33 85  1  0  0  0  0
 34 86  1  0  0  0  0
 35 87  1  0  0  0  0
M  END
$$$$
