C19H12O6
APtclcactv06281816593D 0   0.00000     0.00000
 
 37 42  0  0  0  0  0  0  0  0999 V2000
    0.7501    2.9071   -0.2201 C   0  0  0  0  0  0  0  0  0  0  0  0
   -0.1704    1.7326    0.1040 C   0  0  0  0  0  0  0  0  0  0  0  0
    0.3588    0.5027   -0.6515 C   0  0  0  0  0  0  0  0  0  0  0  0
    1.8080    0.3061   -0.3028 C   0  0  0  0  0  0  0  0  0  0  0  0
    2.3548   -0.9655   -0.4481 C   0  0  0  0  0  0  0  0  0  0  0  0
    3.6940   -1.1327   -0.1329 C   0  0  0  0  0  0  0  0  0  0  0  0
    4.4702   -0.0539    0.3171 C   0  0  0  0  0  0  0  0  0  0  0  0
    3.9209    1.2095    0.4639 C   0  0  0  0  0  0  0  0  0  0  0  0
    2.5680    1.3735    0.1492 C   0  0  0  0  0  0  0  0  0  0  0  0
    2.0404    2.6163    0.3222 O   0  0  0  0  0  0  0  0  0  0  0  0
    5.7302   -0.4894    0.5455 O   0  0  0  0  0  0  0  0  0  0  0  0
    5.8308   -1.7570   -0.1361 C   0  0  0  0  0  0  0  0  0  0  0  0
    4.4716   -2.2392   -0.1809 O   0  0  0  0  0  0  0  0  0  0  0  0
   -0.4873   -0.6696   -0.2019 C   0  0  0  0  0  0  0  0  0  0  0  0
   -0.0097   -1.7532    0.0616 O   0  0  0  0  0  0  0  0  0  0  0  0
   -1.9384   -0.3978   -0.1066 C   0  0  0  0  0  0  0  0  0  0  0  0
   -2.3933    0.9338   -0.1614 C   0  0  0  0  0  0  0  0  0  0  0  0
   -1.5153    1.9682   -0.2925 O   0  0  0  0  0  0  0  0  0  0  0  0
   -3.7484    1.2356   -0.0821 C   0  0  0  0  0  0  0  0  0  0  0  0
   -4.6382    0.1752    0.0554 C   0  0  0  0  0  0  0  0  0  0  0  0
   -4.1749   -1.1655    0.1134 C   0  0  0  0  0  0  0  0  0  0  0  0
   -2.8227   -1.4754    0.0341 C   0  0  0  0  0  0  0  0  0  0  0  0
   -5.3698   -1.9870    0.2579 C   0  0  0  0  0  0  0  0  0  0  0  0
   -6.4065   -1.1335    0.2746 C   0  0  0  0  0  0  0  0  0  0  0  0
   -5.9693    0.1374    0.1546 O   0  0  0  0  0  0  0  0  0  0  0  0
    0.8235    3.0310   -1.3005 H   0  0  0  0  0  0  0  0  0  0  0  0
    0.3575    3.8186    0.2306 H   0  0  0  0  0  0  0  0  0  0  0  0
   -0.1438    1.5374    1.1761 H   0  0  0  0  0  0  0  0  0  0  0  0
    0.2567    0.6582   -1.7255 H   0  0  0  0  0  0  0  0  0  0  0  0
    1.7554   -1.7944   -0.7945 H   0  0  0  0  0  0  0  0  0  0  0  0
    4.5178    2.0404    0.8097 H   0  0  0  0  0  0  0  0  0  0  0  0
    6.2204   -1.6185   -1.1447 H   0  0  0  0  0  0  0  0  0  0  0  0
    6.4617   -2.4446    0.4270 H   0  0  0  0  0  0  0  0  0  0  0  0
   -4.0974    2.2567   -0.1254 H   0  0  0  0  0  0  0  0  0  0  0  0
   -2.4710   -2.4956    0.0787 H   0  0  0  0  0  0  0  0  0  0  0  0
   -5.4128   -3.0634    0.3357 H   0  0  0  0  0  0  0  0  0  0  0  0
   -7.4426   -1.4231    0.3704 H   0  0  0  0  0  0  0  0  0  0  0  0
  1  2  1  0  0  0  0
  2  3  1  0  0  0  0
  3  4  1  0  0  0  0
  4  5  2  0  0  0  0
  5  6  1  0  0  0  0
  6  7  2  0  0  0  0
  7  8  1  0  0  0  0
  8  9  2  0  0  0  0
  4  9  1  0  0  0  0
  9 10  1  0  0  0  0
  1 10  1  0  0  0  0
  7 11  1  0  0  0  0
 11 12  1  0  0  0  0
 12 13  1  0  0  0  0
  6 13  1  0  0  0  0
  3 14  1  0  0  0  0
 14 15  2  0  0  0  0
 14 16  1  0  0  0  0
 16 17  2  0  0  0  0
 17 18  1  0  0  0  0
  2 18  1  0  0  0  0
 17 19  1  0  0  0  0
 19 20  2  0  0  0  0
 20 21  1  0  0  0  0
 21 22  2  0  0  0  0
 16 22  1  0  0  0  0
 21 23  1  0  0  0  0
 23 24  2  0  0  0  0
 24 25  1  0  0  0  0
 20 25  1  0  0  0  0
  1 26  1  0  0  0  0
  1 27  1  0  0  0  0
  2 28  1  0  0  0  0
  3 29  1  0  0  0  0
  5 30  1  0  0  0  0
  8 31  1  0  0  0  0
 12 32  1  0  0  0  0
 12 33  1  0  0  0  0
 19 34  1  0  0  0  0
 22 35  1  0  0  0  0
 23 36  1  0  0  0  0
 24 37  1  0  0  0  0
M  END
$$$$
