C16H12O7
APtclcactv06281816593D 0   0.00000     0.00000
 
 35 37  0  0  0  0  0  0  0  0999 V2000
    5.8660   -0.4995   -1.0759 C   0  0  0  0  0  0  0  0  0  0  0  0
    5.2180   -0.3242    0.1856 O   0  0  0  0  0  0  0  0  0  0  0  0
    3.8582   -0.3915    0.1966 C   0  0  0  0  0  0  0  0  0  0  0  0
    3.2237   -1.6155    0.3986 C   0  0  0  0  0  0  0  0  0  0  0  0
    1.8403   -1.6993    0.4124 C   0  0  0  0  0  0  0  0  0  0  0  0
    1.0734   -0.5603    0.2244 C   0  0  0  0  0  0  0  0  0  0  0  0
    1.7096    0.6768    0.0202 C   0  0  0  0  0  0  0  0  0  0  0  0
    3.1069    0.7584    0.0126 C   0  0  0  0  0  0  0  0  0  0  0  0
    3.7217    1.9535   -0.1841 O   0  0  0  0  0  0  0  0  0  0  0  0
    0.8732    1.8729   -0.1773 C   0  0  0  0  0  0  0  0  0  0  0  0
    1.3716    2.9720   -0.3591 O   0  0  0  0  0  0  0  0  0  0  0  0
   -0.5304    1.6981   -0.1486 C   0  0  0  0  0  0  0  0  0  0  0  0
   -1.0478    0.4567    0.0563 C   0  0  0  0  0  0  0  0  0  0  0  0
   -0.2755   -0.6266    0.2348 O   0  0  0  0  0  0  0  0  0  0  0  0
   -2.5138    0.2949    0.0834 C   0  0  0  0  0  0  0  0  0  0  0  0
   -3.1067   -0.8198   -0.5159 C   0  0  0  0  0  0  0  0  0  0  0  0
   -4.4801   -0.9667   -0.4873 C   0  0  0  0  0  0  0  0  0  0  0  0
   -5.2712   -0.0046    0.1383 C   0  0  0  0  0  0  0  0  0  0  0  0
   -4.6824    1.1028    0.7332 C   0  0  0  0  0  0  0  0  0  0  0  0
   -3.3126    1.2530    0.7135 C   0  0  0  0  0  0  0  0  0  0  0  0
   -6.6215   -0.1507    0.1655 O   0  0  0  0  0  0  0  0  0  0  0  0
   -5.0604   -2.0500   -1.0699 O   0  0  0  0  0  0  0  0  0  0  0  0
    3.9678   -2.7369    0.5832 O   0  0  0  0  0  0  0  0  0  0  0  0
    6.9453   -0.4228   -0.9438 H   0  0  0  0  0  0  0  0  0  0  0  0
    5.6181   -1.4817   -1.4784 H   0  0  0  0  0  0  0  0  0  0  0  0
    5.5290    0.2723   -1.7679 H   0  0  0  0  0  0  0  0  0  0  0  0
    1.3593   -2.6535    0.5695 H   0  0  0  0  0  0  0  0  0  0  0  0
    3.8959    2.4450    0.6302 H   0  0  0  0  0  0  0  0  0  0  0  0
   -1.1866    2.5444   -0.2880 H   0  0  0  0  0  0  0  0  0  0  0  0
   -2.4927   -1.5644   -1.0006 H   0  0  0  0  0  0  0  0  0  0  0  0
   -5.2990    1.8462    1.2166 H   0  0  0  0  0  0  0  0  0  0  0  0
   -2.8572    2.1154    1.1774 H   0  0  0  0  0  0  0  0  0  0  0  0
   -6.9492   -0.6361    0.9350 H   0  0  0  0  0  0  0  0  0  0  0  0
   -5.1649   -2.8067   -0.4769 H   0  0  0  0  0  0  0  0  0  0  0  0
    4.1835   -2.9179    1.5083 H   0  0  0  0  0  0  0  0  0  0  0  0
  1  2  1  0  0  0  0
  2  3  1  0  0  0  0
  3  4  2  0  0  0  0
  4  5  1  0  0  0  0
  5  6  2  0  0  0  0
  6  7  1  0  0  0  0
  7  8  2  0  0  0  0
  3  8  1  0  0  0  0
  8  9  1  0  0  0  0
  7 10  1  0  0  0  0
 10 11  2  0  0  0  0
 10 12  1  0  0  0  0
 12 13  2  0  0  0  0
 13 14  1  0  0  0  0
  6 14  1  0  0  0  0
 13 15  1  0  0  0  0
 15 16  2  0  0  0  0
 16 17  1  0  0  0  0
 17 18  2  0  0  0  0
 18 19  1  0  0  0  0
 19 20  2  0  0  0  0
 15 20  1  0  0  0  0
 18 21  1  0  0  0  0
 17 22  1  0  0  0  0
  4 23  1  0  0  0  0
  1 24  1  0  0  0  0
  1 25  1  0  0  0  0
  1 26  1  0  0  0  0
  5 27  1  0  0  0  0
  9 28  1  0  0  0  0
 12 29  1  0  0  0  0
 16 30  1  0  0  0  0
 19 31  1  0  0  0  0
 20 32  1  0  0  0  0
 21 33  1  0  0  0  0
 22 34  1  0  0  0  0
 23 35  1  0  0  0  0
M  END
$$$$
