C17H20O9
APtclcactv06281816593D 0   0.00000     0.00000
 
 46 47  0  0  0  0  0  0  0  0999 V2000
    7.0322    1.6986   -0.8055 C   0  0  0  0  0  0  0  0  0  0  0  0
    6.9991    0.3978   -0.2149 O   0  0  0  0  0  0  0  0  0  0  0  0
    5.7743   -0.1584   -0.0149 C   0  0  0  0  0  0  0  0  0  0  0  0
    5.6693   -1.4257    0.5574 C   0  0  0  0  0  0  0  0  0  0  0  0
    4.4208   -1.9978    0.7636 C   0  0  0  0  0  0  0  0  0  0  0  0
    3.2791   -1.3164    0.4039 C   0  0  0  0  0  0  0  0  0  0  0  0
    3.3760   -0.0437   -0.1707 C   0  0  0  0  0  0  0  0  0  0  0  0
    4.6348    0.5343   -0.3732 C   0  0  0  0  0  0  0  0  0  0  0  0
    2.1597    0.6857   -0.5554 C   0  0  0  0  0  0  0  0  0  0  0  0
    0.9457    0.1280   -0.3548 C   0  0  0  0  0  0  0  0  0  0  0  0
   -0.2278    0.8317   -0.7260 C   0  0  0  0  0  0  0  0  0  0  0  0
   -0.1416    1.9377   -1.2252 O   0  0  0  0  0  0  0  0  0  0  0  0
   -1.4404    0.2747   -0.5256 O   0  0  0  0  0  0  0  0  0  0  0  0
   -2.5797    1.0401   -0.9234 C   0  0  0  0  0  0  0  0  0  0  0  0
   -3.7101    0.0952   -1.3360 C   0  0  0  0  0  0  0  0  0  0  0  0
   -4.0845   -0.7994   -0.1526 C   0  0  0  0  0  0  0  0  0  0  0  0
   -4.5484    0.0704    1.0175 C   0  0  0  0  0  0  0  0  0  0  0  0
   -3.4180    1.0153    1.4301 C   0  0  0  0  0  0  0  0  0  0  0  0
   -3.0435    1.9099    0.2467 C   0  0  0  0  0  0  0  0  0  0  0  0
   -1.9878    2.7924    0.6321 O   0  0  0  0  0  0  0  0  0  0  0  0
   -3.8512    1.8277    2.5230 O   0  0  0  0  0  0  0  0  0  0  0  0
   -5.1979   -1.7301   -0.5590 C   0  0  0  0  0  0  0  0  0  0  0  0
   -5.9438   -1.4232   -1.4586 O   0  0  0  0  0  0  0  0  0  0  0  0
   -5.3610   -2.9001    0.0784 O   0  0  0  0  0  0  0  0  0  0  0  0
   -2.9452   -1.5648    0.2452 O   0  0  0  0  0  0  0  0  0  0  0  0
    6.7915   -2.1028    0.9137 O   0  0  0  0  0  0  0  0  0  0  0  0
    8.0672    2.0244   -0.9088 H   0  0  0  0  0  0  0  0  0  0  0  0
    6.5625    1.6634   -1.7884 H   0  0  0  0  0  0  0  0  0  0  0  0
    6.4922    2.4002   -0.1696 H   0  0  0  0  0  0  0  0  0  0  0  0
    4.3449   -2.9797    1.2068 H   0  0  0  0  0  0  0  0  0  0  0  0
    2.3096   -1.7641    0.5648 H   0  0  0  0  0  0  0  0  0  0  0  0
    4.7149    1.5162   -0.8158 H   0  0  0  0  0  0  0  0  0  0  0  0
    2.2363    1.6676   -0.9986 H   0  0  0  0  0  0  0  0  0  0  0  0
    0.8691   -0.8539    0.0884 H   0  0  0  0  0  0  0  0  0  0  0  0
   -2.3129    1.6774   -1.7665 H   0  0  0  0  0  0  0  0  0  0  0  0
   -4.5791    0.6790   -1.6394 H   0  0  0  0  0  0  0  0  0  0  0  0
   -3.3796   -0.5245   -2.1696 H   0  0  0  0  0  0  0  0  0  0  0  0
   -5.4174    0.6542    0.7141 H   0  0  0  0  0  0  0  0  0  0  0  0
   -4.8152   -0.5669    1.8606 H   0  0  0  0  0  0  0  0  0  0  0  0
   -2.5490    0.4315    1.7335 H   0  0  0  0  0  0  0  0  0  0  0  0
   -3.9126    2.4937   -0.0567 H   0  0  0  0  0  0  0  0  0  0  0  0
   -2.2120    3.3751    1.3705 H   0  0  0  0  0  0  0  0  0  0  0  0
   -4.1051    1.3259    3.3096 H   0  0  0  0  0  0  0  0  0  0  0  0
   -6.0890   -3.4636   -0.2176 H   0  0  0  0  0  0  0  0  0  0  0  0
   -3.1100   -2.1560    0.9924 H   0  0  0  0  0  0  0  0  0  0  0  0
    7.0819   -1.9332    1.8204 H   0  0  0  0  0  0  0  0  0  0  0  0
  1  2  1  0  0  0  0
  2  3  1  0  0  0  0
  3  4  2  0  0  0  0
  4  5  1  0  0  0  0
  5  6  2  0  0  0  0
  6  7  1  0  0  0  0
  7  8  2  0  0  0  0
  3  8  1  0  0  0  0
  7  9  1  0  0  0  0
  9 10  2  0  0  0  0
 10 11  1  0  0  0  0
 11 12  2  0  0  0  0
 11 13  1  0  0  0  0
 13 14  1  0  0  0  0
 14 15  1  0  0  0  0
 15 16  1  0  0  0  0
 16 17  1  0  0  0  0
 17 18  1  0  0  0  0
 18 19  1  0  0  0  0
 14 19  1  0  0  0  0
 19 20  1  0  0  0  0
 18 21  1  0  0  0  0
 16 22  1  0  0  0  0
 22 23  2  0  0  0  0
 22 24  1  0  0  0  0
 16 25  1  0  0  0  0
  4 26  1  0  0  0  0
  1 27  1  0  0  0  0
  1 28  1  0  0  0  0
  1 29  1  0  0  0  0
  5 30  1  0  0  0  0
  6 31  1  0  0  0  0
  8 32  1  0  0  0  0
  9 33  1  0  0  0  0
 10 34  1  0  0  0  0
 14 35  1  0  0  0  0
 15 36  1  0  0  0  0
 15 37  1  0  0  0  0
 17 38  1  0  0  0  0
 17 39  1  0  0  0  0
 18 40  1  0  0  0  0
 19 41  1  0  0  0  0
 20 42  1  0  0  0  0
 21 43  1  0  0  0  0
 24 44  1  0  0  0  0
 25 45  1  0  0  0  0
 26 46  1  0  0  0  0
M  END
$$$$
