C22H34O3
APtclcactv06281816483D 0   0.00000     0.00000
 
 59 59  0  0  0  0  0  0  0  0999 V2000
  -11.0322    3.1756    0.4176 C   0  0  0  0  0  0  0  0  0  0  0  0
  -10.4714    1.8202    0.8527 C   0  0  0  0  0  0  0  0  0  0  0  0
   -9.1709    1.5400    0.0968 C   0  0  0  0  0  0  0  0  0  0  0  0
   -8.6100    0.1846    0.5319 C   0  0  0  0  0  0  0  0  0  0  0  0
   -7.3096   -0.0955   -0.2239 C   0  0  0  0  0  0  0  0  0  0  0  0
   -6.7487   -1.4509    0.2112 C   0  0  0  0  0  0  0  0  0  0  0  0
   -5.4678   -1.7269   -0.5332 C   0  0  0  0  0  0  0  0  0  0  0  0
   -4.3710   -1.9994    0.1291 C   0  0  0  0  0  0  0  0  0  0  0  0
   -3.0901   -2.2753   -0.6154 C   0  0  0  0  0  0  0  0  0  0  0  0
   -1.9961   -1.3292   -0.1163 C   0  0  0  0  0  0  0  0  0  0  0  0
   -0.6957   -1.6094   -0.8721 C   0  0  0  0  0  0  0  0  0  0  0  0
    0.3982   -0.6633   -0.3730 C   0  0  0  0  0  0  0  0  0  0  0  0
    1.6987   -0.9435   -1.1289 C   0  0  0  0  0  0  0  0  0  0  0  0
    2.7926    0.0026   -0.6298 C   0  0  0  0  0  0  0  0  0  0  0  0
    4.0931   -0.2776   -1.3856 C   0  0  0  0  0  0  0  0  0  0  0  0
    5.1706    0.6542   -0.8941 C   0  0  0  0  0  0  0  0  0  0  0  0
    5.9165    0.3247    0.2406 C   0  0  0  0  0  0  0  0  0  0  0  0
    6.9172    1.1984    0.6896 C   0  0  0  0  0  0  0  0  0  0  0  0
    7.1563    2.3796    0.0036 C   0  0  0  0  0  0  0  0  0  0  0  0
    6.4114    2.6927   -1.1163 C   0  0  0  0  0  0  0  0  0  0  0  0
    5.4255    1.8299   -1.5662 C   0  0  0  0  0  0  0  0  0  0  0  0
    7.6477    0.8898    1.7900 O   0  0  0  0  0  0  0  0  0  0  0  0
    5.6527   -0.9336    0.9616 C   0  0  0  0  0  0  0  0  0  0  0  0
    6.2475   -1.9471    0.6525 O   0  0  0  0  0  0  0  0  0  0  0  0
    4.7519   -0.9600    1.9634 O   0  0  0  0  0  0  0  0  0  0  0  0
  -10.3066    3.9577    0.6407 H   0  0  0  0  0  0  0  0  0  0  0  0
  -11.2311    3.1594   -0.6540 H   0  0  0  0  0  0  0  0  0  0  0  0
  -11.9587    3.3752    0.9560 H   0  0  0  0  0  0  0  0  0  0  0  0
  -10.2725    1.8363    1.9243 H   0  0  0  0  0  0  0  0  0  0  0  0
  -11.1971    1.0381    0.6295 H   0  0  0  0  0  0  0  0  0  0  0  0
   -9.3698    1.5239   -0.9748 H   0  0  0  0  0  0  0  0  0  0  0  0
   -8.4452    2.3221    0.3200 H   0  0  0  0  0  0  0  0  0  0  0  0
   -8.4112    0.2008    1.6035 H   0  0  0  0  0  0  0  0  0  0  0  0
   -9.3357   -0.5975    0.3088 H   0  0  0  0  0  0  0  0  0  0  0  0
   -7.5084   -0.1117   -1.2955 H   0  0  0  0  0  0  0  0  0  0  0  0
   -6.5839    0.6865   -0.0007 H   0  0  0  0  0  0  0  0  0  0  0  0
   -6.5499   -1.4348    1.2828 H   0  0  0  0  0  0  0  0  0  0  0  0
   -7.4744   -2.2330   -0.0119 H   0  0  0  0  0  0  0  0  0  0  0  0
   -5.4542   -1.7000   -1.6128 H   0  0  0  0  0  0  0  0  0  0  0  0
   -4.3846   -2.0262    1.2087 H   0  0  0  0  0  0  0  0  0  0  0  0
   -2.7846   -3.3073   -0.4426 H   0  0  0  0  0  0  0  0  0  0  0  0
   -3.2485   -2.1170   -1.6821 H   0  0  0  0  0  0  0  0  0  0  0  0
   -2.3017   -0.2973   -0.2890 H   0  0  0  0  0  0  0  0  0  0  0  0
   -1.8377   -1.4876    0.9505 H   0  0  0  0  0  0  0  0  0  0  0  0
   -0.3902   -2.6414   -0.6994 H   0  0  0  0  0  0  0  0  0  0  0  0
   -0.8541   -1.4511   -1.9389 H   0  0  0  0  0  0  0  0  0  0  0  0
    0.0927    0.3686   -0.5458 H   0  0  0  0  0  0  0  0  0  0  0  0
    0.5567   -0.8217    0.6937 H   0  0  0  0  0  0  0  0  0  0  0  0
    2.0042   -1.9755   -0.9561 H   0  0  0  0  0  0  0  0  0  0  0  0
    1.5403   -0.7852   -2.1956 H   0  0  0  0  0  0  0  0  0  0  0  0
    2.4871    1.0345   -0.8025 H   0  0  0  0  0  0  0  0  0  0  0  0
    2.9510   -0.1558    0.4369 H   0  0  0  0  0  0  0  0  0  0  0  0
    4.3986   -1.3096   -1.2129 H   0  0  0  0  0  0  0  0  0  0  0  0
    3.9346   -0.1193   -2.4524 H   0  0  0  0  0  0  0  0  0  0  0  0
    7.9257    3.0558    0.3459 H   0  0  0  0  0  0  0  0  0  0  0  0
    6.6015    3.6139   -1.6470 H   0  0  0  0  0  0  0  0  0  0  0  0
    4.8484    2.0837   -2.4431 H   0  0  0  0  0  0  0  0  0  0  0  0
    8.4504    0.3850    1.6004 H   0  0  0  0  0  0  0  0  0  0  0  0
    4.6130   -1.8081    2.4066 H   0  0  0  0  0  0  0  0  0  0  0  0
  1  2  1  0  0  0  0
  2  3  1  0  0  0  0
  3  4  1  0  0  0  0
  4  5  1  0  0  0  0
  5  6  1  0  0  0  0
  6  7  1  0  0  0  0
  7  8  2  0  0  0  0
  8  9  1  0  0  0  0
  9 10  1  0  0  0  0
 10 11  1  0  0  0  0
 11 12  1  0  0  0  0
 12 13  1  0  0  0  0
 13 14  1  0  0  0  0
 14 15  1  0  0  0  0
 15 16  1  0  0  0  0
 16 17  2  0  0  0  0
 17 18  1  0  0  0  0
 18 19  2  0  0  0  0
 19 20  1  0  0  0  0
 20 21  2  0  0  0  0
 16 21  1  0  0  0  0
 18 22  1  0  0  0  0
 17 23  1  0  0  0  0
 23 24  2  0  0  0  0
 23 25  1  0  0  0  0
  1 26  1  0  0  0  0
  1 27  1  0  0  0  0
  1 28  1  0  0  0  0
  2 29  1  0  0  0  0
  2 30  1  0  0  0  0
  3 31  1  0  0  0  0
  3 32  1  0  0  0  0
  4 33  1  0  0  0  0
  4 34  1  0  0  0  0
  5 35  1  0  0  0  0
  5 36  1  0  0  0  0
  6 37  1  0  0  0  0
  6 38  1  0  0  0  0
  7 39  1  0  0  0  0
  8 40  1  0  0  0  0
  9 41  1  0  0  0  0
  9 42  1  0  0  0  0
 10 43  1  0  0  0  0
 10 44  1  0  0  0  0
 11 45  1  0  0  0  0
 11 46  1  0  0  0  0
 12 47  1  0  0  0  0
 12 48  1  0  0  0  0
 13 49  1  0  0  0  0
 13 50  1  0  0  0  0
 14 51  1  0  0  0  0
 14 52  1  0  0  0  0
 15 53  1  0  0  0  0
 15 54  1  0  0  0  0
 19 55  1  0  0  0  0
 20 56  1  0  0  0  0
 21 57  1  0  0  0  0
 22 58  1  0  0  0  0
 25 59  1  0  0  0  0
M  END
$$$$
