C10H12O7
APtclcactv06281817003D 0   0.00000     0.00000
 
 29 29  0  0  0  0  0  0  0  0999 V2000
    2.0634   -1.3774    0.0268 C   0  0  0  0  0  0  0  0  0  0  0  0
    0.9757   -0.5018   -0.0329 C   0  0  0  0  0  0  0  0  0  0  0  0
    1.1947    0.8766   -0.1063 C   0  0  0  0  0  0  0  0  0  0  0  0
    2.4856    1.3701   -0.1197 C   0  0  0  0  0  0  0  0  0  0  0  0
    3.5674    0.4954   -0.0605 C   0  0  0  0  0  0  0  0  0  0  0  0
    3.3522   -0.8783    0.0132 C   0  0  0  0  0  0  0  0  0  0  0  0
    4.4111   -1.7298    0.0708 O   0  0  0  0  0  0  0  0  0  0  0  0
    4.8356    0.9833   -0.0743 O   0  0  0  0  0  0  0  0  0  0  0  0
    2.6995    2.7113   -0.1911 O   0  0  0  0  0  0  0  0  0  0  0  0
   -0.4006   -1.0314   -0.0189 C   0  0  0  0  0  0  0  0  0  0  0  0
   -0.5898   -2.2300    0.0445 O   0  0  0  0  0  0  0  0  0  0  0  0
   -1.4484   -0.1861   -0.0766 O   0  0  0  0  0  0  0  0  0  0  0  0
   -2.7744   -0.7777   -0.0587 C   0  0  0  0  0  0  0  0  0  0  0  0
   -3.8278    0.3296   -0.1307 C   0  0  0  0  0  0  0  0  0  0  0  0
   -5.2196   -0.2968   -0.2376 C   0  0  0  0  0  0  0  0  0  0  0  0
   -6.1927    0.7333   -0.4218 O   0  0  0  0  0  0  0  0  0  0  0  0
   -3.7562    1.1327    1.0491 O   0  0  0  0  0  0  0  0  0  0  0  0
    1.8970   -2.4428    0.0881 H   0  0  0  0  0  0  0  0  0  0  0  0
    0.3560    1.5554   -0.1529 H   0  0  0  0  0  0  0  0  0  0  0  0
    4.7085   -1.9274    0.9695 H   0  0  0  0  0  0  0  0  0  0  0  0
    5.1936    1.1730    0.8038 H   0  0  0  0  0  0  0  0  0  0  0  0
    2.7519    3.1477    0.6703 H   0  0  0  0  0  0  0  0  0  0  0  0
   -2.8871   -1.4427   -0.9149 H   0  0  0  0  0  0  0  0  0  0  0  0
   -2.9065   -1.3455    0.8623 H   0  0  0  0  0  0  0  0  0  0  0  0
   -3.6414    0.9521   -1.0058 H   0  0  0  0  0  0  0  0  0  0  0  0
   -5.2469   -0.9786   -1.0875 H   0  0  0  0  0  0  0  0  0  0  0  0
   -5.4416   -0.8470    0.6768 H   0  0  0  0  0  0  0  0  0  0  0  0
   -7.1002    0.4081   -0.4977 H   0  0  0  0  0  0  0  0  0  0  0  0
   -3.9124    0.6430    1.8683 H   0  0  0  0  0  0  0  0  0  0  0  0
  1  2  2  0  0  0  0
  2  3  1  0  0  0  0
  3  4  2  0  0  0  0
  4  5  1  0  0  0  0
  5  6  2  0  0  0  0
  1  6  1  0  0  0  0
  6  7  1  0  0  0  0
  5  8  1  0  0  0  0
  4  9  1  0  0  0  0
  2 10  1  0  0  0  0
 10 11  2  0  0  0  0
 10 12  1  0  0  0  0
 12 13  1  0  0  0  0
 13 14  1  0  0  0  0
 14 15  1  0  0  0  0
 15 16  1  0  0  0  0
 14 17  1  0  0  0  0
  1 18  1  0  0  0  0
  3 19  1  0  0  0  0
  7 20  1  0  0  0  0
  8 21  1  0  0  0  0
  9 22  1  0  0  0  0
 13 23  1  0  0  0  0
 13 24  1  0  0  0  0
 14 25  1  0  0  0  0
 15 26  1  0  0  0  0
 15 27  1  0  0  0  0
 16 28  1  0  0  0  0
 17 29  1  0  0  0  0
M  END
$$$$
