C21H32O6
APtclcactv06281817003D 0   0.00000     0.00000
 
 59 59  0  0  0  0  0  0  0  0999 V2000
    7.6072   -3.3011    1.1892 C   0  0  0  0  0  0  0  0  0  0  0  0
    6.3901   -2.8215    0.3958 C   0  0  0  0  0  0  0  0  0  0  0  0
    5.6739   -1.7185    1.1778 C   0  0  0  0  0  0  0  0  0  0  0  0
    4.4568   -1.2389    0.3845 C   0  0  0  0  0  0  0  0  0  0  0  0
    3.7406   -0.1360    1.1665 C   0  0  0  0  0  0  0  0  0  0  0  0
    2.5234    0.3437    0.3731 C   0  0  0  0  0  0  0  0  0  0  0  0
    1.7373    1.3565    1.2081 C   0  0  0  0  0  0  0  0  0  0  0  0
    0.4549    1.7418    0.4678 C   0  0  0  0  0  0  0  0  0  0  0  0
   -0.4786    0.5315    0.4009 C   0  0  0  0  0  0  0  0  0  0  0  0
   -1.7048    0.8793   -0.4456 C   0  0  0  0  0  0  0  0  0  0  0  0
   -2.6243   -0.3128   -0.5114 C   0  0  0  0  0  0  0  0  0  0  0  0
   -3.6139   -0.4739    0.4403 C   0  0  0  0  0  0  0  0  0  0  0  0
   -4.4603   -1.5694    0.3812 C   0  0  0  0  0  0  0  0  0  0  0  0
   -4.3113   -2.5056   -0.6375 C   0  0  0  0  0  0  0  0  0  0  0  0
   -3.3174   -2.3382   -1.5883 C   0  0  0  0  0  0  0  0  0  0  0  0
   -2.4800   -1.2400   -1.5268 C   0  0  0  0  0  0  0  0  0  0  0  0
   -5.1392   -3.5828   -0.6995 O   0  0  0  0  0  0  0  0  0  0  0  0
   -5.4340   -1.7296    1.3170 O   0  0  0  0  0  0  0  0  0  0  0  0
   -5.5278   -0.7296    2.3334 C   0  0  0  0  0  0  0  0  0  0  0  0
   -0.2057    2.8241    1.1751 O   0  0  0  0  0  0  0  0  0  0  0  0
   -0.8059    3.7638    0.4277 C   0  0  0  0  0  0  0  0  0  0  0  0
   -0.8476    3.6444   -0.7739 O   0  0  0  0  0  0  0  0  0  0  0  0
   -1.4277    4.9676    1.0874 C   0  0  0  0  0  0  0  0  0  0  0  0
    2.9657    0.9716   -0.8591 O   0  0  0  0  0  0  0  0  0  0  0  0
    2.2206    0.7557   -1.9546 C   0  0  0  0  0  0  0  0  0  0  0  0
    1.2297    0.0679   -1.8853 O   0  0  0  0  0  0  0  0  0  0  0  0
    2.6202    1.3711   -3.2709 C   0  0  0  0  0  0  0  0  0  0  0  0
    8.2898   -2.4662    1.3475 H   0  0  0  0  0  0  0  0  0  0  0  0
    7.2816   -3.6920    2.1531 H   0  0  0  0  0  0  0  0  0  0  0  0
    8.1174   -4.0869    0.6320 H   0  0  0  0  0  0  0  0  0  0  0  0
    6.7157   -2.4306   -0.5682 H   0  0  0  0  0  0  0  0  0  0  0  0
    5.7075   -3.6565    0.2375 H   0  0  0  0  0  0  0  0  0  0  0  0
    5.3483   -2.1094    2.1418 H   0  0  0  0  0  0  0  0  0  0  0  0
    6.3565   -0.8836    1.3361 H   0  0  0  0  0  0  0  0  0  0  0  0
    4.7824   -0.8480   -0.5795 H   0  0  0  0  0  0  0  0  0  0  0  0
    3.7742   -2.0739    0.2262 H   0  0  0  0  0  0  0  0  0  0  0  0
    3.4150   -0.5268    2.1305 H   0  0  0  0  0  0  0  0  0  0  0  0
    4.4232    0.6990    1.3248 H   0  0  0  0  0  0  0  0  0  0  0  0
    1.8844   -0.5075    0.1382 H   0  0  0  0  0  0  0  0  0  0  0  0
    1.4819    0.9135    2.1707 H   0  0  0  0  0  0  0  0  0  0  0  0
    2.3461    2.2464    1.3676 H   0  0  0  0  0  0  0  0  0  0  0  0
    0.7024    2.0660   -0.5431 H   0  0  0  0  0  0  0  0  0  0  0  0
    0.0481   -0.3092   -0.0508 H   0  0  0  0  0  0  0  0  0  0  0  0
   -0.7969    0.2621    1.4080 H   0  0  0  0  0  0  0  0  0  0  0  0
   -2.2315    1.7200    0.0061 H   0  0  0  0  0  0  0  0  0  0  0  0
   -1.3865    1.1487   -1.4527 H   0  0  0  0  0  0  0  0  0  0  0  0
   -3.7272    0.2540    1.2301 H   0  0  0  0  0  0  0  0  0  0  0  0
   -3.1997   -3.0634   -2.3799 H   0  0  0  0  0  0  0  0  0  0  0  0
   -1.7057   -1.1106   -2.2684 H   0  0  0  0  0  0  0  0  0  0  0  0
   -5.9392   -3.4344   -1.2220 H   0  0  0  0  0  0  0  0  0  0  0  0
   -4.5912   -0.6878    2.8895 H   0  0  0  0  0  0  0  0  0  0  0  0
   -5.7205    0.2395    1.8731 H   0  0  0  0  0  0  0  0  0  0  0  0
   -6.3431   -0.9776    3.0130 H   0  0  0  0  0  0  0  0  0  0  0  0
   -0.7146    5.7920    1.0853 H   0  0  0  0  0  0  0  0  0  0  0  0
   -2.3231    5.2604    0.5390 H   0  0  0  0  0  0  0  0  0  0  0  0
   -1.6953    4.7213    2.1149 H   0  0  0  0  0  0  0  0  0  0  0  0
    3.5709    0.9484   -3.5959 H   0  0  0  0  0  0  0  0  0  0  0  0
    1.8547    1.1604   -4.0177 H   0  0  0  0  0  0  0  0  0  0  0  0
    2.7240    2.4495   -3.1512 H   0  0  0  0  0  0  0  0  0  0  0  0
  1  2  1  0  0  0  0
  2  3  1  0  0  0  0
  3  4  1  0  0  0  0
  4  5  1  0  0  0  0
  5  6  1  0  0  0  0
  6  7  1  0  0  0  0
  7  8  1  0  0  0  0
  8  9  1  0  0  0  0
  9 10  1  0  0  0  0
 10 11  1  0  0  0  0
 11 12  2  0  0  0  0
 12 13  1  0  0  0  0
 13 14  2  0  0  0  0
 14 15  1  0  0  0  0
 15 16  2  0  0  0  0
 11 16  1  0  0  0  0
 14 17  1  0  0  0  0
 13 18  1  0  0  0  0
 18 19  1  0  0  0  0
  8 20  1  0  0  0  0
 20 21  1  0  0  0  0
 21 22  2  0  0  0  0
 21 23  1  0  0  0  0
  6 24  1  0  0  0  0
 24 25  1  0  0  0  0
 25 26  2  0  0  0  0
 25 27  1  0  0  0  0
  1 28  1  0  0  0  0
  1 29  1  0  0  0  0
  1 30  1  0  0  0  0
  2 31  1  0  0  0  0
  2 32  1  0  0  0  0
  3 33  1  0  0  0  0
  3 34  1  0  0  0  0
  4 35  1  0  0  0  0
  4 36  1  0  0  0  0
  5 37  1  0  0  0  0
  5 38  1  0  0  0  0
  6 39  1  0  0  0  0
  7 40  1  0  0  0  0
  7 41  1  0  0  0  0
  8 42  1  0  0  0  0
  9 43  1  0  0  0  0
  9 44  1  0  0  0  0
 10 45  1  0  0  0  0
 10 46  1  0  0  0  0
 12 47  1  0  0  0  0
 15 48  1  0  0  0  0
 16 49  1  0  0  0  0
 17 50  1  0  0  0  0
 19 51  1  0  0  0  0
 19 52  1  0  0  0  0
 19 53  1  0  0  0  0
 23 54  1  0  0  0  0
 23 55  1  0  0  0  0
 23 56  1  0  0  0  0
 27 57  1  0  0  0  0
 27 58  1  0  0  0  0
 27 59  1  0  0  0  0
M  END
$$$$
