C18H16O8
APtclcactv06281816593D 0   0.00000     0.00000
 
 42 44  0  0  0  0  0  0  0  0999 V2000
    6.7514    1.9605    0.9468 C   0  0  0  0  0  0  0  0  0  0  0  0
    6.3294    0.8852    0.1054 O   0  0  0  0  0  0  0  0  0  0  0  0
    5.0009    0.6002    0.0882 C   0  0  0  0  0  0  0  0  0  0  0  0
    4.5228   -0.4366   -0.7110 C   0  0  0  0  0  0  0  0  0  0  0  0
    3.1722   -0.7280   -0.7300 C   0  0  0  0  0  0  0  0  0  0  0  0
    2.2884    0.0189    0.0542 C   0  0  0  0  0  0  0  0  0  0  0  0
    2.7752    1.0569    0.8536 C   0  0  0  0  0  0  0  0  0  0  0  0
    4.1244    1.3386    0.8709 C   0  0  0  0  0  0  0  0  0  0  0  0
    0.8461   -0.2872    0.0376 C   0  0  0  0  0  0  0  0  0  0  0  0
    0.4492   -1.5844    0.1671 C   0  0  0  0  0  0  0  0  0  0  0  0
   -0.9348   -1.8956    0.1532 C   0  0  0  0  0  0  0  0  0  0  0  0
   -1.3273   -3.0459    0.2671 O   0  0  0  0  0  0  0  0  0  0  0  0
   -1.8791   -0.7777   -0.0032 C   0  0  0  0  0  0  0  0  0  0  0  0
   -3.2624   -0.9939   -0.0270 C   0  0  0  0  0  0  0  0  0  0  0  0
   -4.1188    0.0851   -0.1757 C   0  0  0  0  0  0  0  0  0  0  0  0
   -3.6036    1.3740   -0.3002 C   0  0  0  0  0  0  0  0  0  0  0  0
   -2.2354    1.5923   -0.2776 C   0  0  0  0  0  0  0  0  0  0  0  0
   -1.3634    0.5247   -0.1292 C   0  0  0  0  0  0  0  0  0  0  0  0
   -0.0284    0.7240   -0.0992 O   0  0  0  0  0  0  0  0  0  0  0  0
   -4.4506    2.4261   -0.4456 O   0  0  0  0  0  0  0  0  0  0  0  0
   -3.8606    3.7218   -0.5683 C   0  0  0  0  0  0  0  0  0  0  0  0
   -5.4654   -0.1142   -0.2006 O   0  0  0  0  0  0  0  0  0  0  0  0
   -6.1511   -0.0698    1.0524 C   0  0  0  0  0  0  0  0  0  0  0  0
   -3.7608   -2.2517    0.0942 O   0  0  0  0  0  0  0  0  0  0  0  0
    1.3733   -2.5735    0.3082 O   0  0  0  0  0  0  0  0  0  0  0  0
    5.3854   -1.1613   -1.4727 O   0  0  0  0  0  0  0  0  0  0  0  0
    6.2584    2.8811    0.6346 H   0  0  0  0  0  0  0  0  0  0  0  0
    6.4860    1.7387    1.9804 H   0  0  0  0  0  0  0  0  0  0  0  0
    7.8317    2.0818    0.8670 H   0  0  0  0  0  0  0  0  0  0  0  0
    2.8003   -1.5307   -1.3494 H   0  0  0  0  0  0  0  0  0  0  0  0
    2.0948    1.6358    1.4605 H   0  0  0  0  0  0  0  0  0  0  0  0
    4.4993    2.1407    1.4893 H   0  0  0  0  0  0  0  0  0  0  0  0
   -1.8477    2.5955   -0.3757 H   0  0  0  0  0  0  0  0  0  0  0  0
   -4.6459    4.4697   -0.6780 H   0  0  0  0  0  0  0  0  0  0  0  0
   -3.2734    3.9396    0.3238 H   0  0  0  0  0  0  0  0  0  0  0  0
   -3.2124    3.7444   -1.4444 H   0  0  0  0  0  0  0  0  0  0  0  0
   -7.2149   -0.2436    0.8908 H   0  0  0  0  0  0  0  0  0  0  0  0
   -5.7530   -0.8410    1.7119 H   0  0  0  0  0  0  0  0  0  0  0  0
   -6.0083    0.9090    1.5103 H   0  0  0  0  0  0  0  0  0  0  0  0
   -3.9353   -2.5193    1.0069 H   0  0  0  0  0  0  0  0  0  0  0  0
    0.9925   -3.4584    0.3928 H   0  0  0  0  0  0  0  0  0  0  0  0
    5.7482   -1.9379   -1.0251 H   0  0  0  0  0  0  0  0  0  0  0  0
  1  2  1  0  0  0  0
  2  3  1  0  0  0  0
  3  4  2  0  0  0  0
  4  5  1  0  0  0  0
  5  6  2  0  0  0  0
  6  7  1  0  0  0  0
  7  8  2  0  0  0  0
  3  8  1  0  0  0  0
  6  9  1  0  0  0  0
  9 10  2  0  0  0  0
 10 11  1  0  0  0  0
 11 12  2  0  0  0  0
 11 13  1  0  0  0  0
 13 14  2  0  0  0  0
 14 15  1  0  0  0  0
 15 16  2  0  0  0  0
 16 17  1  0  0  0  0
 17 18  2  0  0  0  0
 13 18  1  0  0  0  0
 18 19  1  0  0  0  0
  9 19  1  0  0  0  0
 16 20  1  0  0  0  0
 20 21  1  0  0  0  0
 15 22  1  0  0  0  0
 22 23  1  0  0  0  0
 14 24  1  0  0  0  0
 10 25  1  0  0  0  0
  4 26  1  0  0  0  0
  1 27  1  0  0  0  0
  1 28  1  0  0  0  0
  1 29  1  0  0  0  0
  5 30  1  0  0  0  0
  7 31  1  0  0  0  0
  8 32  1  0  0  0  0
 17 33  1  0  0  0  0
 21 34  1  0  0  0  0
 21 35  1  0  0  0  0
 21 36  1  0  0  0  0
 23 37  1  0  0  0  0
 23 38  1  0  0  0  0
 23 39  1  0  0  0  0
 24 40  1  0  0  0  0
 25 41  1  0  0  0  0
 26 42  1  0  0  0  0
M  END
$$$$
