C20H18O4
APtclcactv06281817003D 0   0.00000     0.00000
 
 42 45  0  0  0  0  0  0  0  0999 V2000
   -5.3678   -0.8360    1.3637 C   0  0  0  0  0  0  0  0  0  0  0  0
   -5.3552    0.0694    0.1304 C   0  0  0  0  0  0  0  0  0  0  0  0
   -4.8219    1.4243    0.5145 C   0  0  0  0  0  0  0  0  0  0  0  0
   -3.5137    1.6657    0.4574 C   0  0  0  0  0  0  0  0  0  0  0  0
   -2.6249    0.5768   -0.0014 C   0  0  0  0  0  0  0  0  0  0  0  0
   -3.1963   -0.5124   -0.6762 C   0  0  0  0  0  0  0  0  0  0  0  0
   -4.5388   -0.5231   -0.8804 O   0  0  0  0  0  0  0  0  0  0  0  0
   -2.3947   -1.5506   -1.1201 C   0  0  0  0  0  0  0  0  0  0  0  0
   -1.0327   -1.5179   -0.9002 C   0  0  0  0  0  0  0  0  0  0  0  0
   -0.4494   -0.4392   -0.2288 C   0  0  0  0  0  0  0  0  0  0  0  0
   -1.2514    0.6184    0.2236 C   0  0  0  0  0  0  0  0  0  0  0  0
   -0.6948    1.6707    0.8763 O   0  0  0  0  0  0  0  0  0  0  0  0
    1.0050   -0.4131    0.0019 C   0  0  0  0  0  0  0  0  0  0  0  0
    1.7927    0.3977   -0.7349 C   0  0  0  0  0  0  0  0  0  0  0  0
    3.2434    0.3767   -0.4718 C   0  0  0  0  0  0  0  0  0  0  0  0
    3.7756   -0.7007    0.2554 C   0  0  0  0  0  0  0  0  0  0  0  0
    5.1307   -0.7475    0.5174 C   0  0  0  0  0  0  0  0  0  0  0  0
    5.9577    0.2701    0.0604 C   0  0  0  0  0  0  0  0  0  0  0  0
    5.4313    1.3362   -0.6589 C   0  0  0  0  0  0  0  0  0  0  0  0
    4.0788    1.3941   -0.9267 C   0  0  0  0  0  0  0  0  0  0  0  0
    7.2907    0.2233    0.3187 O   0  0  0  0  0  0  0  0  0  0  0  0
    2.9398   -1.6793    0.6872 O   0  0  0  0  0  0  0  0  0  0  0  0
    1.6168   -1.2870    1.0654 C   0  0  0  0  0  0  0  0  0  0  0  0
   -6.7826    0.2205   -0.3992 C   0  0  0  0  0  0  0  0  0  0  0  0
   -6.0056   -0.3965    2.1306 H   0  0  0  0  0  0  0  0  0  0  0  0
   -5.7533   -1.8180    1.0896 H   0  0  0  0  0  0  0  0  0  0  0  0
   -4.3536   -0.9386    1.7496 H   0  0  0  0  0  0  0  0  0  0  0  0
   -5.5007    2.2005    0.8360 H   0  0  0  0  0  0  0  0  0  0  0  0
   -3.1135    2.6288    0.7377 H   0  0  0  0  0  0  0  0  0  0  0  0
   -2.8365   -2.3882   -1.6393 H   0  0  0  0  0  0  0  0  0  0  0  0
   -0.4134   -2.3312   -1.2487 H   0  0  0  0  0  0  0  0  0  0  0  0
   -0.4184    2.3924    0.2950 H   0  0  0  0  0  0  0  0  0  0  0  0
    1.3736    1.0418   -1.4939 H   0  0  0  0  0  0  0  0  0  0  0  0
    5.5460   -1.5729    1.0765 H   0  0  0  0  0  0  0  0  0  0  0  0
    6.0832    2.1226   -1.0097 H   0  0  0  0  0  0  0  0  0  0  0  0
    3.6706    2.2231   -1.4857 H   0  0  0  0  0  0  0  0  0  0  0  0
    7.8068   -0.2342   -0.3592 H   0  0  0  0  0  0  0  0  0  0  0  0
    1.6591   -0.7415    2.0081 H   0  0  0  0  0  0  0  0  0  0  0  0
    1.0004   -2.1769    1.1928 H   0  0  0  0  0  0  0  0  0  0  0  0
   -7.4116    0.6636    0.3729 H   0  0  0  0  0  0  0  0  0  0  0  0
   -6.7777    0.8651   -1.2781 H   0  0  0  0  0  0  0  0  0  0  0  0
   -7.1755   -0.7597   -0.6696 H   0  0  0  0  0  0  0  0  0  0  0  0
  1  2  1  0  0  0  0
  2  3  1  0  0  0  0
  3  4  2  0  0  0  0
  4  5  1  0  0  0  0
  5  6  2  0  0  0  0
  6  7  1  0  0  0  0
  2  7  1  0  0  0  0
  6  8  1  0  0  0  0
  8  9  2  0  0  0  0
  9 10  1  0  0  0  0
 10 11  2  0  0  0  0
  5 11  1  0  0  0  0
 11 12  1  0  0  0  0
 10 13  1  0  0  0  0
 13 14  2  0  0  0  0
 14 15  1  0  0  0  0
 15 16  2  0  0  0  0
 16 17  1  0  0  0  0
 17 18  2  0  0  0  0
 18 19  1  0  0  0  0
 19 20  2  0  0  0  0
 15 20  1  0  0  0  0
 18 21  1  0  0  0  0
 16 22  1  0  0  0  0
 22 23  1  0  0  0  0
 13 23  1  0  0  0  0
  2 24  1  0  0  0  0
  1 25  1  0  0  0  0
  1 26  1  0  0  0  0
  1 27  1  0  0  0  0
  3 28  1  0  0  0  0
  4 29  1  0  0  0  0
  8 30  1  0  0  0  0
  9 31  1  0  0  0  0
 12 32  1  0  0  0  0
 14 33  1  0  0  0  0
 17 34  1  0  0  0  0
 19 35  1  0  0  0  0
 20 36  1  0  0  0  0
 21 37  1  0  0  0  0
 23 38  1  0  0  0  0
 23 39  1  0  0  0  0
 24 40  1  0  0  0  0
 24 41  1  0  0  0  0
 24 42  1  0  0  0  0
M  END
$$$$
