C17H14O8
APtclcactv06281816593D 0   0.00000     0.00000
 
 39 41  0  0  0  0  0  0  0  0999 V2000
    3.7771    3.6300   -0.4468 C   0  0  0  0  0  0  0  0  0  0  0  0
    4.2979    2.3003   -0.3941 O   0  0  0  0  0  0  0  0  0  0  0  0
    3.3981    1.2899   -0.2739 C   0  0  0  0  0  0  0  0  0  0  0  0
    3.8445   -0.0292   -0.2173 C   0  0  0  0  0  0  0  0  0  0  0  0
    2.9339   -1.0661   -0.0947 C   0  0  0  0  0  0  0  0  0  0  0  0
    1.5652   -0.7772   -0.0285 C   0  0  0  0  0  0  0  0  0  0  0  0
    1.1190    0.5552   -0.0859 C   0  0  0  0  0  0  0  0  0  0  0  0
    2.0450    1.5804   -0.2030 C   0  0  0  0  0  0  0  0  0  0  0  0
   -0.2026    0.8241   -0.0221 O   0  0  0  0  0  0  0  0  0  0  0  0
   -1.1277   -0.1435    0.0960 C   0  0  0  0  0  0  0  0  0  0  0  0
   -0.7997   -1.4646    0.1604 C   0  0  0  0  0  0  0  0  0  0  0  0
    0.5647   -1.8487    0.1013 C   0  0  0  0  0  0  0  0  0  0  0  0
    0.8960   -3.0224    0.1561 O   0  0  0  0  0  0  0  0  0  0  0  0
   -1.7732   -2.4079    0.2808 O   0  0  0  0  0  0  0  0  0  0  0  0
   -2.5505    0.2385    0.1586 C   0  0  0  0  0  0  0  0  0  0  0  0
   -3.4897   -0.4245   -0.6365 C   0  0  0  0  0  0  0  0  0  0  0  0
   -4.8218   -0.0628   -0.5734 C   0  0  0  0  0  0  0  0  0  0  0  0
   -5.2262    0.9612    0.2811 C   0  0  0  0  0  0  0  0  0  0  0  0
   -4.2939    1.6201    1.0703 C   0  0  0  0  0  0  0  0  0  0  0  0
   -2.9643    1.2606    1.0175 C   0  0  0  0  0  0  0  0  0  0  0  0
   -6.5366    1.3158    0.3413 O   0  0  0  0  0  0  0  0  0  0  0  0
   -5.7382   -0.7058   -1.3456 O   0  0  0  0  0  0  0  0  0  0  0  0
    3.3652   -2.3530   -0.0397 O   0  0  0  0  0  0  0  0  0  0  0  0
    5.1774   -0.2991   -0.2830 O   0  0  0  0  0  0  0  0  0  0  0  0
    5.8915   -0.3466    0.9539 C   0  0  0  0  0  0  0  0  0  0  0  0
    3.1124    3.7261   -1.3053 H   0  0  0  0  0  0  0  0  0  0  0  0
    3.2222    3.8393    0.4677 H   0  0  0  0  0  0  0  0  0  0  0  0
    4.5996    4.3388   -0.5430 H   0  0  0  0  0  0  0  0  0  0  0  0
    1.7108    2.6065   -0.2474 H   0  0  0  0  0  0  0  0  0  0  0  0
   -1.4396   -3.3148    0.3183 H   0  0  0  0  0  0  0  0  0  0  0  0
   -3.1748   -1.2174   -1.2987 H   0  0  0  0  0  0  0  0  0  0  0  0
   -4.6117    2.4133    1.7308 H   0  0  0  0  0  0  0  0  0  0  0  0
   -2.2410    1.7747    1.6330 H   0  0  0  0  0  0  0  0  0  0  0  0
   -7.0458    0.8289    1.0037 H   0  0  0  0  0  0  0  0  0  0  0  0
   -6.1328   -1.4814   -0.9241 H   0  0  0  0  0  0  0  0  0  0  0  0
    3.5448   -2.6696    0.8562 H   0  0  0  0  0  0  0  0  0  0  0  0
    5.8123    0.6174    1.4563 H   0  0  0  0  0  0  0  0  0  0  0  0
    5.4663   -1.1235    1.5893 H   0  0  0  0  0  0  0  0  0  0  0  0
    6.9405   -0.5700    0.7595 H   0  0  0  0  0  0  0  0  0  0  0  0
  1  2  1  0  0  0  0
  2  3  1  0  0  0  0
  3  4  2  0  0  0  0
  4  5  1  0  0  0  0
  5  6  2  0  0  0  0
  6  7  1  0  0  0  0
  7  8  2  0  0  0  0
  3  8  1  0  0  0  0
  7  9  1  0  0  0  0
  9 10  1  0  0  0  0
 10 11  2  0  0  0  0
 11 12  1  0  0  0  0
  6 12  1  0  0  0  0
 12 13  2  0  0  0  0
 11 14  1  0  0  0  0
 10 15  1  0  0  0  0
 15 16  2  0  0  0  0
 16 17  1  0  0  0  0
 17 18  2  0  0  0  0
 18 19  1  0  0  0  0
 19 20  2  0  0  0  0
 15 20  1  0  0  0  0
 18 21  1  0  0  0  0
 17 22  1  0  0  0  0
  5 23  1  0  0  0  0
  4 24  1  0  0  0  0
 24 25  1  0  0  0  0
  1 26  1  0  0  0  0
  1 27  1  0  0  0  0
  1 28  1  0  0  0  0
  8 29  1  0  0  0  0
 14 30  1  0  0  0  0
 16 31  1  0  0  0  0
 19 32  1  0  0  0  0
 20 33  1  0  0  0  0
 21 34  1  0  0  0  0
 22 35  1  0  0  0  0
 23 36  1  0  0  0  0
 25 37  1  0  0  0  0
 25 38  1  0  0  0  0
 25 39  1  0  0  0  0
M  END
$$$$
