C21H18O6
APtclcactv06281817003D 0   0.00000     0.00000
 
 45 48  0  0  0  0  0  0  0  0999 V2000
    4.0519   -3.6079   -0.5636 C   0  0  0  0  0  0  0  0  0  0  0  0
    4.3729   -2.7051    0.5995 C   0  0  0  0  0  0  0  0  0  0  0  0
    4.3003   -1.4047    0.4589 C   0  0  0  0  0  0  0  0  0  0  0  0
    3.7845   -0.8136   -0.8279 C   0  0  0  0  0  0  0  0  0  0  0  0
    2.6598    0.1429   -0.5260 C   0  0  0  0  0  0  0  0  0  0  0  0
    2.9350    1.4851   -0.2906 C   0  0  0  0  0  0  0  0  0  0  0  0
    1.9113    2.3774   -0.0116 C   0  0  0  0  0  0  0  0  0  0  0  0
    0.5974    1.9375    0.0350 C   0  0  0  0  0  0  0  0  0  0  0  0
    0.3152    0.5806   -0.2029 C   0  0  0  0  0  0  0  0  0  0  0  0
    1.3561   -0.3148   -0.4893 C   0  0  0  0  0  0  0  0  0  0  0  0
    1.0858   -1.6249   -0.7194 O   0  0  0  0  0  0  0  0  0  0  0  0
   -1.0779    0.1256   -0.1509 C   0  0  0  0  0  0  0  0  0  0  0  0
   -2.0573    1.0748    0.1350 C   0  0  0  0  0  0  0  0  0  0  0  0
   -3.3355    0.3442    0.1221 C   0  0  0  0  0  0  0  0  0  0  0  0
   -3.0053   -0.9878   -0.1726 C   0  0  0  0  0  0  0  0  0  0  0  0
   -1.6650   -1.0681   -0.3251 O   0  0  0  0  0  0  0  0  0  0  0  0
   -4.0169   -1.9358   -0.2545 C   0  0  0  0  0  0  0  0  0  0  0  0
   -5.3332   -1.5638   -0.0466 C   0  0  0  0  0  0  0  0  0  0  0  0
   -5.6558   -0.2424    0.2448 C   0  0  0  0  0  0  0  0  0  0  0  0
   -4.6630    0.7091    0.3295 C   0  0  0  0  0  0  0  0  0  0  0  0
   -6.3186   -2.4965   -0.1281 O   0  0  0  0  0  0  0  0  0  0  0  0
   -1.6874    2.4167    0.3608 C   0  0  0  0  0  0  0  0  0  0  0  0
   -2.5497    3.2396    0.6103 O   0  0  0  0  0  0  0  0  0  0  0  0
   -0.4024    2.8050    0.3072 O   0  0  0  0  0  0  0  0  0  0  0  0
    4.2185    1.9262   -0.3339 O   0  0  0  0  0  0  0  0  0  0  0  0
    4.4356    3.3162   -0.0833 C   0  0  0  0  0  0  0  0  0  0  0  0
    4.7775   -3.2982    1.9245 C   0  0  0  0  0  0  0  0  0  0  0  0
    4.6711   -3.3340   -1.4178 H   0  0  0  0  0  0  0  0  0  0  0  0
    4.2525   -4.6428   -0.2864 H   0  0  0  0  0  0  0  0  0  0  0  0
    2.9999   -3.4999   -0.8278 H   0  0  0  0  0  0  0  0  0  0  0  0
    4.6100   -0.7562    1.2650 H   0  0  0  0  0  0  0  0  0  0  0  0
    4.5905   -0.2796   -1.3312 H   0  0  0  0  0  0  0  0  0  0  0  0
    3.4189   -1.6120   -1.4736 H   0  0  0  0  0  0  0  0  0  0  0  0
    2.1379    3.4176    0.1701 H   0  0  0  0  0  0  0  0  0  0  0  0
    0.9166   -1.8344   -1.6482 H   0  0  0  0  0  0  0  0  0  0  0  0
   -3.7760   -2.9640   -0.4809 H   0  0  0  0  0  0  0  0  0  0  0  0
   -6.6864    0.0381    0.4047 H   0  0  0  0  0  0  0  0  0  0  0  0
   -4.9138    1.7349    0.5558 H   0  0  0  0  0  0  0  0  0  0  0  0
   -6.5153   -2.9353    0.7109 H   0  0  0  0  0  0  0  0  0  0  0  0
    3.8976    3.9074   -0.8243 H   0  0  0  0  0  0  0  0  0  0  0  0
    4.0734    3.5665    0.9138 H   0  0  0  0  0  0  0  0  0  0  0  0
    5.5014    3.5349   -0.1482 H   0  0  0  0  0  0  0  0  0  0  0  0
    5.8606   -3.4175    1.9536 H   0  0  0  0  0  0  0  0  0  0  0  0
    4.4633   -2.6351    2.7305 H   0  0  0  0  0  0  0  0  0  0  0  0
    4.3014   -4.2709    2.0477 H   0  0  0  0  0  0  0  0  0  0  0  0
  1  2  1  0  0  0  0
  2  3  2  0  0  0  0
  3  4  1  0  0  0  0
  4  5  1  0  0  0  0
  5  6  2  0  0  0  0
  6  7  1  0  0  0  0
  7  8  2  0  0  0  0
  8  9  1  0  0  0  0
  9 10  2  0  0  0  0
  5 10  1  0  0  0  0
 10 11  1  0  0  0  0
  9 12  1  0  0  0  0
 12 13  2  0  0  0  0
 13 14  1  0  0  0  0
 14 15  2  0  0  0  0
 15 16  1  0  0  0  0
 12 16  1  0  0  0  0
 15 17  1  0  0  0  0
 17 18  2  0  0  0  0
 18 19  1  0  0  0  0
 19 20  2  0  0  0  0
 14 20  1  0  0  0  0
 18 21  1  0  0  0  0
 13 22  1  0  0  0  0
 22 23  2  0  0  0  0
 22 24  1  0  0  0  0
  8 24  1  0  0  0  0
  6 25  1  0  0  0  0
 25 26  1  0  0  0  0
  2 27  1  0  0  0  0
  1 28  1  0  0  0  0
  1 29  1  0  0  0  0
  1 30  1  0  0  0  0
  3 31  1  0  0  0  0
  4 32  1  0  0  0  0
  4 33  1  0  0  0  0
  7 34  1  0  0  0  0
 11 35  1  0  0  0  0
 17 36  1  0  0  0  0
 19 37  1  0  0  0  0
 20 38  1  0  0  0  0
 21 39  1  0  0  0  0
 26 40  1  0  0  0  0
 26 41  1  0  0  0  0
 26 42  1  0  0  0  0
 27 43  1  0  0  0  0
 27 44  1  0  0  0  0
 27 45  1  0  0  0  0
M  END
$$$$
