C20H16O5
APtclcactv06281817003D 0   0.00000     0.00000
 
 41 44  0  0  0  0  0  0  0  0999 V2000
   -5.0914    1.4340   -1.2942 C   0  0  0  0  0  0  0  0  0  0  0  0
   -5.3317    0.1737   -0.4606 C   0  0  0  0  0  0  0  0  0  0  0  0
   -4.8159   -1.0248   -1.2125 C   0  0  0  0  0  0  0  0  0  0  0  0
   -3.5502   -1.4107   -1.0630 C   0  0  0  0  0  0  0  0  0  0  0  0
   -2.6924   -0.6392   -0.1386 C   0  0  0  0  0  0  0  0  0  0  0  0
   -3.3078    0.2179    0.7854 C   0  0  0  0  0  0  0  0  0  0  0  0
   -4.6631    0.3046    0.7945 O   0  0  0  0  0  0  0  0  0  0  0  0
   -2.5352    0.9551    1.6651 C   0  0  0  0  0  0  0  0  0  0  0  0
   -1.1581    0.8480    1.6352 C   0  0  0  0  0  0  0  0  0  0  0  0
   -0.5347   -0.0004    0.7217 C   0  0  0  0  0  0  0  0  0  0  0  0
   -1.3042   -0.7507   -0.1723 C   0  0  0  0  0  0  0  0  0  0  0  0
   -0.7043   -1.5799   -1.0652 O   0  0  0  0  0  0  0  0  0  0  0  0
    0.9446   -0.1073    0.6985 C   0  0  0  0  0  0  0  0  0  0  0  0
    1.5745   -1.1971    1.2088 C   0  0  0  0  0  0  0  0  0  0  0  0
    2.9011   -1.3299    1.2264 O   0  0  0  0  0  0  0  0  0  0  0  0
    3.6930   -0.5495    0.4674 C   0  0  0  0  0  0  0  0  0  0  0  0
    3.1914    0.6289   -0.1129 C   0  0  0  0  0  0  0  0  0  0  0  0
    1.7741    0.9645    0.1148 C   0  0  0  0  0  0  0  0  0  0  0  0
    1.3170    2.0623   -0.1534 O   0  0  0  0  0  0  0  0  0  0  0  0
    4.0152    1.4441   -0.8888 C   0  0  0  0  0  0  0  0  0  0  0  0
    5.3187    1.0906   -1.0926 C   0  0  0  0  0  0  0  0  0  0  0  0
    5.8254   -0.0788   -0.5289 C   0  0  0  0  0  0  0  0  0  0  0  0
    5.0207   -0.8953    0.2466 C   0  0  0  0  0  0  0  0  0  0  0  0
    7.1217   -0.4205   -0.7424 O   0  0  0  0  0  0  0  0  0  0  0  0
   -6.8331    0.0087   -0.2169 C   0  0  0  0  0  0  0  0  0  0  0  0
   -5.6162    1.3460   -2.2455 H   0  0  0  0  0  0  0  0  0  0  0  0
   -5.4635    2.3040   -0.7531 H   0  0  0  0  0  0  0  0  0  0  0  0
   -4.0232    1.5500   -1.4779 H   0  0  0  0  0  0  0  0  0  0  0  0
   -5.4727   -1.5717   -1.8727 H   0  0  0  0  0  0  0  0  0  0  0  0
   -3.1616   -2.2623   -1.6017 H   0  0  0  0  0  0  0  0  0  0  0  0
   -3.0094    1.6150    2.3764 H   0  0  0  0  0  0  0  0  0  0  0  0
   -0.5603    1.4260    2.3245 H   0  0  0  0  0  0  0  0  0  0  0  0
   -0.5690   -2.4794   -0.7372 H   0  0  0  0  0  0  0  0  0  0  0  0
    0.9723   -1.9937    1.6201 H   0  0  0  0  0  0  0  0  0  0  0  0
    3.6241    2.3506   -1.3267 H   0  0  0  0  0  0  0  0  0  0  0  0
    5.9590    1.7195   -1.6933 H   0  0  0  0  0  0  0  0  0  0  0  0
    5.4239   -1.7987    0.6796 H   0  0  0  0  0  0  0  0  0  0  0  0
    7.7350   -0.0687   -0.0828 H   0  0  0  0  0  0  0  0  0  0  0  0
   -7.3486   -0.0819   -1.1730 H   0  0  0  0  0  0  0  0  0  0  0  0
   -7.0084   -0.8884    0.3768 H   0  0  0  0  0  0  0  0  0  0  0  0
   -7.2120    0.8789    0.3191 H   0  0  0  0  0  0  0  0  0  0  0  0
  1  2  1  0  0  0  0
  2  3  1  0  0  0  0
  3  4  2  0  0  0  0
  4  5  1  0  0  0  0
  5  6  2  0  0  0  0
  6  7  1  0  0  0  0
  2  7  1  0  0  0  0
  6  8  1  0  0  0  0
  8  9  2  0  0  0  0
  9 10  1  0  0  0  0
 10 11  2  0  0  0  0
  5 11  1  0  0  0  0
 11 12  1  0  0  0  0
 10 13  1  0  0  0  0
 13 14  2  0  0  0  0
 14 15  1  0  0  0  0
 15 16  1  0  0  0  0
 16 17  2  0  0  0  0
 17 18  1  0  0  0  0
 13 18  1  0  0  0  0
 18 19  2  0  0  0  0
 17 20  1  0  0  0  0
 20 21  2  0  0  0  0
 21 22  1  0  0  0  0
 22 23  2  0  0  0  0
 16 23  1  0  0  0  0
 22 24  1  0  0  0  0
  2 25  1  0  0  0  0
  1 26  1  0  0  0  0
  1 27  1  0  0  0  0
  1 28  1  0  0  0  0
  3 29  1  0  0  0  0
  4 30  1  0  0  0  0
  8 31  1  0  0  0  0
  9 32  1  0  0  0  0
 12 33  1  0  0  0  0
 14 34  1  0  0  0  0
 20 35  1  0  0  0  0
 21 36  1  0  0  0  0
 23 37  1  0  0  0  0
 24 38  1  0  0  0  0
 25 39  1  0  0  0  0
 25 40  1  0  0  0  0
 25 41  1  0  0  0  0
M  END
$$$$
