C20H22O4
APtclcactv06281817003D 0   0.00000     0.00000
 
 46 47  0  0  0  0  0  0  0  0999 V2000
    5.7960   -2.5508    1.7996 C   0  0  0  0  0  0  0  0  0  0  0  0
    6.4940   -1.9876    0.6870 O   0  0  0  0  0  0  0  0  0  0  0  0
    5.9513   -0.8799    0.1143 C   0  0  0  0  0  0  0  0  0  0  0  0
    6.5780   -0.2792   -0.9732 C   0  0  0  0  0  0  0  0  0  0  0  0
    6.0211    0.8493   -1.5533 C   0  0  0  0  0  0  0  0  0  0  0  0
    4.8455    1.3759   -1.0515 C   0  0  0  0  0  0  0  0  0  0  0  0
    4.2232    0.7792    0.0293 C   0  0  0  0  0  0  0  0  0  0  0  0
    4.7702   -0.3504    0.6088 C   0  0  0  0  0  0  0  0  0  0  0  0
    2.9421    1.3577    0.5726 C   0  0  0  0  0  0  0  0  0  0  0  0
    1.7501    0.7175   -0.1417 C   0  0  0  0  0  0  0  0  0  0  0  0
    0.4690    1.2960    0.4016 C   0  0  0  0  0  0  0  0  0  0  0  0
    0.5057    2.1377    1.2746 O   0  0  0  0  0  0  0  0  0  0  0  0
   -0.8186    0.8426   -0.1234 C   0  0  0  0  0  0  0  0  0  0  0  0
   -1.9532    1.3549    0.3577 C   0  0  0  0  0  0  0  0  0  0  0  0
   -3.2799    0.8878   -0.1833 C   0  0  0  0  0  0  0  0  0  0  0  0
   -4.1560    0.3950    0.9702 C   0  0  0  0  0  0  0  0  0  0  0  0
   -5.4828   -0.0721    0.4292 C   0  0  0  0  0  0  0  0  0  0  0  0
   -5.6465   -1.3906    0.0466 C   0  0  0  0  0  0  0  0  0  0  0  0
   -6.8617   -1.8213   -0.4496 C   0  0  0  0  0  0  0  0  0  0  0  0
   -7.9182   -0.9295   -0.5639 C   0  0  0  0  0  0  0  0  0  0  0  0
   -7.7514    0.3930   -0.1794 C   0  0  0  0  0  0  0  0  0  0  0  0
   -6.5359    0.8173    0.3215 C   0  0  0  0  0  0  0  0  0  0  0  0
   -9.1145   -1.3506   -1.0522 O   0  0  0  0  0  0  0  0  0  0  0  0
    7.7346   -0.7981   -1.4654 O   0  0  0  0  0  0  0  0  0  0  0  0
    5.7282   -1.8116    2.5979 H   0  0  0  0  0  0  0  0  0  0  0  0
    4.7930   -2.8432    1.4891 H   0  0  0  0  0  0  0  0  0  0  0  0
    6.3345   -3.4270    2.1606 H   0  0  0  0  0  0  0  0  0  0  0  0
    6.5057    1.3177   -2.3972 H   0  0  0  0  0  0  0  0  0  0  0  0
    4.4125    2.2555   -1.5045 H   0  0  0  0  0  0  0  0  0  0  0  0
    4.2820   -0.8146    1.4529 H   0  0  0  0  0  0  0  0  0  0  0  0
    2.8766    1.1551    1.6416 H   0  0  0  0  0  0  0  0  0  0  0  0
    2.9301    2.4347    0.4055 H   0  0  0  0  0  0  0  0  0  0  0  0
    1.8156    0.9201   -1.2107 H   0  0  0  0  0  0  0  0  0  0  0  0
    1.7620   -0.3595    0.0254 H   0  0  0  0  0  0  0  0  0  0  0  0
   -0.8513    0.0933   -0.9005 H   0  0  0  0  0  0  0  0  0  0  0  0
   -1.9205    2.1042    1.1348 H   0  0  0  0  0  0  0  0  0  0  0  0
   -3.7773    1.7150   -0.6897 H   0  0  0  0  0  0  0  0  0  0  0  0
   -3.1179    0.0739   -0.8899 H   0  0  0  0  0  0  0  0  0  0  0  0
   -3.6586   -0.4321    1.4766 H   0  0  0  0  0  0  0  0  0  0  0  0
   -4.3181    1.2090    1.6768 H   0  0  0  0  0  0  0  0  0  0  0  0
   -4.8236   -2.0844    0.1355 H   0  0  0  0  0  0  0  0  0  0  0  0
   -6.9890   -2.8512   -0.7486 H   0  0  0  0  0  0  0  0  0  0  0  0
   -8.5724    1.0891   -0.2675 H   0  0  0  0  0  0  0  0  0  0  0  0
   -6.4055    1.8468    0.6210 H   0  0  0  0  0  0  0  0  0  0  0  0
   -9.7226   -1.6777   -0.3752 H   0  0  0  0  0  0  0  0  0  0  0  0
    7.6052   -1.4604   -2.1580 H   0  0  0  0  0  0  0  0  0  0  0  0
  1  2  1  0  0  0  0
  2  3  1  0  0  0  0
  3  4  2  0  0  0  0
  4  5  1  0  0  0  0
  5  6  2  0  0  0  0
  6  7  1  0  0  0  0
  7  8  2  0  0  0  0
  3  8  1  0  0  0  0
  7  9  1  0  0  0  0
  9 10  1  0  0  0  0
 10 11  1  0  0  0  0
 11 12  2  0  0  0  0
 11 13  1  0  0  0  0
 13 14  2  0  0  0  0
 14 15  1  0  0  0  0
 15 16  1  0  0  0  0
 16 17  1  0  0  0  0
 17 18  2  0  0  0  0
 18 19  1  0  0  0  0
 19 20  2  0  0  0  0
 20 21  1  0  0  0  0
 21 22  2  0  0  0  0
 17 22  1  0  0  0  0
 20 23  1  0  0  0  0
  4 24  1  0  0  0  0
  1 25  1  0  0  0  0
  1 26  1  0  0  0  0
  1 27  1  0  0  0  0
  5 28  1  0  0  0  0
  6 29  1  0  0  0  0
  8 30  1  0  0  0  0
  9 31  1  0  0  0  0
  9 32  1  0  0  0  0
 10 33  1  0  0  0  0
 10 34  1  0  0  0  0
 13 35  1  0  0  0  0
 14 36  1  0  0  0  0
 15 37  1  0  0  0  0
 15 38  1  0  0  0  0
 16 39  1  0  0  0  0
 16 40  1  0  0  0  0
 18 41  1  0  0  0  0
 19 42  1  0  0  0  0
 21 43  1  0  0  0  0
 22 44  1  0  0  0  0
 23 45  1  0  0  0  0
 24 46  1  0  0  0  0
M  END
$$$$
