C16H12O8
APtclcactv06281817003D 0   0.00000     0.00000
 
 36 38  0  0  0  0  0  0  0  0999 V2000
    6.0797    1.6546   -0.2655 C   0  0  0  0  0  0  0  0  0  0  0  0
    4.7109    2.0647   -0.2444 O   0  0  0  0  0  0  0  0  0  0  0  0
    3.7753    1.0855   -0.1362 C   0  0  0  0  0  0  0  0  0  0  0  0
    2.4281    1.4213   -0.1103 C   0  0  0  0  0  0  0  0  0  0  0  0
    1.4662    0.4244    0.0002 C   0  0  0  0  0  0  0  0  0  0  0  0
    1.8715   -0.9190    0.0850 C   0  0  0  0  0  0  0  0  0  0  0  0
    3.2329   -1.2481    0.0585 C   0  0  0  0  0  0  0  0  0  0  0  0
    4.1754   -0.2439   -0.0580 C   0  0  0  0  0  0  0  0  0  0  0  0
    3.6239   -2.5460    0.1403 O   0  0  0  0  0  0  0  0  0  0  0  0
    0.8371   -1.9594    0.2016 C   0  0  0  0  0  0  0  0  0  0  0  0
    1.1323   -3.1413    0.2788 O   0  0  0  0  0  0  0  0  0  0  0  0
   -0.5167   -1.5351    0.2213 C   0  0  0  0  0  0  0  0  0  0  0  0
   -0.8041   -0.2059    0.1331 C   0  0  0  0  0  0  0  0  0  0  0  0
    0.1519    0.7328    0.0273 O   0  0  0  0  0  0  0  0  0  0  0  0
   -2.2162    0.2180    0.1545 C   0  0  0  0  0  0  0  0  0  0  0  0
   -3.1538   -0.4272   -0.6569 C   0  0  0  0  0  0  0  0  0  0  0  0
   -4.4759   -0.0261   -0.6326 C   0  0  0  0  0  0  0  0  0  0  0  0
   -4.8719    1.0194    0.1996 C   0  0  0  0  0  0  0  0  0  0  0  0
   -3.9410    1.6606    1.0050 C   0  0  0  0  0  0  0  0  0  0  0  0
   -2.6215    1.2623    0.9904 C   0  0  0  0  0  0  0  0  0  0  0  0
   -6.1724    1.4123    0.2221 O   0  0  0  0  0  0  0  0  0  0  0  0
   -5.3907   -0.6514   -1.4210 O   0  0  0  0  0  0  0  0  0  0  0  0
   -1.5202   -2.4483    0.3269 O   0  0  0  0  0  0  0  0  0  0  0  0
    2.0498    2.7268   -0.1928 O   0  0  0  0  0  0  0  0  0  0  0  0
    6.7204    2.5318   -0.3550 H   0  0  0  0  0  0  0  0  0  0  0  0
    6.3148    1.1256    0.6581 H   0  0  0  0  0  0  0  0  0  0  0  0
    6.2478    0.9936   -1.1157 H   0  0  0  0  0  0  0  0  0  0  0  0
    5.2263   -0.4919   -0.0793 H   0  0  0  0  0  0  0  0  0  0  0  0
    3.7041   -2.9874   -0.7163 H   0  0  0  0  0  0  0  0  0  0  0  0
   -2.8456   -1.2370   -1.3016 H   0  0  0  0  0  0  0  0  0  0  0  0
   -4.2522    2.4705    1.6481 H   0  0  0  0  0  0  0  0  0  0  0  0
   -1.8994    1.7627    1.6185 H   0  0  0  0  0  0  0  0  0  0  0  0
   -6.7122    0.9483    0.8767 H   0  0  0  0  0  0  0  0  0  0  0  0
   -5.8186   -1.4101   -1.0012 H   0  0  0  0  0  0  0  0  0  0  0  0
   -1.2144   -3.3639    0.3832 H   0  0  0  0  0  0  0  0  0  0  0  0
    1.9074    3.0387   -1.0969 H   0  0  0  0  0  0  0  0  0  0  0  0
  1  2  1  0  0  0  0
  2  3  1  0  0  0  0
  3  4  2  0  0  0  0
  4  5  1  0  0  0  0
  5  6  2  0  0  0  0
  6  7  1  0  0  0  0
  7  8  2  0  0  0  0
  3  8  1  0  0  0  0
  7  9  1  0  0  0  0
  6 10  1  0  0  0  0
 10 11  2  0  0  0  0
 10 12  1  0  0  0  0
 12 13  2  0  0  0  0
 13 14  1  0  0  0  0
  5 14  1  0  0  0  0
 13 15  1  0  0  0  0
 15 16  2  0  0  0  0
 16 17  1  0  0  0  0
 17 18  2  0  0  0  0
 18 19  1  0  0  0  0
 19 20  2  0  0  0  0
 15 20  1  0  0  0  0
 18 21  1  0  0  0  0
 17 22  1  0  0  0  0
 12 23  1  0  0  0  0
  4 24  1  0  0  0  0
  1 25  1  0  0  0  0
  1 26  1  0  0  0  0
  1 27  1  0  0  0  0
  8 28  1  0  0  0  0
  9 29  1  0  0  0  0
 16 30  1  0  0  0  0
 19 31  1  0  0  0  0
 20 32  1  0  0  0  0
 21 33  1  0  0  0  0
 22 34  1  0  0  0  0
 23 35  1  0  0  0  0
 24 36  1  0  0  0  0
M  END
$$$$
