C21H20O6
APtclcactv06281817003D 0   0.00000     0.00000
 
 47 49  0  0  0  0  0  0  0  0999 V2000
    5.2733   -2.8670   -1.1024 C   0  0  0  0  0  0  0  0  0  0  0  0
    5.3175   -2.2995    0.2930 C   0  0  0  0  0  0  0  0  0  0  0  0
    5.1222   -1.0185    0.4856 C   0  0  0  0  0  0  0  0  0  0  0  0
    4.7300   -0.1340   -0.6698 C   0  0  0  0  0  0  0  0  0  0  0  0
    3.4743    0.6222   -0.3199 C   0  0  0  0  0  0  0  0  0  0  0  0
    3.5610    1.8643    0.2994 C   0  0  0  0  0  0  0  0  0  0  0  0
    2.4172    2.5759    0.6247 C   0  0  0  0  0  0  0  0  0  0  0  0
    1.1648    2.0525    0.3349 C   0  0  0  0  0  0  0  0  0  0  0  0
    1.0775    0.7916   -0.2828 C   0  0  0  0  0  0  0  0  0  0  0  0
    2.2367    0.0831   -0.6201 C   0  0  0  0  0  0  0  0  0  0  0  0
    2.1466   -1.1270   -1.2276 O   0  0  0  0  0  0  0  0  0  0  0  0
   -0.2629    0.2465   -0.5583 C   0  0  0  0  0  0  0  0  0  0  0  0
   -0.4327   -0.7219   -1.2793 O   0  0  0  0  0  0  0  0  0  0  0  0
   -1.3877    0.9459    0.0938 C   0  0  0  0  0  0  0  0  0  0  0  0
   -1.1463    2.1571    0.6581 C   0  0  0  0  0  0  0  0  0  0  0  0
    0.0498    2.7458    0.6344 O   0  0  0  0  0  0  0  0  0  0  0  0
   -2.7425    0.3431    0.1310 C   0  0  0  0  0  0  0  0  0  0  0  0
   -3.7976    0.9554   -0.5430 C   0  0  0  0  0  0  0  0  0  0  0  0
   -5.0596    0.3897   -0.5062 C   0  0  0  0  0  0  0  0  0  0  0  0
   -5.2733   -0.7890    0.2034 C   0  0  0  0  0  0  0  0  0  0  0  0
   -4.2231   -1.3971    0.8739 C   0  0  0  0  0  0  0  0  0  0  0  0
   -2.9611   -0.8395    0.8353 C   0  0  0  0  0  0  0  0  0  0  0  0
   -6.5141   -1.3446    0.2391 O   0  0  0  0  0  0  0  0  0  0  0  0
   -6.6622   -2.5540    0.9857 C   0  0  0  0  0  0  0  0  0  0  0  0
   -6.0913    0.9850   -1.1625 O   0  0  0  0  0  0  0  0  0  0  0  0
    4.7804    2.3856    0.5892 O   0  0  0  0  0  0  0  0  0  0  0  0
    5.5863   -3.2055    1.4668 C   0  0  0  0  0  0  0  0  0  0  0  0
    5.9763   -2.3270   -1.7366 H   0  0  0  0  0  0  0  0  0  0  0  0
    5.5457   -3.9220   -1.0743 H   0  0  0  0  0  0  0  0  0  0  0  0
    4.2660   -2.7624   -1.5054 H   0  0  0  0  0  0  0  0  0  0  0  0
    5.2422   -0.5963    1.4724 H   0  0  0  0  0  0  0  0  0  0  0  0
    5.5341    0.5725   -0.8758 H   0  0  0  0  0  0  0  0  0  0  0  0
    4.5505   -0.7477   -1.5526 H   0  0  0  0  0  0  0  0  0  0  0  0
    2.5005    3.5396    1.1050 H   0  0  0  0  0  0  0  0  0  0  0  0
    2.1325   -1.0821   -2.1935 H   0  0  0  0  0  0  0  0  0  0  0  0
   -1.9616    2.6677    1.1491 H   0  0  0  0  0  0  0  0  0  0  0  0
   -3.6304    1.8699   -1.0927 H   0  0  0  0  0  0  0  0  0  0  0  0
   -4.3921   -2.3110    1.4240 H   0  0  0  0  0  0  0  0  0  0  0  0
   -2.1445   -1.3153    1.3582 H   0  0  0  0  0  0  0  0  0  0  0  0
   -6.3918   -2.3740    2.0262 H   0  0  0  0  0  0  0  0  0  0  0  0
   -7.6979   -2.8894    0.9323 H   0  0  0  0  0  0  0  0  0  0  0  0
   -6.0099   -3.3209    0.5682 H   0  0  0  0  0  0  0  0  0  0  0  0
   -6.2002    0.6875   -2.0761 H   0  0  0  0  0  0  0  0  0  0  0  0
    5.1536    2.9297   -0.1178 H   0  0  0  0  0  0  0  0  0  0  0  0
    6.6598   -3.2550    1.6492 H   0  0  0  0  0  0  0  0  0  0  0  0
    5.0853   -2.8125    2.3514 H   0  0  0  0  0  0  0  0  0  0  0  0
    5.2084   -4.2044    1.2488 H   0  0  0  0  0  0  0  0  0  0  0  0
  1  2  1  0  0  0  0
  2  3  2  0  0  0  0
  3  4  1  0  0  0  0
  4  5  1  0  0  0  0
  5  6  2  0  0  0  0
  6  7  1  0  0  0  0
  7  8  2  0  0  0  0
  8  9  1  0  0  0  0
  9 10  2  0  0  0  0
  5 10  1  0  0  0  0
 10 11  1  0  0  0  0
  9 12  1  0  0  0  0
 12 13  2  0  0  0  0
 12 14  1  0  0  0  0
 14 15  2  0  0  0  0
 15 16  1  0  0  0  0
  8 16  1  0  0  0  0
 14 17  1  0  0  0  0
 17 18  2  0  0  0  0
 18 19  1  0  0  0  0
 19 20  2  0  0  0  0
 20 21  1  0  0  0  0
 21 22  2  0  0  0  0
 17 22  1  0  0  0  0
 20 23  1  0  0  0  0
 23 24  1  0  0  0  0
 19 25  1  0  0  0  0
  6 26  1  0  0  0  0
  2 27  1  0  0  0  0
  1 28  1  0  0  0  0
  1 29  1  0  0  0  0
  1 30  1  0  0  0  0
  3 31  1  0  0  0  0
  4 32  1  0  0  0  0
  4 33  1  0  0  0  0
  7 34  1  0  0  0  0
 11 35  1  0  0  0  0
 15 36  1  0  0  0  0
 18 37  1  0  0  0  0
 21 38  1  0  0  0  0
 22 39  1  0  0  0  0
 24 40  1  0  0  0  0
 24 41  1  0  0  0  0
 24 42  1  0  0  0  0
 25 43  1  0  0  0  0
 26 44  1  0  0  0  0
 27 45  1  0  0  0  0
 27 46  1  0  0  0  0
 27 47  1  0  0  0  0
M  END
$$$$
