C20H18O6
APtclcactv06281817003D 0   0.00000     0.00000
 
 44 46  0  0  0  0  0  0  0  0999 V2000
   -6.4961   -0.9868   -1.5125 C   0  0  0  0  0  0  0  0  0  0  0  0
   -5.8174   -1.7223   -0.3858 C   0  0  0  0  0  0  0  0  0  0  0  0
   -4.5098   -1.7410   -0.3095 C   0  0  0  0  0  0  0  0  0  0  0  0
   -3.6872   -0.9197   -1.2687 C   0  0  0  0  0  0  0  0  0  0  0  0
   -2.7477   -0.0329   -0.4928 C   0  0  0  0  0  0  0  0  0  0  0  0
   -3.2130    1.1473    0.0654 C   0  0  0  0  0  0  0  0  0  0  0  0
   -2.3478    1.9691    0.7835 C   0  0  0  0  0  0  0  0  0  0  0  0
   -1.0220    1.6077    0.9401 C   0  0  0  0  0  0  0  0  0  0  0  0
   -0.5549    0.4204    0.3783 C   0  0  0  0  0  0  0  0  0  0  0  0
   -1.4262   -0.4005   -0.3346 C   0  0  0  0  0  0  0  0  0  0  0  0
    0.8663    0.0293    0.5434 C   0  0  0  0  0  0  0  0  0  0  0  0
    1.2082   -1.0803    1.2475 C   0  0  0  0  0  0  0  0  0  0  0  0
    2.4717   -1.4618    1.4366 O   0  0  0  0  0  0  0  0  0  0  0  0
    3.4730   -0.9626    0.6870 C   0  0  0  0  0  0  0  0  0  0  0  0
    4.7103   -1.5907    0.6585 C   0  0  0  0  0  0  0  0  0  0  0  0
    5.7396   -1.0658   -0.1066 C   0  0  0  0  0  0  0  0  0  0  0  0
    5.5526    0.0931   -0.8522 C   0  0  0  0  0  0  0  0  0  0  0  0
    4.3269    0.7336   -0.8406 C   0  0  0  0  0  0  0  0  0  0  0  0
    3.2803    0.2025   -0.0776 C   0  0  0  0  0  0  0  0  0  0  0  0
    1.9498    0.8317   -0.0582 C   0  0  0  0  0  0  0  0  0  0  0  0
    1.7547    1.9484   -0.5069 O   0  0  0  0  0  0  0  0  0  0  0  0
    4.1402    1.8668   -1.5633 O   0  0  0  0  0  0  0  0  0  0  0  0
    6.9449   -1.6899   -0.1282 O   0  0  0  0  0  0  0  0  0  0  0  0
   -2.8064    3.1269    1.3300 O   0  0  0  0  0  0  0  0  0  0  0  0
   -4.5165    1.5035   -0.0887 O   0  0  0  0  0  0  0  0  0  0  0  0
   -6.6431   -2.4365    0.6531 C   0  0  0  0  0  0  0  0  0  0  0  0
   -6.1148   -1.3515   -2.4663 H   0  0  0  0  0  0  0  0  0  0  0  0
   -7.5715   -1.1572   -1.4620 H   0  0  0  0  0  0  0  0  0  0  0  0
   -6.2927    0.0805   -1.4242 H   0  0  0  0  0  0  0  0  0  0  0  0
   -4.0212   -2.3450    0.4407 H   0  0  0  0  0  0  0  0  0  0  0  0
   -3.1112   -1.5831   -1.9137 H   0  0  0  0  0  0  0  0  0  0  0  0
   -4.3480   -0.3035   -1.8785 H   0  0  0  0  0  0  0  0  0  0  0  0
   -0.3498    2.2442    1.4964 H   0  0  0  0  0  0  0  0  0  0  0  0
   -1.0660   -1.3206   -0.7705 H   0  0  0  0  0  0  0  0  0  0  0  0
    0.4196   -1.6820    1.6746 H   0  0  0  0  0  0  0  0  0  0  0  0
    4.8714   -2.4902    1.2340 H   0  0  0  0  0  0  0  0  0  0  0  0
    6.3651    0.4935   -1.4403 H   0  0  0  0  0  0  0  0  0  0  0  0
    3.8265    1.7112   -2.4647 H   0  0  0  0  0  0  0  0  0  0  0  0
    7.0300   -2.3568   -0.8232 H   0  0  0  0  0  0  0  0  0  0  0  0
   -3.1448    3.0297    2.2306 H   0  0  0  0  0  0  0  0  0  0  0  0
   -5.0994    1.1742    0.6091 H   0  0  0  0  0  0  0  0  0  0  0  0
   -6.8210   -3.4631    0.3330 H   0  0  0  0  0  0  0  0  0  0  0  0
   -6.1084   -2.4395    1.6029 H   0  0  0  0  0  0  0  0  0  0  0  0
   -7.5970   -1.9233    0.7748 H   0  0  0  0  0  0  0  0  0  0  0  0
  1  2  1  0  0  0  0
  2  3  2  0  0  0  0
  3  4  1  0  0  0  0
  4  5  1  0  0  0  0
  5  6  2  0  0  0  0
  6  7  1  0  0  0  0
  7  8  2  0  0  0  0
  8  9  1  0  0  0  0
  9 10  2  0  0  0  0
  5 10  1  0  0  0  0
  9 11  1  0  0  0  0
 11 12  2  0  0  0  0
 12 13  1  0  0  0  0
 13 14  1  0  0  0  0
 14 15  2  0  0  0  0
 15 16  1  0  0  0  0
 16 17  2  0  0  0  0
 17 18  1  0  0  0  0
 18 19  2  0  0  0  0
 14 19  1  0  0  0  0
 19 20  1  0  0  0  0
 11 20  1  0  0  0  0
 20 21  2  0  0  0  0
 18 22  1  0  0  0  0
 16 23  1  0  0  0  0
  7 24  1  0  0  0  0
  6 25  1  0  0  0  0
  2 26  1  0  0  0  0
  1 27  1  0  0  0  0
  1 28  1  0  0  0  0
  1 29  1  0  0  0  0
  3 30  1  0  0  0  0
  4 31  1  0  0  0  0
  4 32  1  0  0  0  0
  8 33  1  0  0  0  0
 10 34  1  0  0  0  0
 12 35  1  0  0  0  0
 15 36  1  0  0  0  0
 17 37  1  0  0  0  0
 22 38  1  0  0  0  0
 23 39  1  0  0  0  0
 24 40  1  0  0  0  0
 25 41  1  0  0  0  0
 26 42  1  0  0  0  0
 26 43  1  0  0  0  0
 26 44  1  0  0  0  0
M  END
$$$$
