C11H12O4
APtclcactv06281816593D 0   0.00000     0.00000
 
 27 27  0  0  0  0  0  0  0  0999 V2000
    6.1412    1.0484    0.0134 C   0  0  0  0  0  0  0  0  0  0  0  0
    5.1020   -0.0745    0.0085 C   0  0  0  0  0  0  0  0  0  0  0  0
    3.7897    0.4909    0.0046 O   0  0  0  0  0  0  0  0  0  0  0  0
    2.7514   -0.3708   -0.0000 C   0  0  0  0  0  0  0  0  0  0  0  0
    2.9561   -1.5699   -0.0007 O   0  0  0  0  0  0  0  0  0  0  0  0
    1.4217    0.1213   -0.0040 C   0  0  0  0  0  0  0  0  0  0  0  0
    0.3822   -0.7415   -0.0086 C   0  0  0  0  0  0  0  0  0  0  0  0
   -0.9960   -0.2314   -0.0128 C   0  0  0  0  0  0  0  0  0  0  0  0
   -2.0747   -1.1236   -0.0175 C   0  0  0  0  0  0  0  0  0  0  0  0
   -3.3674   -0.6382   -0.0209 C   0  0  0  0  0  0  0  0  0  0  0  0
   -3.5962    0.7374   -0.0201 C   0  0  0  0  0  0  0  0  0  0  0  0
   -2.5267    1.6233   -0.0158 C   0  0  0  0  0  0  0  0  0  0  0  0
   -1.2340    1.1479   -0.0061 C   0  0  0  0  0  0  0  0  0  0  0  0
   -4.8686    1.2121   -0.0239 O   0  0  0  0  0  0  0  0  0  0  0  0
   -4.4178   -1.5020   -0.0256 O   0  0  0  0  0  0  0  0  0  0  0  0
    6.0139    1.6651   -0.8763 H   0  0  0  0  0  0  0  0  0  0  0  0
    6.0078    1.6631    0.9036 H   0  0  0  0  0  0  0  0  0  0  0  0
    7.1422    0.6171    0.0163 H   0  0  0  0  0  0  0  0  0  0  0  0
    5.2355   -0.6891   -0.8818 H   0  0  0  0  0  0  0  0  0  0  0  0
    5.2293   -0.6912    0.8982 H   0  0  0  0  0  0  0  0  0  0  0  0
    1.2399    1.1859   -0.0034 H   0  0  0  0  0  0  0  0  0  0  0  0
    0.5640   -1.8061   -0.0092 H   0  0  0  0  0  0  0  0  0  0  0  0
   -1.8964   -2.1888   -0.0189 H   0  0  0  0  0  0  0  0  0  0  0  0
   -2.7092    2.6877   -0.0155 H   0  0  0  0  0  0  0  0  0  0  0  0
   -0.4043    1.8392   -0.0028 H   0  0  0  0  0  0  0  0  0  0  0  0
   -5.2402    1.3485    0.8584 H   0  0  0  0  0  0  0  0  0  0  0  0
   -4.7244   -1.7531    0.8565 H   0  0  0  0  0  0  0  0  0  0  0  0
  1  2  1  0  0  0  0
  2  3  1  0  0  0  0
  3  4  1  0  0  0  0
  4  5  2  0  0  0  0
  4  6  1  0  0  0  0
  6  7  2  0  0  0  0
  7  8  1  0  0  0  0
  8  9  2  0  0  0  0
  9 10  1  0  0  0  0
 10 11  2  0  0  0  0
 11 12  1  0  0  0  0
 12 13  2  0  0  0  0
  8 13  1  0  0  0  0
 11 14  1  0  0  0  0
 10 15  1  0  0  0  0
  1 16  1  0  0  0  0
  1 17  1  0  0  0  0
  1 18  1  0  0  0  0
  2 19  1  0  0  0  0
  2 20  1  0  0  0  0
  6 21  1  0  0  0  0
  7 22  1  0  0  0  0
  9 23  1  0  0  0  0
 12 24  1  0  0  0  0
 13 25  1  0  0  0  0
 14 26  1  0  0  0  0
 15 27  1  0  0  0  0
M  END
$$$$
