C21H32O4
APtclcactv06281817003D 0   0.00000     0.00000
 
 57 57  0  0  0  0  0  0  0  0999 V2000
   11.9390    1.4897   -0.2259 C   0  0  0  0  0  0  0  0  0  0  0  0
   10.8219    0.4513   -0.3465 C   0  0  0  0  0  0  0  0  0  0  0  0
    9.4734    1.1182   -0.0678 C   0  0  0  0  0  0  0  0  0  0  0  0
    8.3562    0.0798   -0.1885 C   0  0  0  0  0  0  0  0  0  0  0  0
    7.0077    0.7467    0.0903 C   0  0  0  0  0  0  0  0  0  0  0  0
    5.8906   -0.2917   -0.0304 C   0  0  0  0  0  0  0  0  0  0  0  0
    4.5421    0.3752    0.2483 C   0  0  0  0  0  0  0  0  0  0  0  0
    3.4249   -0.6632    0.1277 C   0  0  0  0  0  0  0  0  0  0  0  0
    2.0764    0.0037    0.4064 C   0  0  0  0  0  0  0  0  0  0  0  0
    0.9761   -1.0191    0.2876 C   0  0  0  0  0  0  0  0  0  0  0  0
    1.2445   -2.1702    0.0070 O   0  0  0  0  0  0  0  0  0  0  0  0
   -0.3612   -0.6411    0.5013 C   0  0  0  0  0  0  0  0  0  0  0  0
   -1.3471   -1.5575    0.3949 C   0  0  0  0  0  0  0  0  0  0  0  0
   -2.7805   -1.1524    0.6240 C   0  0  0  0  0  0  0  0  0  0  0  0
   -3.4385   -0.8246   -0.7178 C   0  0  0  0  0  0  0  0  0  0  0  0
   -4.8719   -0.4195   -0.4886 C   0  0  0  0  0  0  0  0  0  0  0  0
   -5.1868    0.9090   -0.2718 C   0  0  0  0  0  0  0  0  0  0  0  0
   -6.5042    1.2832   -0.0610 C   0  0  0  0  0  0  0  0  0  0  0  0
   -7.5077    0.3193   -0.0681 C   0  0  0  0  0  0  0  0  0  0  0  0
   -7.1852   -1.0106   -0.2860 C   0  0  0  0  0  0  0  0  0  0  0  0
   -5.8696   -1.3764   -0.5013 C   0  0  0  0  0  0  0  0  0  0  0  0
   -8.8021    0.6815    0.1388 O   0  0  0  0  0  0  0  0  0  0  0  0
   -6.8156    2.5896    0.1529 O   0  0  0  0  0  0  0  0  0  0  0  0
   -5.7343    3.5238    0.1470 C   0  0  0  0  0  0  0  0  0  0  0  0
   -1.0496   -2.8334    0.0839 O   0  0  0  0  0  0  0  0  0  0  0  0
   11.9409    1.9060    0.7815 H   0  0  0  0  0  0  0  0  0  0  0  0
   12.8997    1.0146   -0.4245 H   0  0  0  0  0  0  0  0  0  0  0  0
   11.7723    2.2883   -0.9487 H   0  0  0  0  0  0  0  0  0  0  0  0
   10.8200    0.0350   -1.3539 H   0  0  0  0  0  0  0  0  0  0  0  0
   10.9885   -0.3474    0.3763 H   0  0  0  0  0  0  0  0  0  0  0  0
    9.4752    1.5345    0.9396 H   0  0  0  0  0  0  0  0  0  0  0  0
    9.3067    1.9168   -0.7907 H   0  0  0  0  0  0  0  0  0  0  0  0
    8.3544   -0.3365   -1.1958 H   0  0  0  0  0  0  0  0  0  0  0  0
    8.5229   -0.7189    0.5344 H   0  0  0  0  0  0  0  0  0  0  0  0
    7.0096    1.1630    1.0976 H   0  0  0  0  0  0  0  0  0  0  0  0
    6.8410    1.5453   -0.6326 H   0  0  0  0  0  0  0  0  0  0  0  0
    5.8887   -0.7080   -1.0378 H   0  0  0  0  0  0  0  0  0  0  0  0
    6.0572   -1.0904    0.6925 H   0  0  0  0  0  0  0  0  0  0  0  0
    4.5439    0.7915    1.2557 H   0  0  0  0  0  0  0  0  0  0  0  0
    4.3754    1.1738   -0.4745 H   0  0  0  0  0  0  0  0  0  0  0  0
    3.4231   -1.0795   -0.8797 H   0  0  0  0  0  0  0  0  0  0  0  0
    3.5916   -1.4619    0.8505 H   0  0  0  0  0  0  0  0  0  0  0  0
    2.0783    0.4200    1.4138 H   0  0  0  0  0  0  0  0  0  0  0  0
    1.9098    0.8023   -0.3165 H   0  0  0  0  0  0  0  0  0  0  0  0
   -0.5998    0.3823    0.7507 H   0  0  0  0  0  0  0  0  0  0  0  0
   -3.3177   -1.9717    1.1017 H   0  0  0  0  0  0  0  0  0  0  0  0
   -2.8111   -0.2735    1.2680 H   0  0  0  0  0  0  0  0  0  0  0  0
   -2.9013   -0.0053   -1.1954 H   0  0  0  0  0  0  0  0  0  0  0  0
   -3.4079   -1.7035   -1.3618 H   0  0  0  0  0  0  0  0  0  0  0  0
   -4.4060    1.6552   -0.2664 H   0  0  0  0  0  0  0  0  0  0  0  0
   -7.9622   -1.7607   -0.2920 H   0  0  0  0  0  0  0  0  0  0  0  0
   -5.6195   -2.4133   -0.6711 H   0  0  0  0  0  0  0  0  0  0  0  0
   -9.2827    0.9033   -0.6705 H   0  0  0  0  0  0  0  0  0  0  0  0
   -6.1197    4.5269    0.3291 H   0  0  0  0  0  0  0  0  0  0  0  0
   -5.0224    3.2605    0.9294 H   0  0  0  0  0  0  0  0  0  0  0  0
   -5.2357    3.4964   -0.8219 H   0  0  0  0  0  0  0  0  0  0  0  0
   -1.7890   -3.4533    0.0190 H   0  0  0  0  0  0  0  0  0  0  0  0
  1  2  1  0  0  0  0
  2  3  1  0  0  0  0
  3  4  1  0  0  0  0
  4  5  1  0  0  0  0
  5  6  1  0  0  0  0
  6  7  1  0  0  0  0
  7  8  1  0  0  0  0
  8  9  1  0  0  0  0
  9 10  1  0  0  0  0
 10 11  2  0  0  0  0
 10 12  1  0  0  0  0
 12 13  2  0  0  0  0
 13 14  1  0  0  0  0
 14 15  1  0  0  0  0
 15 16  1  0  0  0  0
 16 17  2  0  0  0  0
 17 18  1  0  0  0  0
 18 19  2  0  0  0  0
 19 20  1  0  0  0  0
 20 21  2  0  0  0  0
 16 21  1  0  0  0  0
 19 22  1  0  0  0  0
 18 23  1  0  0  0  0
 23 24  1  0  0  0  0
 13 25  1  0  0  0  0
  1 26  1  0  0  0  0
  1 27  1  0  0  0  0
  1 28  1  0  0  0  0
  2 29  1  0  0  0  0
  2 30  1  0  0  0  0
  3 31  1  0  0  0  0
  3 32  1  0  0  0  0
  4 33  1  0  0  0  0
  4 34  1  0  0  0  0
  5 35  1  0  0  0  0
  5 36  1  0  0  0  0
  6 37  1  0  0  0  0
  6 38  1  0  0  0  0
  7 39  1  0  0  0  0
  7 40  1  0  0  0  0
  8 41  1  0  0  0  0
  8 42  1  0  0  0  0
  9 43  1  0  0  0  0
  9 44  1  0  0  0  0
 12 45  1  0  0  0  0
 14 46  1  0  0  0  0
 14 47  1  0  0  0  0
 15 48  1  0  0  0  0
 15 49  1  0  0  0  0
 17 50  1  0  0  0  0
 20 51  1  0  0  0  0
 21 52  1  0  0  0  0
 22 53  1  0  0  0  0
 24 54  1  0  0  0  0
 24 55  1  0  0  0  0
 24 56  1  0  0  0  0
 25 57  1  0  0  0  0
M  END
$$$$
