C21H16O6
APtclcactv06281817003D 0   0.00000     0.00000
 
 43 47  0  0  0  0  0  0  0  0999 V2000
   -5.1262   -0.1756    1.8549 C   0  0  0  0  0  0  0  0  0  0  0  0
   -5.2491    0.1104    0.3569 C   0  0  0  0  0  0  0  0  0  0  0  0
   -4.8295    1.5312    0.0866 C   0  0  0  0  0  0  0  0  0  0  0  0
   -3.5523    1.8112   -0.1663 C   0  0  0  0  0  0  0  0  0  0  0  0
   -2.5858    0.6928   -0.1836 C   0  0  0  0  0  0  0  0  0  0  0  0
   -3.0808   -0.6191   -0.2879 C   0  0  0  0  0  0  0  0  0  0  0  0
   -4.4237   -0.8034   -0.3662 O   0  0  0  0  0  0  0  0  0  0  0  0
   -2.2117   -1.6924   -0.3091 C   0  0  0  0  0  0  0  0  0  0  0  0
   -0.8410   -1.4837   -0.2266 C   0  0  0  0  0  0  0  0  0  0  0  0
   -0.3391   -0.1735   -0.1201 C   0  0  0  0  0  0  0  0  0  0  0  0
   -1.2161    0.9203   -0.0989 C   0  0  0  0  0  0  0  0  0  0  0  0
   -0.7348    2.1846    0.0020 O   0  0  0  0  0  0  0  0  0  0  0  0
   -0.4397    2.8659   -1.2190 C   0  0  0  0  0  0  0  0  0  0  0  0
    1.1113    0.0273   -0.0318 C   0  0  0  0  0  0  0  0  0  0  0  0
    1.9236   -1.1045   -0.0602 C   0  0  0  0  0  0  0  0  0  0  0  0
    3.3049   -0.6054    0.0436 C   0  0  0  0  0  0  0  0  0  0  0  0
    3.1957    0.7915    0.1258 C   0  0  0  0  0  0  0  0  0  0  0  0
    1.8853    1.1177    0.0774 O   0  0  0  0  0  0  0  0  0  0  0  0
    4.3489    1.5578    0.2347 C   0  0  0  0  0  0  0  0  0  0  0  0
    5.5884    0.9438    0.2606 C   0  0  0  0  0  0  0  0  0  0  0  0
    5.6919   -0.4410    0.1783 C   0  0  0  0  0  0  0  0  0  0  0  0
    4.5566   -1.2142    0.0709 C   0  0  0  0  0  0  0  0  0  0  0  0
    6.7134    1.6993    0.3669 O   0  0  0  0  0  0  0  0  0  0  0  0
    1.3383   -2.3826   -0.1708 C   0  0  0  0  0  0  0  0  0  0  0  0
    2.0552   -3.3667   -0.1956 O   0  0  0  0  0  0  0  0  0  0  0  0
    0.0062   -2.5369   -0.2493 O   0  0  0  0  0  0  0  0  0  0  0  0
   -6.7051   -0.0763   -0.0744 C   0  0  0  0  0  0  0  0  0  0  0  0
   -5.7701    0.5073    2.4092 H   0  0  0  0  0  0  0  0  0  0  0  0
   -5.4291   -1.2034    2.0546 H   0  0  0  0  0  0  0  0  0  0  0  0
   -4.0917   -0.0343    2.1680 H   0  0  0  0  0  0  0  0  0  0  0  0
   -5.5642    2.3227    0.0974 H   0  0  0  0  0  0  0  0  0  0  0  0
   -3.2321    2.8255   -0.3535 H   0  0  0  0  0  0  0  0  0  0  0  0
   -2.5992   -2.6972   -0.3903 H   0  0  0  0  0  0  0  0  0  0  0  0
    0.3156    2.3083   -1.7727 H   0  0  0  0  0  0  0  0  0  0  0  0
   -1.3461    2.9446   -1.8193 H   0  0  0  0  0  0  0  0  0  0  0  0
   -0.0636    3.8644   -0.9962 H   0  0  0  0  0  0  0  0  0  0  0  0
    4.2780    2.6336    0.2988 H   0  0  0  0  0  0  0  0  0  0  0  0
    6.6641   -0.9109    0.1986 H   0  0  0  0  0  0  0  0  0  0  0  0
    4.6376   -2.2893    0.0073 H   0  0  0  0  0  0  0  0  0  0  0  0
    6.9930    1.8624    1.2781 H   0  0  0  0  0  0  0  0  0  0  0  0
   -7.3402    0.6127    0.4824 H   0  0  0  0  0  0  0  0  0  0  0  0
   -6.7969    0.1266   -1.1415 H   0  0  0  0  0  0  0  0  0  0  0  0
   -7.0156   -1.1013    0.1285 H   0  0  0  0  0  0  0  0  0  0  0  0
  1  2  1  0  0  0  0
  2  3  1  0  0  0  0
  3  4  2  0  0  0  0
  4  5  1  0  0  0  0
  5  6  2  0  0  0  0
  6  7  1  0  0  0  0
  2  7  1  0  0  0  0
  6  8  1  0  0  0  0
  8  9  2  0  0  0  0
  9 10  1  0  0  0  0
 10 11  2  0  0  0  0
  5 11  1  0  0  0  0
 11 12  1  0  0  0  0
 12 13  1  0  0  0  0
 10 14  1  0  0  0  0
 14 15  2  0  0  0  0
 15 16  1  0  0  0  0
 16 17  2  0  0  0  0
 17 18  1  0  0  0  0
 14 18  1  0  0  0  0
 17 19  1  0  0  0  0
 19 20  2  0  0  0  0
 20 21  1  0  0  0  0
 21 22  2  0  0  0  0
 16 22  1  0  0  0  0
 20 23  1  0  0  0  0
 15 24  1  0  0  0  0
 24 25  2  0  0  0  0
 24 26  1  0  0  0  0
  9 26  1  0  0  0  0
  2 27  1  0  0  0  0
  1 28  1  0  0  0  0
  1 29  1  0  0  0  0
  1 30  1  0  0  0  0
  3 31  1  0  0  0  0
  4 32  1  0  0  0  0
  8 33  1  0  0  0  0
 13 34  1  0  0  0  0
 13 35  1  0  0  0  0
 13 36  1  0  0  0  0
 19 37  1  0  0  0  0
 21 38  1  0  0  0  0
 22 39  1  0  0  0  0
 23 40  1  0  0  0  0
 27 41  1  0  0  0  0
 27 42  1  0  0  0  0
 27 43  1  0  0  0  0
M  END
$$$$
