C26H26O6
APtclcactv06281816593D 0   0.00000     0.00000
 
 58 61  0  0  0  0  0  0  0  0999 V2000
    1.3613   -4.3825   -1.3262 C   0  0  0  0  0  0  0  0  0  0  0  0
    1.8957   -4.0382    0.0402 C   0  0  0  0  0  0  0  0  0  0  0  0
    2.5695   -2.9292    0.2197 C   0  0  0  0  0  0  0  0  0  0  0  0
    2.7035   -1.9381   -0.9077 C   0  0  0  0  0  0  0  0  0  0  0  0
    2.2461   -0.5805   -0.4401 C   0  0  0  0  0  0  0  0  0  0  0  0
    3.1518    0.2925    0.1285 C   0  0  0  0  0  0  0  0  0  0  0  0
    2.7369    1.5631    0.5677 C   0  0  0  0  0  0  0  0  0  0  0  0
    1.4070    1.9497    0.4358 C   0  0  0  0  0  0  0  0  0  0  0  0
    0.4939    1.0561   -0.1361 C   0  0  0  0  0  0  0  0  0  0  0  0
    0.9139   -0.2090   -0.5880 C   0  0  0  0  0  0  0  0  0  0  0  0
    0.0348   -1.0557   -1.1580 O   0  0  0  0  0  0  0  0  0  0  0  0
   -1.2804   -0.8778   -1.0330 C   0  0  0  0  0  0  0  0  0  0  0  0
   -1.8352    0.2908   -0.6204 C   0  0  0  0  0  0  0  0  0  0  0  0
   -0.9294    1.4079   -0.2820 C   0  0  0  0  0  0  0  0  0  0  0  0
   -1.3356    2.5468   -0.1258 O   0  0  0  0  0  0  0  0  0  0  0  0
   -3.3070    0.4426   -0.5171 C   0  0  0  0  0  0  0  0  0  0  0  0
   -4.0236   -0.3146    0.4079 C   0  0  0  0  0  0  0  0  0  0  0  0
   -5.3964   -0.1701    0.5011 C   0  0  0  0  0  0  0  0  0  0  0  0
   -6.0590    0.7306   -0.3285 C   0  0  0  0  0  0  0  0  0  0  0  0
   -5.3454    1.4831   -1.2486 C   0  0  0  0  0  0  0  0  0  0  0  0
   -3.9750    1.3469   -1.3409 C   0  0  0  0  0  0  0  0  0  0  0  0
   -7.4085    0.8722   -0.2363 O   0  0  0  0  0  0  0  0  0  0  0  0
   -6.0984   -0.9079    1.4023 O   0  0  0  0  0  0  0  0  0  0  0  0
   -5.3539   -1.8125    2.2206 C   0  0  0  0  0  0  0  0  0  0  0  0
    1.0012    3.1738    0.8553 O   0  0  0  0  0  0  0  0  0  0  0  0
    3.7429    2.4650    1.1670 C   0  0  0  0  0  0  0  0  0  0  0  0
    5.0303    2.1875    0.9678 C   0  0  0  0  0  0  0  0  0  0  0  0
    5.4232    0.9915    0.1415 C   0  0  0  0  0  0  0  0  0  0  0  0
    4.4569   -0.0513    0.2754 O   0  0  0  0  0  0  0  0  0  0  0  0
    5.5197    1.4039   -1.3287 C   0  0  0  0  0  0  0  0  0  0  0  0
    6.7863    0.4795    0.6114 C   0  0  0  0  0  0  0  0  0  0  0  0
    1.6549   -4.9697    1.2001 C   0  0  0  0  0  0  0  0  0  0  0  0
    2.1773   -4.3716   -2.0487 H   0  0  0  0  0  0  0  0  0  0  0  0
    0.9116   -5.3751   -1.3009 H   0  0  0  0  0  0  0  0  0  0  0  0
    0.6086   -3.6498   -1.6171 H   0  0  0  0  0  0  0  0  0  0  0  0
    3.0289   -2.7251    1.1755 H   0  0  0  0  0  0  0  0  0  0  0  0
    3.7462   -1.8824   -1.2204 H   0  0  0  0  0  0  0  0  0  0  0  0
    2.0886   -2.2590   -1.7485 H   0  0  0  0  0  0  0  0  0  0  0  0
   -1.9359   -1.7024   -1.2716 H   0  0  0  0  0  0  0  0  0  0  0  0
   -3.5082   -1.0132    1.0504 H   0  0  0  0  0  0  0  0  0  0  0  0
   -5.8622    2.1805   -1.8912 H   0  0  0  0  0  0  0  0  0  0  0  0
   -3.4212    1.9342   -2.0585 H   0  0  0  0  0  0  0  0  0  0  0  0
   -7.6909    1.5487    0.3943 H   0  0  0  0  0  0  0  0  0  0  0  0
   -4.8392   -2.5355    1.5877 H   0  0  0  0  0  0  0  0  0  0  0  0
   -4.6218   -1.2553    2.8051 H   0  0  0  0  0  0  0  0  0  0  0  0
   -6.0328   -2.3368    2.8932 H   0  0  0  0  0  0  0  0  0  0  0  0
    1.0595    3.8611    0.1776 H   0  0  0  0  0  0  0  0  0  0  0  0
    3.4429    3.3239    1.7490 H   0  0  0  0  0  0  0  0  0  0  0  0
    5.7921    2.8203    1.3986 H   0  0  0  0  0  0  0  0  0  0  0  0
    6.2708    2.1862   -1.4381 H   0  0  0  0  0  0  0  0  0  0  0  0
    5.8040    0.5406   -1.9304 H   0  0  0  0  0  0  0  0  0  0  0  0
    4.5530    1.7788   -1.6651 H   0  0  0  0  0  0  0  0  0  0  0  0
    6.7248    0.1938    1.6614 H   0  0  0  0  0  0  0  0  0  0  0  0
    7.0743   -0.3865    0.0154 H   0  0  0  0  0  0  0  0  0  0  0  0
    7.5309    1.2666    0.4920 H   0  0  0  0  0  0  0  0  0  0  0  0
    1.0813   -5.8321    0.8606 H   0  0  0  0  0  0  0  0  0  0  0  0
    2.6113   -5.3046    1.6017 H   0  0  0  0  0  0  0  0  0  0  0  0
    1.0980   -4.4460    1.9771 H   0  0  0  0  0  0  0  0  0  0  0  0
  1  2  1  0  0  0  0
  2  3  2  0  0  0  0
  3  4  1  0  0  0  0
  4  5  1  0  0  0  0
  5  6  2  0  0  0  0
  6  7  1  0  0  0  0
  7  8  2  0  0  0  0
  8  9  1  0  0  0  0
  9 10  2  0  0  0  0
  5 10  1  0  0  0  0
 10 11  1  0  0  0  0
 11 12  1  0  0  0  0
 12 13  2  0  0  0  0
 13 14  1  0  0  0  0
  9 14  1  0  0  0  0
 14 15  2  0  0  0  0
 13 16  1  0  0  0  0
 16 17  2  0  0  0  0
 17 18  1  0  0  0  0
 18 19  2  0  0  0  0
 19 20  1  0  0  0  0
 20 21  2  0  0  0  0
 16 21  1  0  0  0  0
 19 22  1  0  0  0  0
 18 23  1  0  0  0  0
 23 24  1  0  0  0  0
  8 25  1  0  0  0  0
  7 26  1  0  0  0  0
 26 27  2  0  0  0  0
 27 28  1  0  0  0  0
 28 29  1  0  0  0  0
  6 29  1  0  0  0  0
 28 30  1  0  0  0  0
 28 31  1  0  0  0  0
  2 32  1  0  0  0  0
  1 33  1  0  0  0  0
  1 34  1  0  0  0  0
  1 35  1  0  0  0  0
  3 36  1  0  0  0  0
  4 37  1  0  0  0  0
  4 38  1  0  0  0  0
 12 39  1  0  0  0  0
 17 40  1  0  0  0  0
 20 41  1  0  0  0  0
 21 42  1  0  0  0  0
 22 43  1  0  0  0  0
 24 44  1  0  0  0  0
 24 45  1  0  0  0  0
 24 46  1  0  0  0  0
 25 47  1  0  0  0  0
 26 48  1  0  0  0  0
 27 49  1  0  0  0  0
 30 50  1  0  0  0  0
 30 51  1  0  0  0  0
 30 52  1  0  0  0  0
 31 53  1  0  0  0  0
 31 54  1  0  0  0  0
 31 55  1  0  0  0  0
 32 56  1  0  0  0  0
 32 57  1  0  0  0  0
 32 58  1  0  0  0  0
M  END
$$$$
