C10H18N2O5
APtclcactv06281817003D 0   0.00000     0.00000
 
 35 34  0  0  0  0  0  0  0  0999 V2000
   -1.9534    2.3921    0.1963 C   0  0  0  0  0  0  0  0  0  0  0  0
   -3.0968    1.4046   -0.0452 C   0  0  0  0  0  0  0  0  0  0  0  0
   -3.3892    1.3196   -1.5446 C   0  0  0  0  0  0  0  0  0  0  0  0
   -2.6959    0.0229    0.4754 C   0  0  0  0  0  0  0  0  0  0  0  0
   -3.8222   -0.9498    0.2375 C   0  0  0  0  0  0  0  0  0  0  0  0
   -3.6420   -1.9261   -0.4511 O   0  0  0  0  0  0  0  0  0  0  0  0
   -5.0256   -0.7315    0.7907 O   0  0  0  0  0  0  0  0  0  0  0  0
   -1.4971   -0.4360   -0.2306 N   0  0  0  0  0  0  0  0  0  0  0  0
   -0.2763   -0.0618    0.2007 C   0  0  0  0  0  0  0  0  0  0  0  0
   -0.1702    0.6548    1.1734 O   0  0  0  0  0  0  0  0  0  0  0  0
    0.9569   -0.5339   -0.5255 C   0  0  0  0  0  0  0  0  0  0  0  0
    2.2014    0.0297    0.1632 C   0  0  0  0  0  0  0  0  0  0  0  0
    3.4534   -0.4496   -0.5742 C   0  0  0  0  0  0  0  0  0  0  0  0
    4.6714    0.2027    0.0276 C   0  0  0  0  0  0  0  0  0  0  0  0
    5.3567   -0.4069    0.8142 O   0  0  0  0  0  0  0  0  0  0  0  0
    4.9949    1.4609   -0.3101 O   0  0  0  0  0  0  0  0  0  0  0  0
    3.5671   -1.9088   -0.4488 N   0  0  0  0  0  0  0  0  0  0  0  0
   -2.2390    3.3764   -0.1745 H   0  0  0  0  0  0  0  0  0  0  0  0
   -1.7451    2.4526    1.2645 H   0  0  0  0  0  0  0  0  0  0  0  0
   -1.0614    2.0506   -0.3290 H   0  0  0  0  0  0  0  0  0  0  0  0
   -3.9888    1.7460    0.4801 H   0  0  0  0  0  0  0  0  0  0  0  0
   -2.4972    0.9782   -2.0699 H   0  0  0  0  0  0  0  0  0  0  0  0
   -4.2038    0.6161   -1.7166 H   0  0  0  0  0  0  0  0  0  0  0  0
   -3.6748    2.3040   -1.9154 H   0  0  0  0  0  0  0  0  0  0  0  0
   -2.4877    0.0834    1.5436 H   0  0  0  0  0  0  0  0  0  0  0  0
   -5.7167   -1.3831    0.6096 H   0  0  0  0  0  0  0  0  0  0  0  0
   -1.5820   -1.0092   -1.0086 H   0  0  0  0  0  0  0  0  0  0  0  0
    0.9940   -1.6231   -0.5084 H   0  0  0  0  0  0  0  0  0  0  0  0
    0.9250   -0.1876   -1.5586 H   0  0  0  0  0  0  0  0  0  0  0  0
    2.1643    1.1189    0.1461 H   0  0  0  0  0  0  0  0  0  0  0  0
    2.2333   -0.3166    1.1962 H   0  0  0  0  0  0  0  0  0  0  0  0
    3.3801   -0.1800   -1.6278 H   0  0  0  0  0  0  0  0  0  0  0  0
    5.7849    1.8367    0.1019 H   0  0  0  0  0  0  0  0  0  0  0  0
    4.3502   -2.2575   -0.9810 H   0  0  0  0  0  0  0  0  0  0  0  0
    3.6365   -2.1842    0.5194 H   0  0  0  0  0  0  0  0  0  0  0  0
  1  2  1  0  0  0  0
  2  3  1  0  0  0  0
  2  4  1  0  0  0  0
  4  5  1  0  0  0  0
  5  6  2  0  0  0  0
  5  7  1  0  0  0  0
  4  8  1  0  0  0  0
  8  9  1  0  0  0  0
  9 10  2  0  0  0  0
  9 11  1  0  0  0  0
 11 12  1  0  0  0  0
 12 13  1  0  0  0  0
 13 14  1  0  0  0  0
 14 15  2  0  0  0  0
 14 16  1  0  0  0  0
 13 17  1  0  0  0  0
  1 18  1  0  0  0  0
  1 19  1  0  0  0  0
  1 20  1  0  0  0  0
  2 21  1  0  0  0  0
  3 22  1  0  0  0  0
  3 23  1  0  0  0  0
  3 24  1  0  0  0  0
  4 25  1  0  0  0  0
  7 26  1  0  0  0  0
  8 27  1  0  0  0  0
 11 28  1  0  0  0  0
 11 29  1  0  0  0  0
 12 30  1  0  0  0  0
 12 31  1  0  0  0  0
 13 32  1  0  0  0  0
 16 33  1  0  0  0  0
 17 34  1  0  0  0  0
 17 35  1  0  0  0  0
M  END
$$$$
