C21H36O4
APtclcactv06281817003D 0   0.00000     0.00000
 
 61 61  0  0  0  0  0  0  0  0999 V2000
   12.2959    0.7887   -0.8624 C   0  0  0  0  0  0  0  0  0  0  0  0
   11.1326    0.2762   -0.0109 C   0  0  0  0  0  0  0  0  0  0  0  0
    9.8094    0.6002   -0.7073 C   0  0  0  0  0  0  0  0  0  0  0  0
    8.6461    0.0877    0.1442 C   0  0  0  0  0  0  0  0  0  0  0  0
    7.3228    0.4117   -0.5522 C   0  0  0  0  0  0  0  0  0  0  0  0
    6.1595   -0.1008    0.2993 C   0  0  0  0  0  0  0  0  0  0  0  0
    4.8363    0.2232   -0.3971 C   0  0  0  0  0  0  0  0  0  0  0  0
    3.6730   -0.2893    0.4544 C   0  0  0  0  0  0  0  0  0  0  0  0
    2.3498    0.0347   -0.2420 C   0  0  0  0  0  0  0  0  0  0  0  0
    1.1865   -0.4778    0.6095 C   0  0  0  0  0  0  0  0  0  0  0  0
   -0.1378   -0.0454   -0.0231 C   0  0  0  0  0  0  0  0  0  0  0  0
   -1.2958   -0.4492    0.8917 C   0  0  0  0  0  0  0  0  0  0  0  0
   -2.6086    0.0918    0.3217 C   0  0  0  0  0  0  0  0  0  0  0  0
   -3.7488   -0.2038    1.2982 C   0  0  0  0  0  0  0  0  0  0  0  0
   -5.0418    0.3291    0.7367 C   0  0  0  0  0  0  0  0  0  0  0  0
   -5.8288   -0.4757   -0.0657 C   0  0  0  0  0  0  0  0  0  0  0  0
   -7.0180    0.0127   -0.5828 C   0  0  0  0  0  0  0  0  0  0  0  0
   -7.4171    1.3138   -0.2923 C   0  0  0  0  0  0  0  0  0  0  0  0
   -6.6235    2.1152    0.5126 C   0  0  0  0  0  0  0  0  0  0  0  0
   -5.4410    1.6199    1.0299 C   0  0  0  0  0  0  0  0  0  0  0  0
   -8.5831    1.7978   -0.7978 O   0  0  0  0  0  0  0  0  0  0  0  0
   -7.7932   -0.7776   -1.3727 O   0  0  0  0  0  0  0  0  0  0  0  0
   -7.3206   -2.1016   -1.6288 C   0  0  0  0  0  0  0  0  0  0  0  0
   -1.3635   -1.8742    0.9737 O   0  0  0  0  0  0  0  0  0  0  0  0
    1.2384   -1.9042    0.6779 O   0  0  0  0  0  0  0  0  0  0  0  0
   13.2386    0.5579   -0.3663 H   0  0  0  0  0  0  0  0  0  0  0  0
   12.2716    0.3056   -1.8392 H   0  0  0  0  0  0  0  0  0  0  0  0
   12.2062    1.8676   -0.9884 H   0  0  0  0  0  0  0  0  0  0  0  0
   11.2223   -0.8028    0.1151 H   0  0  0  0  0  0  0  0  0  0  0  0
   11.1569    0.7593    0.9659 H   0  0  0  0  0  0  0  0  0  0  0  0
    9.7197    1.6792   -0.8332 H   0  0  0  0  0  0  0  0  0  0  0  0
    9.7851    0.1171   -1.6841 H   0  0  0  0  0  0  0  0  0  0  0  0
    8.7357   -0.9913    0.2702 H   0  0  0  0  0  0  0  0  0  0  0  0
    8.6704    0.5708    1.1210 H   0  0  0  0  0  0  0  0  0  0  0  0
    7.2332    1.4907   -0.6781 H   0  0  0  0  0  0  0  0  0  0  0  0
    7.2985   -0.0714   -1.5290 H   0  0  0  0  0  0  0  0  0  0  0  0
    6.2492   -1.1798    0.4253 H   0  0  0  0  0  0  0  0  0  0  0  0
    6.1839    0.3823    1.2761 H   0  0  0  0  0  0  0  0  0  0  0  0
    4.7467    1.3022   -0.5230 H   0  0  0  0  0  0  0  0  0  0  0  0
    4.8120   -0.2599   -1.3739 H   0  0  0  0  0  0  0  0  0  0  0  0
    3.7627   -1.3683    0.5804 H   0  0  0  0  0  0  0  0  0  0  0  0
    3.6973    0.1938    1.4312 H   0  0  0  0  0  0  0  0  0  0  0  0
    2.2601    1.1137   -0.3679 H   0  0  0  0  0  0  0  0  0  0  0  0
    2.3255   -0.4484   -1.2188 H   0  0  0  0  0  0  0  0  0  0  0  0
    1.2616   -0.0629    1.6147 H   0  0  0  0  0  0  0  0  0  0  0  0
   -0.1405    1.0364   -0.1567 H   0  0  0  0  0  0  0  0  0  0  0  0
   -0.2535   -0.5314   -0.9918 H   0  0  0  0  0  0  0  0  0  0  0  0
   -1.1340   -0.0353    1.8870 H   0  0  0  0  0  0  0  0  0  0  0  0
   -2.5250    1.1688    0.1760 H   0  0  0  0  0  0  0  0  0  0  0  0
   -2.8151   -0.3892   -0.6344 H   0  0  0  0  0  0  0  0  0  0  0  0
   -3.8324   -1.2807    1.4438 H   0  0  0  0  0  0  0  0  0  0  0  0
   -3.5422    0.2772    2.2542 H   0  0  0  0  0  0  0  0  0  0  0  0
   -5.5167   -1.4850   -0.2899 H   0  0  0  0  0  0  0  0  0  0  0  0
   -6.9309    3.1253    0.7396 H   0  0  0  0  0  0  0  0  0  0  0  0
   -4.8234    2.2455    1.6572 H   0  0  0  0  0  0  0  0  0  0  0  0
   -9.3509    1.6463   -0.2298 H   0  0  0  0  0  0  0  0  0  0  0  0
   -7.2187   -2.6397   -0.6863 H   0  0  0  0  0  0  0  0  0  0  0  0
   -8.0310   -2.6233   -2.2700 H   0  0  0  0  0  0  0  0  0  0  0  0
   -6.3516   -2.0518   -2.1254 H   0  0  0  0  0  0  0  0  0  0  0  0
   -1.5065   -2.3108    0.1227 H   0  0  0  0  0  0  0  0  0  0  0  0
    1.1768   -2.3417   -0.1823 H   0  0  0  0  0  0  0  0  0  0  0  0
  1  2  1  0  0  0  0
  2  3  1  0  0  0  0
  3  4  1  0  0  0  0
  4  5  1  0  0  0  0
  5  6  1  0  0  0  0
  6  7  1  0  0  0  0
  7  8  1  0  0  0  0
  8  9  1  0  0  0  0
  9 10  1  0  0  0  0
 10 11  1  0  0  0  0
 11 12  1  0  0  0  0
 12 13  1  0  0  0  0
 13 14  1  0  0  0  0
 14 15  1  0  0  0  0
 15 16  2  0  0  0  0
 16 17  1  0  0  0  0
 17 18  2  0  0  0  0
 18 19  1  0  0  0  0
 19 20  2  0  0  0  0
 15 20  1  0  0  0  0
 18 21  1  0  0  0  0
 17 22  1  0  0  0  0
 22 23  1  0  0  0  0
 12 24  1  0  0  0  0
 10 25  1  0  0  0  0
  1 26  1  0  0  0  0
  1 27  1  0  0  0  0
  1 28  1  0  0  0  0
  2 29  1  0  0  0  0
  2 30  1  0  0  0  0
  3 31  1  0  0  0  0
  3 32  1  0  0  0  0
  4 33  1  0  0  0  0
  4 34  1  0  0  0  0
  5 35  1  0  0  0  0
  5 36  1  0  0  0  0
  6 37  1  0  0  0  0
  6 38  1  0  0  0  0
  7 39  1  0  0  0  0
  7 40  1  0  0  0  0
  8 41  1  0  0  0  0
  8 42  1  0  0  0  0
  9 43  1  0  0  0  0
  9 44  1  0  0  0  0
 10 45  1  0  0  0  0
 11 46  1  0  0  0  0
 11 47  1  0  0  0  0
 12 48  1  0  0  0  0
 13 49  1  0  0  0  0
 13 50  1  0  0  0  0
 14 51  1  0  0  0  0
 14 52  1  0  0  0  0
 16 53  1  0  0  0  0
 19 54  1  0  0  0  0
 20 55  1  0  0  0  0
 21 56  1  0  0  0  0
 23 57  1  0  0  0  0
 23 58  1  0  0  0  0
 23 59  1  0  0  0  0
 24 60  1  0  0  0  0
 25 61  1  0  0  0  0
M  END
$$$$
