C21H26O6
APtclcactv06281817013D 0   0.00000     0.00000
 
 53 54  0  0  0  0  0  0  0  0999 V2000
    6.9328    2.9733    0.0677 C   0  0  0  0  0  0  0  0  0  0  0  0
    7.5239    1.8089    0.6480 O   0  0  0  0  0  0  0  0  0  0  0  0
    6.8665    0.6311    0.4746 C   0  0  0  0  0  0  0  0  0  0  0  0
    7.3850   -0.5427    1.0128 C   0  0  0  0  0  0  0  0  0  0  0  0
    6.7114   -1.7403    0.8333 C   0  0  0  0  0  0  0  0  0  0  0  0
    5.5270   -1.7671    0.1208 C   0  0  0  0  0  0  0  0  0  0  0  0
    5.0121   -0.6009   -0.4143 C   0  0  0  0  0  0  0  0  0  0  0  0
    5.6759    0.5982   -0.2336 C   0  0  0  0  0  0  0  0  0  0  0  0
    3.7208   -0.6359   -1.1905 C   0  0  0  0  0  0  0  0  0  0  0  0
    2.5458   -0.4151   -0.2359 C   0  0  0  0  0  0  0  0  0  0  0  0
    1.2348   -0.4506   -1.0239 C   0  0  0  0  0  0  0  0  0  0  0  0
    0.0546   -0.3548   -0.0550 C   0  0  0  0  0  0  0  0  0  0  0  0
   -1.2355   -0.5130   -0.8177 C   0  0  0  0  0  0  0  0  0  0  0  0
   -1.2133   -0.6847   -2.0128 O   0  0  0  0  0  0  0  0  0  0  0  0
   -2.5534   -0.4569   -0.0889 C   0  0  0  0  0  0  0  0  0  0  0  0
   -3.6970   -0.6437   -1.0879 C   0  0  0  0  0  0  0  0  0  0  0  0
   -5.0149   -0.5876   -0.3592 C   0  0  0  0  0  0  0  0  0  0  0  0
   -5.6622    0.6230   -0.1967 C   0  0  0  0  0  0  0  0  0  0  0  0
   -6.8740    0.6763    0.4731 C   0  0  0  0  0  0  0  0  0  0  0  0
   -7.4366   -0.4906    0.9811 C   0  0  0  0  0  0  0  0  0  0  0  0
   -6.7826   -1.7009    0.8148 C   0  0  0  0  0  0  0  0  0  0  0  0
   -5.5766   -1.7479    0.1406 C   0  0  0  0  0  0  0  0  0  0  0  0
   -8.6256   -0.4434    1.6396 O   0  0  0  0  0  0  0  0  0  0  0  0
   -7.5119    1.8666    0.6342 O   0  0  0  0  0  0  0  0  0  0  0  0
   -6.8752    3.0230    0.0871 C   0  0  0  0  0  0  0  0  0  0  0  0
    1.1955    0.6512   -1.9330 O   0  0  0  0  0  0  0  0  0  0  0  0
    8.5505   -0.5147    1.7130 O   0  0  0  0  0  0  0  0  0  0  0  0
    6.8506    2.8399   -1.0110 H   0  0  0  0  0  0  0  0  0  0  0  0
    5.9404    3.1267    0.4915 H   0  0  0  0  0  0  0  0  0  0  0  0
    7.5567    3.8416    0.2799 H   0  0  0  0  0  0  0  0  0  0  0  0
    7.1119   -2.6528    1.2496 H   0  0  0  0  0  0  0  0  0  0  0  0
    5.0030   -2.7011   -0.0184 H   0  0  0  0  0  0  0  0  0  0  0  0
    5.2715    1.5077   -0.6526 H   0  0  0  0  0  0  0  0  0  0  0  0
    3.7289    0.1509   -1.9448 H   0  0  0  0  0  0  0  0  0  0  0  0
    3.6159   -1.6053   -1.6777 H   0  0  0  0  0  0  0  0  0  0  0  0
    2.5377   -1.2019    0.5185 H   0  0  0  0  0  0  0  0  0  0  0  0
    2.6507    0.5543    0.2513 H   0  0  0  0  0  0  0  0  0  0  0  0
    1.1717   -1.3847   -1.5821 H   0  0  0  0  0  0  0  0  0  0  0  0
    0.1335   -1.1436    0.6930 H   0  0  0  0  0  0  0  0  0  0  0  0
    0.0679    0.6169    0.4388 H   0  0  0  0  0  0  0  0  0  0  0  0
   -2.5898   -1.2503    0.6576 H   0  0  0  0  0  0  0  0  0  0  0  0
   -2.6555    0.5102    0.4035 H   0  0  0  0  0  0  0  0  0  0  0  0
   -3.6606    0.1497   -1.8345 H   0  0  0  0  0  0  0  0  0  0  0  0
   -3.5950   -1.6108   -1.5803 H   0  0  0  0  0  0  0  0  0  0  0  0
   -5.2232    1.5273   -0.5916 H   0  0  0  0  0  0  0  0  0  0  0  0
   -7.2171   -2.6080    1.2081 H   0  0  0  0  0  0  0  0  0  0  0  0
   -5.0679   -2.6917    0.0116 H   0  0  0  0  0  0  0  0  0  0  0  0
   -9.3969   -0.5556    1.0673 H   0  0  0  0  0  0  0  0  0  0  0  0
   -5.8958    3.1509    0.5480 H   0  0  0  0  0  0  0  0  0  0  0  0
   -6.7567    2.8976   -0.9892 H   0  0  0  0  0  0  0  0  0  0  0  0
   -7.4876    3.9028    0.2850 H   0  0  0  0  0  0  0  0  0  0  0  0
    1.2476    1.5166   -1.5047 H   0  0  0  0  0  0  0  0  0  0  0  0
    8.4360   -0.3641    2.6613 H   0  0  0  0  0  0  0  0  0  0  0  0
  1  2  1  0  0  0  0
  2  3  1  0  0  0  0
  3  4  2  0  0  0  0
  4  5  1  0  0  0  0
  5  6  2  0  0  0  0
  6  7  1  0  0  0  0
  7  8  2  0  0  0  0
  3  8  1  0  0  0  0
  7  9  1  0  0  0  0
  9 10  1  0  0  0  0
 10 11  1  0  0  0  0
 11 12  1  0  0  0  0
 12 13  1  0  0  0  0
 13 14  2  0  0  0  0
 13 15  1  0  0  0  0
 15 16  1  0  0  0  0
 16 17  1  0  0  0  0
 17 18  2  0  0  0  0
 18 19  1  0  0  0  0
 19 20  2  0  0  0  0
 20 21  1  0  0  0  0
 21 22  2  0  0  0  0
 17 22  1  0  0  0  0
 20 23  1  0  0  0  0
 19 24  1  0  0  0  0
 24 25  1  0  0  0  0
 11 26  1  0  0  0  0
  4 27  1  0  0  0  0
  1 28  1  0  0  0  0
  1 29  1  0  0  0  0
  1 30  1  0  0  0  0
  5 31  1  0  0  0  0
  6 32  1  0  0  0  0
  8 33  1  0  0  0  0
  9 34  1  0  0  0  0
  9 35  1  0  0  0  0
 10 36  1  0  0  0  0
 10 37  1  0  0  0  0
 11 38  1  0  0  0  0
 12 39  1  0  0  0  0
 12 40  1  0  0  0  0
 15 41  1  0  0  0  0
 15 42  1  0  0  0  0
 16 43  1  0  0  0  0
 16 44  1  0  0  0  0
 18 45  1  0  0  0  0
 21 46  1  0  0  0  0
 22 47  1  0  0  0  0
 23 48  1  0  0  0  0
 25 49  1  0  0  0  0
 25 50  1  0  0  0  0
 25 51  1  0  0  0  0
 26 52  1  0  0  0  0
 27 53  1  0  0  0  0
M  END
$$$$
