C21H14O7
APtclcactv06281817023D 0   0.00000     0.00000
 
 42 47  0  0  0  0  0  0  0  0999 V2000
    4.8001   -0.9096   -0.8303 C   0  0  0  0  0  0  0  0  0  0  0  0
    4.0219   -0.8105    0.3641 O   0  0  0  0  0  0  0  0  0  0  0  0
    2.6769   -0.7440    0.2180 C   0  0  0  0  0  0  0  0  0  0  0  0
    1.9229   -1.9171    0.2004 C   0  0  0  0  0  0  0  0  0  0  0  0
    0.5241   -1.8671    0.0495 C   0  0  0  0  0  0  0  0  0  0  0  0
   -0.1325   -0.6659   -0.0826 C   0  0  0  0  0  0  0  0  0  0  0  0
    0.6419    0.5752   -0.0650 C   0  0  0  0  0  0  0  0  0  0  0  0
    0.0162    1.8196   -0.1936 C   0  0  0  0  0  0  0  0  0  0  0  0
    0.7737    2.9705   -0.1739 C   0  0  0  0  0  0  0  0  0  0  0  0
    2.1683    2.9030   -0.0265 C   0  0  0  0  0  0  0  0  0  0  0  0
    2.7974    1.6980    0.1001 C   0  0  0  0  0  0  0  0  0  0  0  0
    2.0480    0.5098    0.0906 C   0  0  0  0  0  0  0  0  0  0  0  0
    2.6650    4.1758   -0.0404 O   0  0  0  0  0  0  0  0  0  0  0  0
    1.5374    5.0320    0.2188 C   0  0  0  0  0  0  0  0  0  0  0  0
    0.4130    4.2828   -0.2773 O   0  0  0  0  0  0  0  0  0  0  0  0
   -1.6050   -0.6293   -0.2411 C   0  0  0  0  0  0  0  0  0  0  0  0
   -2.3997   -0.0465    0.7456 C   0  0  0  0  0  0  0  0  0  0  0  0
   -3.7741   -0.0140    0.5945 C   0  0  0  0  0  0  0  0  0  0  0  0
   -4.3625   -0.5637   -0.5434 C   0  0  0  0  0  0  0  0  0  0  0  0
   -3.5708   -1.1437   -1.5233 C   0  0  0  0  0  0  0  0  0  0  0  0
   -2.1989   -1.1724   -1.3801 C   0  0  0  0  0  0  0  0  0  0  0  0
   -5.7158   -0.4056   -0.4532 O   0  0  0  0  0  0  0  0  0  0  0  0
   -5.9188    0.6063    0.5506 C   0  0  0  0  0  0  0  0  0  0  0  0
   -4.7592    0.4878    1.3957 O   0  0  0  0  0  0  0  0  0  0  0  0
    0.0456   -3.2983    0.0737 C   0  0  0  0  0  0  0  0  0  0  0  0
    1.2305   -4.1227    0.2435 O   0  0  0  0  0  0  0  0  0  0  0  0
    2.3128   -3.3305    0.3168 C   0  0  0  0  0  0  0  0  0  0  0  0
    3.4533   -3.7259    0.4592 O   0  0  0  0  0  0  0  0  0  0  0  0
    5.8580   -0.9551   -0.5718 H   0  0  0  0  0  0  0  0  0  0  0  0
    4.5194   -1.8123   -1.3729 H   0  0  0  0  0  0  0  0  0  0  0  0
    4.6164   -0.0369   -1.4570 H   0  0  0  0  0  0  0  0  0  0  0  0
   -1.0561    1.8781   -0.3082 H   0  0  0  0  0  0  0  0  0  0  0  0
    3.8708    1.6585    0.2126 H   0  0  0  0  0  0  0  0  0  0  0  0
    1.4336    5.2144    1.2884 H   0  0  0  0  0  0  0  0  0  0  0  0
    1.6390    5.9726   -0.3225 H   0  0  0  0  0  0  0  0  0  0  0  0
   -1.9424    0.3787    1.6268 H   0  0  0  0  0  0  0  0  0  0  0  0
   -4.0292   -1.5691   -2.4038 H   0  0  0  0  0  0  0  0  0  0  0  0
   -1.5855   -1.6247   -2.1454 H   0  0  0  0  0  0  0  0  0  0  0  0
   -5.9607    1.5953    0.0943 H   0  0  0  0  0  0  0  0  0  0  0  0
   -6.8279    0.4063    1.1176 H   0  0  0  0  0  0  0  0  0  0  0  0
   -0.6387   -3.4501    0.9085 H   0  0  0  0  0  0  0  0  0  0  0  0
   -0.4494   -3.5434   -0.8659 H   0  0  0  0  0  0  0  0  0  0  0  0
  1  2  1  0  0  0  0
  2  3  1  0  0  0  0
  3  4  2  0  0  0  0
  4  5  1  0  0  0  0
  5  6  2  0  0  0  0
  6  7  1  0  0  0  0
  7  8  2  0  0  0  0
  8  9  1  0  0  0  0
  9 10  2  0  0  0  0
 10 11  1  0  0  0  0
 11 12  2  0  0  0  0
  7 12  1  0  0  0  0
  3 12  1  0  0  0  0
 10 13  1  0  0  0  0
 13 14  1  0  0  0  0
 14 15  1  0  0  0  0
  9 15  1  0  0  0  0
  6 16  1  0  0  0  0
 16 17  2  0  0  0  0
 17 18  1  0  0  0  0
 18 19  2  0  0  0  0
 19 20  1  0  0  0  0
 20 21  2  0  0  0  0
 16 21  1  0  0  0  0
 19 22  1  0  0  0  0
 22 23  1  0  0  0  0
 23 24  1  0  0  0  0
 18 24  1  0  0  0  0
  5 25  1  0  0  0  0
 25 26  1  0  0  0  0
 26 27  1  0  0  0  0
  4 27  1  0  0  0  0
 27 28  2  0  0  0  0
  1 29  1  0  0  0  0
  1 30  1  0  0  0  0
  1 31  1  0  0  0  0
  8 32  1  0  0  0  0
 11 33  1  0  0  0  0
 14 34  1  0  0  0  0
 14 35  1  0  0  0  0
 17 36  1  0  0  0  0
 20 37  1  0  0  0  0
 21 38  1  0  0  0  0
 23 39  1  0  0  0  0
 23 40  1  0  0  0  0
 25 41  1  0  0  0  0
 25 42  1  0  0  0  0
M  END
$$$$
