C16H12O5
APtclcactv06281817013D 0   0.00000     0.00000
 
 33 35  0  0  0  0  0  0  0  0999 V2000
    5.5545    1.8134   -0.1435 C   0  0  0  0  0  0  0  0  0  0  0  0
    4.1880    2.2309   -0.1600 O   0  0  0  0  0  0  0  0  0  0  0  0
    3.2450    1.2563   -0.0962 C   0  0  0  0  0  0  0  0  0  0  0  0
    3.6361   -0.0760   -0.0192 C   0  0  0  0  0  0  0  0  0  0  0  0
    2.6845   -1.0767    0.0458 C   0  0  0  0  0  0  0  0  0  0  0  0
    1.3251   -0.7379    0.0339 C   0  0  0  0  0  0  0  0  0  0  0  0
    0.9324    0.6103   -0.0436 C   0  0  0  0  0  0  0  0  0  0  0  0
    1.9020    1.5995   -0.1027 C   0  0  0  0  0  0  0  0  0  0  0  0
   -0.3789    0.9281   -0.0553 O   0  0  0  0  0  0  0  0  0  0  0  0
   -1.3452   -0.0041    0.0047 C   0  0  0  0  0  0  0  0  0  0  0  0
   -1.0720   -1.3356    0.0818 C   0  0  0  0  0  0  0  0  0  0  0  0
    0.2801   -1.7714    0.1009 C   0  0  0  0  0  0  0  0  0  0  0  0
    0.5635   -2.9565    0.1689 O   0  0  0  0  0  0  0  0  0  0  0  0
   -2.0855   -2.2415    0.1406 O   0  0  0  0  0  0  0  0  0  0  0  0
   -2.7550    0.4319   -0.0131 C   0  0  0  0  0  0  0  0  0  0  0  0
   -3.1789    1.4705    0.8194 C   0  0  0  0  0  0  0  0  0  0  0  0
   -4.4980    1.8731    0.7972 C   0  0  0  0  0  0  0  0  0  0  0  0
   -5.4006    1.2508   -0.0472 C   0  0  0  0  0  0  0  0  0  0  0  0
   -4.9878    0.2210   -0.8743 C   0  0  0  0  0  0  0  0  0  0  0  0
   -3.6706   -0.1881   -0.8667 C   0  0  0  0  0  0  0  0  0  0  0  0
    3.0643   -2.3775    0.1201 O   0  0  0  0  0  0  0  0  0  0  0  0
    6.2024    2.6882   -0.1996 H   0  0  0  0  0  0  0  0  0  0  0  0
    5.7572    1.2698    0.7793 H   0  0  0  0  0  0  0  0  0  0  0  0
    5.7464    1.1639   -0.9975 H   0  0  0  0  0  0  0  0  0  0  0  0
    4.6859   -0.3296   -0.0104 H   0  0  0  0  0  0  0  0  0  0  0  0
    1.6106    2.6378   -0.1621 H   0  0  0  0  0  0  0  0  0  0  0  0
   -1.7891   -3.1604    0.1933 H   0  0  0  0  0  0  0  0  0  0  0  0
   -2.4756    1.9568    1.4792 H   0  0  0  0  0  0  0  0  0  0  0  0
   -4.8272    2.6757    1.4405 H   0  0  0  0  0  0  0  0  0  0  0  0
   -6.4322    1.5702   -0.0605 H   0  0  0  0  0  0  0  0  0  0  0  0
   -5.6977   -0.2604   -1.5305 H   0  0  0  0  0  0  0  0  0  0  0  0
   -3.3497   -0.9917   -1.5130 H   0  0  0  0  0  0  0  0  0  0  0  0
    3.1798   -2.7025    1.0235 H   0  0  0  0  0  0  0  0  0  0  0  0
  1  2  1  0  0  0  0
  2  3  1  0  0  0  0
  3  4  2  0  0  0  0
  4  5  1  0  0  0  0
  5  6  2  0  0  0  0
  6  7  1  0  0  0  0
  7  8  2  0  0  0  0
  3  8  1  0  0  0  0
  7  9  1  0  0  0  0
  9 10  1  0  0  0  0
 10 11  2  0  0  0  0
 11 12  1  0  0  0  0
  6 12  1  0  0  0  0
 12 13  2  0  0  0  0
 11 14  1  0  0  0  0
 10 15  1  0  0  0  0
 15 16  2  0  0  0  0
 16 17  1  0  0  0  0
 17 18  2  0  0  0  0
 18 19  1  0  0  0  0
 19 20  2  0  0  0  0
 15 20  1  0  0  0  0
  5 21  1  0  0  0  0
  1 22  1  0  0  0  0
  1 23  1  0  0  0  0
  1 24  1  0  0  0  0
  4 25  1  0  0  0  0
  8 26  1  0  0  0  0
 14 27  1  0  0  0  0
 16 28  1  0  0  0  0
 17 29  1  0  0  0  0
 18 30  1  0  0  0  0
 19 31  1  0  0  0  0
 20 32  1  0  0  0  0
 21 33  1  0  0  0  0
M  END
$$$$
