C8H16O
APtclcactv06281817013D 0   0.00000     0.00000
 
 25 24  0  0  0  0  0  0  0  0999 V2000
    4.8563   -0.3816    0.2714 C   0  0  0  0  0  0  0  0  0  0  0  0
    3.4959   -0.6302   -0.3831 C   0  0  0  0  0  0  0  0  0  0  0  0
    2.4447    0.2715    0.2672 C   0  0  0  0  0  0  0  0  0  0  0  0
    1.0843    0.0230   -0.3873 C   0  0  0  0  0  0  0  0  0  0  0  0
    0.0331    0.9246    0.2631 C   0  0  0  0  0  0  0  0  0  0  0  0
   -1.3068    0.6798   -0.3816 C   0  0  0  0  0  0  0  0  0  0  0  0
   -2.3393    0.3553    0.3565 C   0  0  0  0  0  0  0  0  0  0  0  0
   -3.6793    0.1105   -0.2882 C   0  0  0  0  0  0  0  0  0  0  0  0
   -4.2635   -1.0721    0.2617 O   0  0  0  0  0  0  0  0  0  0  0  0
    4.7937   -0.6062    1.3362 H   0  0  0  0  0  0  0  0  0  0  0  0
    5.6052   -1.0240   -0.1919 H   0  0  0  0  0  0  0  0  0  0  0  0
    5.1393    0.6623    0.1362 H   0  0  0  0  0  0  0  0  0  0  0  0
    3.5586   -0.4056   -1.4479 H   0  0  0  0  0  0  0  0  0  0  0  0
    3.2130   -1.6741   -0.2480 H   0  0  0  0  0  0  0  0  0  0  0  0
    2.3821    0.0469    1.3320 H   0  0  0  0  0  0  0  0  0  0  0  0
    2.7277    1.3154    0.1321 H   0  0  0  0  0  0  0  0  0  0  0  0
    1.1470    0.2475   -1.4521 H   0  0  0  0  0  0  0  0  0  0  0  0
    0.8014   -1.0210   -0.2521 H   0  0  0  0  0  0  0  0  0  0  0  0
   -0.0295    0.7001    1.3279 H   0  0  0  0  0  0  0  0  0  0  0  0
    0.3161    1.9685    0.1279 H   0  0  0  0  0  0  0  0  0  0  0  0
   -1.4159    0.7720   -1.4521 H   0  0  0  0  0  0  0  0  0  0  0  0
   -2.2302    0.2631    1.4270 H   0  0  0  0  0  0  0  0  0  0  0  0
   -4.3342    0.9610   -0.0991 H   0  0  0  0  0  0  0  0  0  0  0  0
   -3.5479   -0.0151   -1.3629 H   0  0  0  0  0  0  0  0  0  0  0  0
   -5.1297   -1.2913   -0.1080 H   0  0  0  0  0  0  0  0  0  0  0  0
  1  2  1  0  0  0  0
  2  3  1  0  0  0  0
  3  4  1  0  0  0  0
  4  5  1  0  0  0  0
  5  6  1  0  0  0  0
  6  7  2  0  0  0  0
  7  8  1  0  0  0  0
  8  9  1  0  0  0  0
  1 10  1  0  0  0  0
  1 11  1  0  0  0  0
  1 12  1  0  0  0  0
  2 13  1  0  0  0  0
  2 14  1  0  0  0  0
  3 15  1  0  0  0  0
  3 16  1  0  0  0  0
  4 17  1  0  0  0  0
  4 18  1  0  0  0  0
  5 19  1  0  0  0  0
  5 20  1  0  0  0  0
  6 21  1  0  0  0  0
  7 22  1  0  0  0  0
  8 23  1  0  0  0  0
  8 24  1  0  0  0  0
  9 25  1  0  0  0  0
M  END
$$$$
