C21H22O4
APtclcactv06281817023D 0   0.00000     0.00000
 
 47 48  0  0  0  0  0  0  0  0999 V2000
   -3.6383    2.5597   -1.4058 C   0  0  0  0  0  0  0  0  0  0  0  0
   -2.8684    2.1958   -0.1347 C   0  0  0  0  0  0  0  0  0  0  0  0
   -1.5148    2.9090   -0.1366 C   0  0  0  0  0  0  0  0  0  0  0  0
   -3.6609    2.6255    1.0729 C   0  0  0  0  0  0  0  0  0  0  0  0
   -4.8218    3.2127    0.9196 C   0  0  0  0  0  0  0  0  0  0  0  0
   -2.6508    0.7053   -0.0885 C   0  0  0  0  0  0  0  0  0  0  0  0
   -3.7459   -0.1536   -0.0788 C   0  0  0  0  0  0  0  0  0  0  0  0
   -3.5581   -1.5283   -0.0368 C   0  0  0  0  0  0  0  0  0  0  0  0
   -2.2770   -2.0494   -0.0044 C   0  0  0  0  0  0  0  0  0  0  0  0
   -1.1721   -1.1789   -0.0143 C   0  0  0  0  0  0  0  0  0  0  0  0
   -1.3804    0.2055   -0.0621 C   0  0  0  0  0  0  0  0  0  0  0  0
    0.1910   -1.7180    0.0197 C   0  0  0  0  0  0  0  0  0  0  0  0
    1.2521   -0.8770    0.0101 C   0  0  0  0  0  0  0  0  0  0  0  0
    2.5687   -1.3978    0.0430 C   0  0  0  0  0  0  0  0  0  0  0  0
    2.7465   -2.6023    0.0800 O   0  0  0  0  0  0  0  0  0  0  0  0
    3.7265   -0.4802    0.0324 C   0  0  0  0  0  0  0  0  0  0  0  0
    5.0264   -0.9921    0.0649 C   0  0  0  0  0  0  0  0  0  0  0  0
    6.1029   -0.1335    0.0550 C   0  0  0  0  0  0  0  0  0  0  0  0
    5.8979    1.2407    0.0128 C   0  0  0  0  0  0  0  0  0  0  0  0
    4.6064    1.7539   -0.0195 C   0  0  0  0  0  0  0  0  0  0  0  0
    3.5247    0.9017   -0.0157 C   0  0  0  0  0  0  0  0  0  0  0  0
    6.9615    2.0837    0.0036 O   0  0  0  0  0  0  0  0  0  0  0  0
   -2.0874   -3.3922    0.0371 O   0  0  0  0  0  0  0  0  0  0  0  0
   -3.2573   -4.2127    0.0452 C   0  0  0  0  0  0  0  0  0  0  0  0
   -5.0036    0.3555   -0.1101 O   0  0  0  0  0  0  0  0  0  0  0  0
   -3.0651    2.2489   -2.2793 H   0  0  0  0  0  0  0  0  0  0  0  0
   -4.6027    2.0516   -1.4045 H   0  0  0  0  0  0  0  0  0  0  0  0
   -3.7957    3.6377   -1.4392 H   0  0  0  0  0  0  0  0  0  0  0  0
   -1.6722    3.9871   -0.1700 H   0  0  0  0  0  0  0  0  0  0  0  0
   -0.9663    2.6498    0.7690 H   0  0  0  0  0  0  0  0  0  0  0  0
   -0.9416    2.5982   -1.0101 H   0  0  0  0  0  0  0  0  0  0  0  0
   -3.2717    2.4492    2.0649 H   0  0  0  0  0  0  0  0  0  0  0  0
   -5.2109    3.3890   -0.0723 H   0  0  0  0  0  0  0  0  0  0  0  0
   -5.3897    3.5206    1.7850 H   0  0  0  0  0  0  0  0  0  0  0  0
   -4.4113   -2.1904   -0.0291 H   0  0  0  0  0  0  0  0  0  0  0  0
   -0.5356    0.8783   -0.0703 H   0  0  0  0  0  0  0  0  0  0  0  0
    0.3486   -2.7860    0.0525 H   0  0  0  0  0  0  0  0  0  0  0  0
    1.0945    0.1909   -0.0227 H   0  0  0  0  0  0  0  0  0  0  0  0
    5.1864   -2.0596    0.0980 H   0  0  0  0  0  0  0  0  0  0  0  0
    7.1078   -0.5283    0.0804 H   0  0  0  0  0  0  0  0  0  0  0  0
    4.4512    2.8222   -0.0519 H   0  0  0  0  0  0  0  0  0  0  0  0
    2.5216    1.3011   -0.0408 H   0  0  0  0  0  0  0  0  0  0  0  0
    7.2822    2.3028   -0.8820 H   0  0  0  0  0  0  0  0  0  0  0  0
   -3.8617   -3.9750    0.9205 H   0  0  0  0  0  0  0  0  0  0  0  0
   -3.8378   -4.0267   -0.8585 H   0  0  0  0  0  0  0  0  0  0  0  0
   -2.9649   -5.2622    0.0796 H   0  0  0  0  0  0  0  0  0  0  0  0
   -5.3563    0.4780   -1.0021 H   0  0  0  0  0  0  0  0  0  0  0  0
  1  2  1  0  0  0  0
  2  3  1  0  0  0  0
  2  4  1  0  0  0  0
  4  5  2  0  0  0  0
  2  6  1  0  0  0  0
  6  7  2  0  0  0  0
  7  8  1  0  0  0  0
  8  9  2  0  0  0  0
  9 10  1  0  0  0  0
 10 11  2  0  0  0  0
  6 11  1  0  0  0  0
 10 12  1  0  0  0  0
 12 13  2  0  0  0  0
 13 14  1  0  0  0  0
 14 15  2  0  0  0  0
 14 16  1  0  0  0  0
 16 17  2  0  0  0  0
 17 18  1  0  0  0  0
 18 19  2  0  0  0  0
 19 20  1  0  0  0  0
 20 21  2  0  0  0  0
 16 21  1  0  0  0  0
 19 22  1  0  0  0  0
  9 23  1  0  0  0  0
 23 24  1  0  0  0  0
  7 25  1  0  0  0  0
  1 26  1  0  0  0  0
  1 27  1  0  0  0  0
  1 28  1  0  0  0  0
  3 29  1  0  0  0  0
  3 30  1  0  0  0  0
  3 31  1  0  0  0  0
  4 32  1  0  0  0  0
  5 33  1  0  0  0  0
  5 34  1  0  0  0  0
  8 35  1  0  0  0  0
 11 36  1  0  0  0  0
 12 37  1  0  0  0  0
 13 38  1  0  0  0  0
 17 39  1  0  0  0  0
 18 40  1  0  0  0  0
 20 41  1  0  0  0  0
 21 42  1  0  0  0  0
 22 43  1  0  0  0  0
 24 44  1  0  0  0  0
 24 45  1  0  0  0  0
 24 46  1  0  0  0  0
 25 47  1  0  0  0  0
M  END
$$$$
