C28H42N4O6
APtclcactv06281817023D 0   0.00000     0.00000
 
 80 81  0  0  0  0  0  0  0  0999 V2000
  -13.5150    0.2090   -1.3366 C   0  0  0  0  0  0  0  0  0  0  0  0
  -14.7085   -0.4880   -1.3674 C   0  0  0  0  0  0  0  0  0  0  0  0
  -15.3106   -0.8833   -0.1837 C   0  0  0  0  0  0  0  0  0  0  0  0
  -14.7114   -0.5771    1.0343 C   0  0  0  0  0  0  0  0  0  0  0  0
  -13.5151    0.1218    1.0581 C   0  0  0  0  0  0  0  0  0  0  0  0
  -12.9197    0.5133   -0.1265 C   0  0  0  0  0  0  0  0  0  0  0  0
  -11.6187    1.2733   -0.0987 C   0  0  0  0  0  0  0  0  0  0  0  0
  -10.4504    0.2861   -0.1346 C   0  0  0  0  0  0  0  0  0  0  0  0
   -9.1494    1.0461   -0.1069 C   0  0  0  0  0  0  0  0  0  0  0  0
   -9.1560    2.2581   -0.0627 O   0  0  0  0  0  0  0  0  0  0  0  0
   -7.9786    0.3790   -0.1311 N   0  0  0  0  0  0  0  0  0  0  0  0
   -6.7138    1.1179   -0.1041 C   0  0  0  0  0  0  0  0  0  0  0  0
   -5.5455    0.1306   -0.1401 C   0  0  0  0  0  0  0  0  0  0  0  0
   -4.2247    0.9022   -0.1119 C   0  0  0  0  0  0  0  0  0  0  0  0
   -3.1030   -0.0457   -0.1464 N   0  0  0  0  0  0  0  0  0  0  0  0
   -1.8154    0.6611   -0.1206 C   0  0  0  0  0  0  0  0  0  0  0  0
   -0.6739   -0.3569   -0.1576 C   0  0  0  0  0  0  0  0  0  0  0  0
    0.6671    0.3792   -0.1307 C   0  0  0  0  0  0  0  0  0  0  0  0
    1.8086   -0.6389   -0.1678 C   0  0  0  0  0  0  0  0  0  0  0  0
    3.0961    0.0680   -0.1420 N   0  0  0  0  0  0  0  0  0  0  0  0
    4.2178   -0.8800   -0.1765 C   0  0  0  0  0  0  0  0  0  0  0  0
    5.5387   -0.1083   -0.1483 C   0  0  0  0  0  0  0  0  0  0  0  0
    6.7070   -1.0956   -0.1843 C   0  0  0  0  0  0  0  0  0  0  0  0
    7.9717   -0.3567   -0.1572 N   0  0  0  0  0  0  0  0  0  0  0  0
    9.1425   -1.0238   -0.1815 C   0  0  0  0  0  0  0  0  0  0  0  0
    9.1491   -2.2358   -0.2257 O   0  0  0  0  0  0  0  0  0  0  0  0
   10.4435   -0.2638   -0.1537 C   0  0  0  0  0  0  0  0  0  0  0  0
   11.6118   -1.2511   -0.1897 C   0  0  0  0  0  0  0  0  0  0  0  0
   12.9128   -0.4910   -0.1619 C   0  0  0  0  0  0  0  0  0  0  0  0
   13.5082   -0.1869    1.0481 C   0  0  0  0  0  0  0  0  0  0  0  0
   14.7044    0.5119    1.0754 C   0  0  0  0  0  0  0  0  0  0  0  0
   15.3038    0.9060   -0.1170 C   0  0  0  0  0  0  0  0  0  0  0  0
   14.7018    0.5979   -1.3264 C   0  0  0  0  0  0  0  0  0  0  0  0
   13.5112   -0.1044   -1.3468 C   0  0  0  0  0  0  0  0  0  0  0  0
   16.4776    1.5924   -0.0954 O   0  0  0  0  0  0  0  0  0  0  0  0
   15.2912    0.8123    2.2649 O   0  0  0  0  0  0  0  0  0  0  0  0
  -15.2987   -0.9626    2.1988 O   0  0  0  0  0  0  0  0  0  0  0  0
  -16.4849   -1.5687   -0.2122 O   0  0  0  0  0  0  0  0  0  0  0  0
  -13.0444    0.5127   -2.2600 H   0  0  0  0  0  0  0  0  0  0  0  0
  -15.1717   -0.7241   -2.3140 H   0  0  0  0  0  0  0  0  0  0  0  0
  -13.0482    0.3610    2.0021 H   0  0  0  0  0  0  0  0  0  0  0  0
  -11.5643    1.9323   -0.9652 H   0  0  0  0  0  0  0  0  0  0  0  0
  -11.5644    1.8674    0.8136 H   0  0  0  0  0  0  0  0  0  0  0  0
  -10.5048   -0.3729    0.7319 H   0  0  0  0  0  0  0  0  0  0  0  0
  -10.5047   -0.3080   -1.0469 H   0  0  0  0  0  0  0  0  0  0  0  0
   -7.9733   -0.5903   -0.1665 H   0  0  0  0  0  0  0  0  0  0  0  0
   -6.6594    1.7768   -0.9707 H   0  0  0  0  0  0  0  0  0  0  0  0
   -6.6595    1.7120    0.8081 H   0  0  0  0  0  0  0  0  0  0  0  0
   -5.5999   -0.5284    0.7264 H   0  0  0  0  0  0  0  0  0  0  0  0
   -5.5998   -0.4635   -1.0523 H   0  0  0  0  0  0  0  0  0  0  0  0
   -4.1703    1.5612   -0.9784 H   0  0  0  0  0  0  0  0  0  0  0  0
   -4.1704    1.4963    0.8004 H   0  0  0  0  0  0  0  0  0  0  0  0
   -3.1666   -0.7090    0.6113 H   0  0  0  0  0  0  0  0  0  0  0  0
   -1.7443    1.3184   -0.9872 H   0  0  0  0  0  0  0  0  0  0  0  0
   -1.7444    1.2536    0.7916 H   0  0  0  0  0  0  0  0  0  0  0  0
   -0.7450   -1.0143    0.7089 H   0  0  0  0  0  0  0  0  0  0  0  0
   -0.7449   -0.9494   -1.0698 H   0  0  0  0  0  0  0  0  0  0  0  0
    0.7382    1.0365   -0.9973 H   0  0  0  0  0  0  0  0  0  0  0  0
    0.7381    0.9716    0.7814 H   0  0  0  0  0  0  0  0  0  0  0  0
    1.7375   -1.2962    0.6988 H   0  0  0  0  0  0  0  0  0  0  0  0
    1.7376   -1.2313   -1.0800 H   0  0  0  0  0  0  0  0  0  0  0  0
    3.1598    0.7312   -0.8997 H   0  0  0  0  0  0  0  0  0  0  0  0
    4.1634   -1.5389    0.6900 H   0  0  0  0  0  0  0  0  0  0  0  0
    4.1635   -1.4741   -1.0887 H   0  0  0  0  0  0  0  0  0  0  0  0
    5.5931    0.5507   -1.0148 H   0  0  0  0  0  0  0  0  0  0  0  0
    5.5930    0.4858    0.7639 H   0  0  0  0  0  0  0  0  0  0  0  0
    6.6526   -1.7546    0.6823 H   0  0  0  0  0  0  0  0  0  0  0  0
    6.6527   -1.6897   -1.0965 H   0  0  0  0  0  0  0  0  0  0  0  0
    7.9665    0.6126   -0.1219 H   0  0  0  0  0  0  0  0  0  0  0  0
   10.4979    0.3952   -1.0203 H   0  0  0  0  0  0  0  0  0  0  0  0
   10.4978    0.3303    0.7585 H   0  0  0  0  0  0  0  0  0  0  0  0
   11.5574   -1.9100    0.6768 H   0  0  0  0  0  0  0  0  0  0  0  0
   11.5575   -1.8452   -1.1019 H   0  0  0  0  0  0  0  0  0  0  0  0
   13.0407   -0.4936    1.9721 H   0  0  0  0  0  0  0  0  0  0  0  0
   15.1649    0.9027   -2.2533 H   0  0  0  0  0  0  0  0  0  0  0  0
   13.0430   -0.3439   -2.2901 H   0  0  0  0  0  0  0  0  0  0  0  0
   17.2632    1.0289   -0.1168 H   0  0  0  0  0  0  0  0  0  0  0  0
   15.9067    0.1371    2.5815 H   0  0  0  0  0  0  0  0  0  0  0  0
  -15.0230   -1.8363    2.5080 H   0  0  0  0  0  0  0  0  0  0  0  0
  -16.3789   -2.5292   -0.2484 H   0  0  0  0  0  0  0  0  0  0  0  0
  1  2  2  0  0  0  0
  2  3  1  0  0  0  0
  3  4  2  0  0  0  0
  4  5  1  0  0  0  0
  5  6  2  0  0  0  0
  1  6  1  0  0  0  0
  6  7  1  0  0  0  0
  7  8  1  0  0  0  0
  8  9  1  0  0  0  0
  9 10  2  0  0  0  0
  9 11  1  0  0  0  0
 11 12  1  0  0  0  0
 12 13  1  0  0  0  0
 13 14  1  0  0  0  0
 14 15  1  0  0  0  0
 15 16  1  0  0  0  0
 16 17  1  0  0  0  0
 17 18  1  0  0  0  0
 18 19  1  0  0  0  0
 19 20  1  0  0  0  0
 20 21  1  0  0  0  0
 21 22  1  0  0  0  0
 22 23  1  0  0  0  0
 23 24  1  0  0  0  0
 24 25  1  0  0  0  0
 25 26  2  0  0  0  0
 25 27  1  0  0  0  0
 27 28  1  0  0  0  0
 28 29  1  0  0  0  0
 29 30  2  0  0  0  0
 30 31  1  0  0  0  0
 31 32  2  0  0  0  0
 32 33  1  0  0  0  0
 33 34  2  0  0  0  0
 29 34  1  0  0  0  0
 32 35  1  0  0  0  0
 31 36  1  0  0  0  0
  4 37  1  0  0  0  0
  3 38  1  0  0  0  0
  1 39  1  0  0  0  0
  2 40  1  0  0  0  0
  5 41  1  0  0  0  0
  7 42  1  0  0  0  0
  7 43  1  0  0  0  0
  8 44  1  0  0  0  0
  8 45  1  0  0  0  0
 11 46  1  0  0  0  0
 12 47  1  0  0  0  0
 12 48  1  0  0  0  0
 13 49  1  0  0  0  0
 13 50  1  0  0  0  0
 14 51  1  0  0  0  0
 14 52  1  0  0  0  0
 15 53  1  0  0  0  0
 16 54  1  0  0  0  0
 16 55  1  0  0  0  0
 17 56  1  0  0  0  0
 17 57  1  0  0  0  0
 18 58  1  0  0  0  0
 18 59  1  0  0  0  0
 19 60  1  0  0  0  0
 19 61  1  0  0  0  0
 20 62  1  0  0  0  0
 21 63  1  0  0  0  0
 21 64  1  0  0  0  0
 22 65  1  0  0  0  0
 22 66  1  0  0  0  0
 23 67  1  0  0  0  0
 23 68  1  0  0  0  0
 24 69  1  0  0  0  0
 27 70  1  0  0  0  0
 27 71  1  0  0  0  0
 28 72  1  0  0  0  0
 28 73  1  0  0  0  0
 30 74  1  0  0  0  0
 33 75  1  0  0  0  0
 34 76  1  0  0  0  0
 35 77  1  0  0  0  0
 36 78  1  0  0  0  0
 37 79  1  0  0  0  0
 38 80  1  0  0  0  0
M  END
$$$$
