C15H14N2O2
APtclcactv06281817023D 0   0.00000     0.00000
 
 33 35  0  0  0  0  0  0  0  0999 V2000
    4.9814    1.2864   -0.0042 C   0  0  0  0  0  0  0  0  0  0  0  0
    3.5578    1.4095   -0.0019 O   0  0  0  0  0  0  0  0  0  0  0  0
    2.8383    0.2557   -0.0012 C   0  0  0  0  0  0  0  0  0  0  0  0
    3.4880   -0.9642   -0.0026 C   0  0  0  0  0  0  0  0  0  0  0  0
    2.7644   -2.1471   -0.0023 C   0  0  0  0  0  0  0  0  0  0  0  0
    1.3874   -2.1192   -0.0002 C   0  0  0  0  0  0  0  0  0  0  0  0
    0.7164   -0.8963    0.0017 C   0  0  0  0  0  0  0  0  0  0  0  0
    1.4432    0.3027    0.0068 C   0  0  0  0  0  0  0  0  0  0  0  0
    0.5452    1.3573    0.0078 N   0  0  0  0  0  0  0  0  0  0  0  0
   -0.7489    0.8826    0.0034 C   0  0  0  0  0  0  0  0  0  0  0  0
   -0.7053   -0.5195    0.0042 C   0  0  0  0  0  0  0  0  0  0  0  0
   -1.9099   -1.2324    0.0010 C   0  0  0  0  0  0  0  0  0  0  0  0
   -3.1038   -0.5285   -0.0029 C   0  0  0  0  0  0  0  0  0  0  0  0
   -3.1167    0.7905   -0.0040 N   0  0  0  0  0  0  0  0  0  0  0  0
   -2.0035    1.5120    0.0028 C   0  0  0  0  0  0  0  0  0  0  0  0
   -2.0847    2.9857    0.0016 C   0  0  0  0  0  0  0  0  0  0  0  0
   -3.2687    3.5851   -0.0062 C   0  0  0  0  0  0  0  0  0  0  0  0
   -1.9088   -2.5908    0.0012 O   0  0  0  0  0  0  0  0  0  0  0  0
   -3.1815   -3.2406   -0.0022 C   0  0  0  0  0  0  0  0  0  0  0  0
    5.4320    2.2789   -0.0046 H   0  0  0  0  0  0  0  0  0  0  0  0
    5.3005    0.7428    0.8851 H   0  0  0  0  0  0  0  0  0  0  0  0
    5.2977    0.7434   -0.8949 H   0  0  0  0  0  0  0  0  0  0  0  0
    4.5676   -0.9964   -0.0043 H   0  0  0  0  0  0  0  0  0  0  0  0
    3.2829   -3.0945   -0.0042 H   0  0  0  0  0  0  0  0  0  0  0  0
    0.8279   -3.0429   -0.0003 H   0  0  0  0  0  0  0  0  0  0  0  0
    0.7916    2.2954    0.0113 H   0  0  0  0  0  0  0  0  0  0  0  0
   -4.0389   -1.0689   -0.0054 H   0  0  0  0  0  0  0  0  0  0  0  0
   -1.1805    3.5764    0.0070 H   0  0  0  0  0  0  0  0  0  0  0  0
   -3.3281    4.6635   -0.0071 H   0  0  0  0  0  0  0  0  0  0  0  0
   -4.1729    2.9945   -0.0117 H   0  0  0  0  0  0  0  0  0  0  0  0
   -3.0378   -4.3211   -0.0017 H   0  0  0  0  0  0  0  0  0  0  0  0
   -3.7412   -2.9481    0.8862 H   0  0  0  0  0  0  0  0  0  0  0  0
   -3.7363   -2.9483   -0.8938 H   0  0  0  0  0  0  0  0  0  0  0  0
  1  2  1  0  0  0  0
  2  3  1  0  0  0  0
  3  4  2  0  0  0  0
  4  5  1  0  0  0  0
  5  6  2  0  0  0  0
  6  7  1  0  0  0  0
  7  8  2  0  0  0  0
  3  8  1  0  0  0  0
  8  9  1  0  0  0  0
  9 10  1  0  0  0  0
 10 11  2  0  0  0  0
  7 11  1  0  0  0  0
 11 12  1  0  0  0  0
 12 13  2  0  0  0  0
 13 14  1  0  0  0  0
 14 15  2  0  0  0  0
 10 15  1  0  0  0  0
 15 16  1  0  0  0  0
 16 17  2  0  0  0  0
 12 18  1  0  0  0  0
 18 19  1  0  0  0  0
  1 20  1  0  0  0  0
  1 21  1  0  0  0  0
  1 22  1  0  0  0  0
  4 23  1  0  0  0  0
  5 24  1  0  0  0  0
  6 25  1  0  0  0  0
  9 26  1  0  0  0  0
 13 27  1  0  0  0  0
 16 28  1  0  0  0  0
 17 29  1  0  0  0  0
 17 30  1  0  0  0  0
 19 31  1  0  0  0  0
 19 32  1  0  0  0  0
 19 33  1  0  0  0  0
M  END
$$$$
