C16H10O6
APtclcactv06281817013D 0   0.00000     0.00000
 
 32 35  0  0  0  0  0  0  0  0999 V2000
   -2.5363    3.5548   -0.0020 C   0  0  0  0  0  0  0  0  0  0  0  0
   -1.6555    2.4295   -0.0006 O   0  0  0  0  0  0  0  0  0  0  0  0
   -2.2281    1.1988   -0.0059 C   0  0  0  0  0  0  0  0  0  0  0  0
   -1.4266    0.0478   -0.0049 C   0  0  0  0  0  0  0  0  0  0  0  0
   -2.0222   -1.2260   -0.0105 C   0  0  0  0  0  0  0  0  0  0  0  0
   -3.4046   -1.3310   -0.0166 C   0  0  0  0  0  0  0  0  0  0  0  0
   -4.1898   -0.1885   -0.0172 C   0  0  0  0  0  0  0  0  0  0  0  0
   -3.6046    1.0725   -0.0067 C   0  0  0  0  0  0  0  0  0  0  0  0
   -5.5429   -0.3022   -0.0236 O   0  0  0  0  0  0  0  0  0  0  0  0
   -1.2551   -2.3386   -0.0094 O   0  0  0  0  0  0  0  0  0  0  0  0
    0.0869   -2.2781   -0.0036 C   0  0  0  0  0  0  0  0  0  0  0  0
    0.7311   -3.3116   -0.0033 O   0  0  0  0  0  0  0  0  0  0  0  0
    0.7643   -1.0414    0.0016 C   0  0  0  0  0  0  0  0  0  0  0  0
    0.0366    0.1471    0.0014 C   0  0  0  0  0  0  0  0  0  0  0  0
    0.8913    1.1813    0.0062 O   0  0  0  0  0  0  0  0  0  0  0  0
    2.1762    0.7625    0.0096 C   0  0  0  0  0  0  0  0  0  0  0  0
    2.1812   -0.6411    0.0074 C   0  0  0  0  0  0  0  0  0  0  0  0
    3.3856   -1.3394    0.0103 C   0  0  0  0  0  0  0  0  0  0  0  0
    4.5775   -0.6483    0.0154 C   0  0  0  0  0  0  0  0  0  0  0  0
    4.5775    0.7427    0.0176 C   0  0  0  0  0  0  0  0  0  0  0  0
    3.3856    1.4452    0.0146 C   0  0  0  0  0  0  0  0  0  0  0  0
    5.7577    1.4171    0.0226 O   0  0  0  0  0  0  0  0  0  0  0  0
   -3.1608    3.5262   -0.8949 H   0  0  0  0  0  0  0  0  0  0  0  0
   -3.1689    3.5222    0.8851 H   0  0  0  0  0  0  0  0  0  0  0  0
   -1.9510    4.4743    0.0027 H   0  0  0  0  0  0  0  0  0  0  0  0
   -3.8709   -2.3052   -0.0213 H   0  0  0  0  0  0  0  0  0  0  0  0
   -4.2267    1.9553   -0.0073 H   0  0  0  0  0  0  0  0  0  0  0  0
   -5.9388   -0.3374    0.8579 H   0  0  0  0  0  0  0  0  0  0  0  0
    3.3856   -2.4194    0.0090 H   0  0  0  0  0  0  0  0  0  0  0  0
    5.5133   -1.1875    0.0180 H   0  0  0  0  0  0  0  0  0  0  0  0
    3.3956    2.5251    0.0164 H   0  0  0  0  0  0  0  0  0  0  0  0
    6.1021    1.6136   -0.8594 H   0  0  0  0  0  0  0  0  0  0  0  0
  1  2  1  0  0  0  0
  2  3  1  0  0  0  0
  3  4  2  0  0  0  0
  4  5  1  0  0  0  0
  5  6  2  0  0  0  0
  6  7  1  0  0  0  0
  7  8  2  0  0  0  0
  3  8  1  0  0  0  0
  7  9  1  0  0  0  0
  5 10  1  0  0  0  0
 10 11  1  0  0  0  0
 11 12  2  0  0  0  0
 11 13  1  0  0  0  0
 13 14  2  0  0  0  0
  4 14  1  0  0  0  0
 14 15  1  0  0  0  0
 15 16  1  0  0  0  0
 16 17  2  0  0  0  0
 13 17  1  0  0  0  0
 17 18  1  0  0  0  0
 18 19  2  0  0  0  0
 19 20  1  0  0  0  0
 20 21  2  0  0  0  0
 16 21  1  0  0  0  0
 20 22  1  0  0  0  0
  1 23  1  0  0  0  0
  1 24  1  0  0  0  0
  1 25  1  0  0  0  0
  6 26  1  0  0  0  0
  8 27  1  0  0  0  0
  9 28  1  0  0  0  0
 18 29  1  0  0  0  0
 19 30  1  0  0  0  0
 21 31  1  0  0  0  0
 22 32  1  0  0  0  0
M  END
$$$$
