C15H24O
APtclcactv06281817013D 0   0.00000     0.00000
 
 40 41  0  0  0  0  0  0  0  0999 V2000
    3.6740    0.7899    0.7684 C   0  0  0  0  0  0  0  0  0  0  0  0
    2.5669    0.2013   -0.0675 C   0  0  0  0  0  0  0  0  0  0  0  0
    1.4251    0.8160   -0.2443 C   0  0  0  0  0  0  0  0  0  0  0  0
    1.0595    2.1165    0.4024 C   0  0  0  0  0  0  0  0  0  0  0  0
   -0.3467    1.9850    1.0048 C   0  0  0  0  0  0  0  0  0  0  0  0
   -1.3585    1.7136   -0.1079 C   0  0  0  0  0  0  0  0  0  0  0  0
   -2.0412    0.3481   -0.1757 C   0  0  0  0  0  0  0  0  0  0  0  0
   -2.7248    1.5228    0.2684 O   0  0  0  0  0  0  0  0  0  0  0  0
   -1.7168   -0.7101    0.8776 C   0  0  0  0  0  0  0  0  0  0  0  0
   -0.9342   -1.8620    0.2316 C   0  0  0  0  0  0  0  0  0  0  0  0
    0.5137   -1.4739    0.1812 C   0  0  0  0  0  0  0  0  0  0  0  0
    1.2838   -1.6932   -0.8547 C   0  0  0  0  0  0  0  0  0  0  0  0
    2.7068   -1.1467   -0.7677 C   0  0  0  0  0  0  0  0  0  0  0  0
   -1.0996   -3.1319    1.0687 C   0  0  0  0  0  0  0  0  0  0  0  0
   -1.4527   -2.1066   -1.1870 C   0  0  0  0  0  0  0  0  0  0  0  0
   -1.1029    2.4511   -1.4277 C   0  0  0  0  0  0  0  0  0  0  0  0
    3.3566    1.7546    1.1645 H   0  0  0  0  0  0  0  0  0  0  0  0
    3.9037    0.1160    1.5937 H   0  0  0  0  0  0  0  0  0  0  0  0
    4.5625    0.9250    0.1516 H   0  0  0  0  0  0  0  0  0  0  0  0
    0.6998    0.3560   -0.8990 H   0  0  0  0  0  0  0  0  0  0  0  0
    1.7755    2.3471    1.1913 H   0  0  0  0  0  0  0  0  0  0  0  0
    1.0651    2.9108   -0.3441 H   0  0  0  0  0  0  0  0  0  0  0  0
   -0.3607    1.1600    1.7170 H   0  0  0  0  0  0  0  0  0  0  0  0
   -0.6101    2.9104    1.5170 H   0  0  0  0  0  0  0  0  0  0  0  0
   -2.2987   -0.0390   -1.1647 H   0  0  0  0  0  0  0  0  0  0  0  0
   -1.1154   -0.2619    1.6685 H   0  0  0  0  0  0  0  0  0  0  0  0
   -2.6439   -1.0950    1.3023 H   0  0  0  0  0  0  0  0  0  0  0  0
    0.9435   -0.9880    1.0447 H   0  0  0  0  0  0  0  0  0  0  0  0
    0.9325   -2.2287   -1.7243 H   0  0  0  0  0  0  0  0  0  0  0  0
    3.1255   -1.0204   -1.7661 H   0  0  0  0  0  0  0  0  0  0  0  0
    3.3327   -1.8135   -0.1747 H   0  0  0  0  0  0  0  0  0  0  0  0
   -2.1555   -3.3975    1.1213 H   0  0  0  0  0  0  0  0  0  0  0  0
   -0.5426   -3.9468    0.6065 H   0  0  0  0  0  0  0  0  0  0  0  0
   -0.7186   -2.9561    2.0747 H   0  0  0  0  0  0  0  0  0  0  0  0
   -1.2043   -1.2525   -1.8170 H   0  0  0  0  0  0  0  0  0  0  0  0
   -0.9886   -3.0052   -1.5935 H   0  0  0  0  0  0  0  0  0  0  0  0
   -2.5347   -2.2364   -1.1610 H   0  0  0  0  0  0  0  0  0  0  0  0
   -0.4068    1.8747   -2.0370 H   0  0  0  0  0  0  0  0  0  0  0  0
   -2.0435    2.5705   -1.9652 H   0  0  0  0  0  0  0  0  0  0  0  0
   -0.6766    3.4323   -1.2189 H   0  0  0  0  0  0  0  0  0  0  0  0
  1  2  1  0  0  0  0
  2  3  2  0  0  0  0
  3  4  1  0  0  0  0
  4  5  1  0  0  0  0
  5  6  1  0  0  0  0
  6  7  1  0  0  0  0
  7  8  1  0  0  0  0
  6  8  1  0  0  0  0
  7  9  1  0  0  0  0
  9 10  1  0  0  0  0
 10 11  1  0  0  0  0
 11 12  2  0  0  0  0
 12 13  1  0  0  0  0
  2 13  1  0  0  0  0
 10 14  1  0  0  0  0
 10 15  1  0  0  0  0
  6 16  1  0  0  0  0
  1 17  1  0  0  0  0
  1 18  1  0  0  0  0
  1 19  1  0  0  0  0
  3 20  1  0  0  0  0
  4 21  1  0  0  0  0
  4 22  1  0  0  0  0
  5 23  1  0  0  0  0
  5 24  1  0  0  0  0
  7 25  1  0  0  0  0
  9 26  1  0  0  0  0
  9 27  1  0  0  0  0
 11 28  1  0  0  0  0
 12 29  1  0  0  0  0
 13 30  1  0  0  0  0
 13 31  1  0  0  0  0
 14 32  1  0  0  0  0
 14 33  1  0  0  0  0
 14 34  1  0  0  0  0
 15 35  1  0  0  0  0
 15 36  1  0  0  0  0
 15 37  1  0  0  0  0
 16 38  1  0  0  0  0
 16 39  1  0  0  0  0
 16 40  1  0  0  0  0
M  END
$$$$
