C21H18O6
APtclcactv06281817013D 0   0.00000     0.00000
 
 45 49  0  0  0  0  0  0  0  0999 V2000
    2.3780    2.8719    1.6104 C   0  0  0  0  0  0  0  0  0  0  0  0
    2.0601    2.8757    0.1138 C   0  0  0  0  0  0  0  0  0  0  0  0
    3.3476    2.6481   -0.6890 C   0  0  0  0  0  0  0  0  0  0  0  0
    3.9972    1.3525   -0.1967 C   0  0  0  0  0  0  0  0  0  0  0  0
    2.9627    0.2574   -0.1303 C   0  0  0  0  0  0  0  0  0  0  0  0
    3.3934   -1.0673   -0.0738 C   0  0  0  0  0  0  0  0  0  0  0  0
    2.4835   -2.1092   -0.0070 C   0  0  0  0  0  0  0  0  0  0  0  0
    1.1232   -1.8427    0.0038 C   0  0  0  0  0  0  0  0  0  0  0  0
    0.6843   -0.5097   -0.0558 C   0  0  0  0  0  0  0  0  0  0  0  0
    1.6141    0.5434   -0.1243 C   0  0  0  0  0  0  0  0  0  0  0  0
    1.1505    1.8168   -0.1878 O   0  0  0  0  0  0  0  0  0  0  0  0
   -0.7563   -0.2347   -0.0464 C   0  0  0  0  0  0  0  0  0  0  0  0
   -1.6213   -1.3250    0.0240 C   0  0  0  0  0  0  0  0  0  0  0  0
   -2.9793   -0.7563    0.0162 C   0  0  0  0  0  0  0  0  0  0  0  0
   -2.8052    0.6345   -0.0590 C   0  0  0  0  0  0  0  0  0  0  0  0
   -1.4795    0.8942   -0.0933 O   0  0  0  0  0  0  0  0  0  0  0  0
   -3.9228    1.4586   -0.0848 C   0  0  0  0  0  0  0  0  0  0  0  0
   -5.1908    0.9074   -0.0363 C   0  0  0  0  0  0  0  0  0  0  0  0
   -5.3587   -0.4714    0.0390 C   0  0  0  0  0  0  0  0  0  0  0  0
   -4.2594   -1.3015    0.0652 C   0  0  0  0  0  0  0  0  0  0  0  0
   -6.2807    1.7193   -0.0620 O   0  0  0  0  0  0  0  0  0  0  0  0
   -1.0961   -2.6323    0.0834 C   0  0  0  0  0  0  0  0  0  0  0  0
   -1.8589   -3.5795    0.1462 O   0  0  0  0  0  0  0  0  0  0  0  0
    0.2292   -2.8539    0.0718 O   0  0  0  0  0  0  0  0  0  0  0  0
    4.7235   -1.3398   -0.0841 O   0  0  0  0  0  0  0  0  0  0  0  0
    5.1043   -2.7158   -0.0242 C   0  0  0  0  0  0  0  0  0  0  0  0
    1.4385    4.2178   -0.2779 C   0  0  0  0  0  0  0  0  0  0  0  0
    3.0881    3.6683    1.8330 H   0  0  0  0  0  0  0  0  0  0  0  0
    1.4611    3.0339    2.1771 H   0  0  0  0  0  0  0  0  0  0  0  0
    2.8113    1.9109    1.8874 H   0  0  0  0  0  0  0  0  0  0  0  0
    3.1091    2.5599   -1.7489 H   0  0  0  0  0  0  0  0  0  0  0  0
    4.0301    3.4836   -0.5336 H   0  0  0  0  0  0  0  0  0  0  0  0
    4.7906    1.0606   -0.8847 H   0  0  0  0  0  0  0  0  0  0  0  0
    4.4195    1.5129    0.7953 H   0  0  0  0  0  0  0  0  0  0  0  0
    2.8339   -3.1299    0.0364 H   0  0  0  0  0  0  0  0  0  0  0  0
   -3.8019    2.5302   -0.1424 H   0  0  0  0  0  0  0  0  0  0  0  0
   -6.3527   -0.8920    0.0773 H   0  0  0  0  0  0  0  0  0  0  0  0
   -4.3903   -2.3720    0.1232 H   0  0  0  0  0  0  0  0  0  0  0  0
   -6.6097    1.9080   -0.9515 H   0  0  0  0  0  0  0  0  0  0  0  0
    4.6904   -3.2450   -0.8825 H   0  0  0  0  0  0  0  0  0  0  0  0
    6.1915   -2.7929   -0.0396 H   0  0  0  0  0  0  0  0  0  0  0  0
    4.7216   -3.1591    0.8951 H   0  0  0  0  0  0  0  0  0  0  0  0
    2.1401    5.0218   -0.0555 H   0  0  0  0  0  0  0  0  0  0  0  0
    1.2136    4.2165   -1.3444 H   0  0  0  0  0  0  0  0  0  0  0  0
    0.5191    4.3711    0.2872 H   0  0  0  0  0  0  0  0  0  0  0  0
  1  2  1  0  0  0  0
  2  3  1  0  0  0  0
  3  4  1  0  0  0  0
  4  5  1  0  0  0  0
  5  6  2  0  0  0  0
  6  7  1  0  0  0  0
  7  8  2  0  0  0  0
  8  9  1  0  0  0  0
  9 10  2  0  0  0  0
  5 10  1  0  0  0  0
 10 11  1  0  0  0  0
  2 11  1  0  0  0  0
  9 12  1  0  0  0  0
 12 13  2  0  0  0  0
 13 14  1  0  0  0  0
 14 15  2  0  0  0  0
 15 16  1  0  0  0  0
 12 16  1  0  0  0  0
 15 17  1  0  0  0  0
 17 18  2  0  0  0  0
 18 19  1  0  0  0  0
 19 20  2  0  0  0  0
 14 20  1  0  0  0  0
 18 21  1  0  0  0  0
 13 22  1  0  0  0  0
 22 23  2  0  0  0  0
 22 24  1  0  0  0  0
  8 24  1  0  0  0  0
  6 25  1  0  0  0  0
 25 26  1  0  0  0  0
  2 27  1  0  0  0  0
  1 28  1  0  0  0  0
  1 29  1  0  0  0  0
  1 30  1  0  0  0  0
  3 31  1  0  0  0  0
  3 32  1  0  0  0  0
  4 33  1  0  0  0  0
  4 34  1  0  0  0  0
  7 35  1  0  0  0  0
 17 36  1  0  0  0  0
 19 37  1  0  0  0  0
 20 38  1  0  0  0  0
 21 39  1  0  0  0  0
 26 40  1  0  0  0  0
 26 41  1  0  0  0  0
 26 42  1  0  0  0  0
 27 43  1  0  0  0  0
 27 44  1  0  0  0  0
 27 45  1  0  0  0  0
M  END
$$$$
