C19H16O7
APtclcactv06281817003D 0   0.00000     0.00000
 
 42 45  0  0  0  0  0  0  0  0999 V2000
    6.5774    1.7171   -0.8176 C   0  0  0  0  0  0  0  0  0  0  0  0
    5.2097    1.6430   -1.2251 O   0  0  0  0  0  0  0  0  0  0  0  0
    4.4193    0.7479   -0.5744 C   0  0  0  0  0  0  0  0  0  0  0  0
    3.0841    0.6257   -0.9202 C   0  0  0  0  0  0  0  0  0  0  0  0
    2.2759   -0.2919   -0.2531 C   0  0  0  0  0  0  0  0  0  0  0  0
    2.8183   -1.0845    0.7625 C   0  0  0  0  0  0  0  0  0  0  0  0
    4.1550   -0.9537    1.1001 C   0  0  0  0  0  0  0  0  0  0  0  0
    4.9538   -0.0454    0.4313 C   0  0  0  0  0  0  0  0  0  0  0  0
    2.0348   -1.9818    1.4180 O   0  0  0  0  0  0  0  0  0  0  0  0
    2.6565   -2.7577    2.4444 C   0  0  0  0  0  0  0  0  0  0  0  0
    0.8450   -0.4271   -0.6187 C   0  0  0  0  0  0  0  0  0  0  0  0
    0.4053   -1.4914   -1.3387 C   0  0  0  0  0  0  0  0  0  0  0  0
   -0.8670   -1.6468   -1.7051 O   0  0  0  0  0  0  0  0  0  0  0  0
   -1.8542   -0.9361   -1.1255 C   0  0  0  0  0  0  0  0  0  0  0  0
   -3.1777   -1.3284   -1.2668 C   0  0  0  0  0  0  0  0  0  0  0  0
   -4.1931   -0.5898   -0.6793 C   0  0  0  0  0  0  0  0  0  0  0  0
   -3.8987    0.5568    0.0595 C   0  0  0  0  0  0  0  0  0  0  0  0
   -2.5834    0.9634    0.2147 C   0  0  0  0  0  0  0  0  0  0  0  0
   -1.5574    0.2130   -0.3698 C   0  0  0  0  0  0  0  0  0  0  0  0
   -0.1437    0.5882   -0.2053 C   0  0  0  0  0  0  0  0  0  0  0  0
    0.1910    1.6726    0.2405 O   0  0  0  0  0  0  0  0  0  0  0  0
   -2.2923    2.0815    0.9286 O   0  0  0  0  0  0  0  0  0  0  0  0
   -2.0619    1.9154    2.3291 C   0  0  0  0  0  0  0  0  0  0  0  0
   -5.0688    1.0915    0.5210 O   0  0  0  0  0  0  0  0  0  0  0  0
   -6.0424    0.0370    0.4064 C   0  0  0  0  0  0  0  0  0  0  0  0
   -5.5458   -0.7717   -0.6760 O   0  0  0  0  0  0  0  0  0  0  0  0
    6.6283    1.9929    0.2357 H   0  0  0  0  0  0  0  0  0  0  0  0
    7.0527    0.7469   -0.9626 H   0  0  0  0  0  0  0  0  0  0  0  0
    7.0944    2.4679   -1.4152 H   0  0  0  0  0  0  0  0  0  0  0  0
    2.6701    1.2408   -1.7055 H   0  0  0  0  0  0  0  0  0  0  0  0
    4.5751   -1.5656    1.8846 H   0  0  0  0  0  0  0  0  0  0  0  0
    5.9957    0.0532    0.6978 H   0  0  0  0  0  0  0  0  0  0  0  0
    3.4727   -3.3395    2.0161 H   0  0  0  0  0  0  0  0  0  0  0  0
    3.0488   -2.0937    3.2146 H   0  0  0  0  0  0  0  0  0  0  0  0
    1.9222   -3.4319    2.8853 H   0  0  0  0  0  0  0  0  0  0  0  0
    1.1202   -2.2473   -1.6285 H   0  0  0  0  0  0  0  0  0  0  0  0
   -3.4179   -2.2132   -1.8376 H   0  0  0  0  0  0  0  0  0  0  0  0
   -2.9516    1.4931    2.7961 H   0  0  0  0  0  0  0  0  0  0  0  0
   -1.2177    1.2428    2.4811 H   0  0  0  0  0  0  0  0  0  0  0  0
   -1.8405    2.8836    2.7782 H   0  0  0  0  0  0  0  0  0  0  0  0
   -6.0886   -0.5433    1.3279 H   0  0  0  0  0  0  0  0  0  0  0  0
   -7.0224    0.4458    0.1606 H   0  0  0  0  0  0  0  0  0  0  0  0
  1  2  1  0  0  0  0
  2  3  1  0  0  0  0
  3  4  2  0  0  0  0
  4  5  1  0  0  0  0
  5  6  2  0  0  0  0
  6  7  1  0  0  0  0
  7  8  2  0  0  0  0
  3  8  1  0  0  0  0
  6  9  1  0  0  0  0
  9 10  1  0  0  0  0
  5 11  1  0  0  0  0
 11 12  2  0  0  0  0
 12 13  1  0  0  0  0
 13 14  1  0  0  0  0
 14 15  2  0  0  0  0
 15 16  1  0  0  0  0
 16 17  2  0  0  0  0
 17 18  1  0  0  0  0
 18 19  2  0  0  0  0
 14 19  1  0  0  0  0
 19 20  1  0  0  0  0
 11 20  1  0  0  0  0
 20 21  2  0  0  0  0
 18 22  1  0  0  0  0
 22 23  1  0  0  0  0
 17 24  1  0  0  0  0
 24 25  1  0  0  0  0
 25 26  1  0  0  0  0
 16 26  1  0  0  0  0
  1 27  1  0  0  0  0
  1 28  1  0  0  0  0
  1 29  1  0  0  0  0
  4 30  1  0  0  0  0
  7 31  1  0  0  0  0
  8 32  1  0  0  0  0
 10 33  1  0  0  0  0
 10 34  1  0  0  0  0
 10 35  1  0  0  0  0
 12 36  1  0  0  0  0
 15 37  1  0  0  0  0
 23 38  1  0  0  0  0
 23 39  1  0  0  0  0
 23 40  1  0  0  0  0
 25 41  1  0  0  0  0
 25 42  1  0  0  0  0
M  END
$$$$
