C11H10O4
APtclcactv06281817013D 0   0.00000     0.00000
 
 25 26  0  0  0  0  0  0  0  0999 V2000
    3.4650   -2.0095    0.0162 C   0  0  0  0  0  0  0  0  0  0  0  0
    2.3262   -1.0226    0.0069 C   0  0  0  0  0  0  0  0  0  0  0  0
    2.6131    0.2904    0.0033 C   0  0  0  0  0  0  0  0  0  0  0  0
    1.5557    1.2407   -0.0055 C   0  0  0  0  0  0  0  0  0  0  0  0
    1.7791    2.4397   -0.0094 O   0  0  0  0  0  0  0  0  0  0  0  0
    0.1804    0.7174   -0.0100 C   0  0  0  0  0  0  0  0  0  0  0  0
   -0.0026   -0.6768   -0.0055 C   0  0  0  0  0  0  0  0  0  0  0  0
    1.0731   -1.4912   -0.0027 O   0  0  0  0  0  0  0  0  0  0  0  0
   -1.2885   -1.1948   -0.0096 C   0  0  0  0  0  0  0  0  0  0  0  0
   -2.3801   -0.3407   -0.0185 C   0  0  0  0  0  0  0  0  0  0  0  0
   -2.2017    1.0389   -0.0230 C   0  0  0  0  0  0  0  0  0  0  0  0
   -0.9275    1.5746   -0.0181 C   0  0  0  0  0  0  0  0  0  0  0  0
   -0.7512    2.9201   -0.0225 O   0  0  0  0  0  0  0  0  0  0  0  0
   -3.6360   -0.8557   -0.0234 O   0  0  0  0  0  0  0  0  0  0  0  0
   -1.4996   -2.6869   -0.0049 C   0  0  0  0  0  0  0  0  0  0  0  0
    3.7346   -2.2435    1.0461 H   0  0  0  0  0  0  0  0  0  0  0  0
    3.1592   -2.9220   -0.4956 H   0  0  0  0  0  0  0  0  0  0  0  0
    4.3249   -1.5769   -0.4952 H   0  0  0  0  0  0  0  0  0  0  0  0
    3.6410    0.6218    0.0073 H   0  0  0  0  0  0  0  0  0  0  0  0
   -3.0611    1.6930   -0.0299 H   0  0  0  0  0  0  0  0  0  0  0  0
   -0.7050    3.3136    0.8596 H   0  0  0  0  0  0  0  0  0  0  0  0
   -4.0046   -1.0018    0.8586 H   0  0  0  0  0  0  0  0  0  0  0  0
   -1.5553   -3.0427    1.0239 H   0  0  0  0  0  0  0  0  0  0  0  0
   -2.4292   -2.9240   -0.5222 H   0  0  0  0  0  0  0  0  0  0  0  0
   -0.6668   -3.1733   -0.5129 H   0  0  0  0  0  0  0  0  0  0  0  0
  1  2  1  0  0  0  0
  2  3  2  0  0  0  0
  3  4  1  0  0  0  0
  4  5  2  0  0  0  0
  4  6  1  0  0  0  0
  6  7  2  0  0  0  0
  7  8  1  0  0  0  0
  2  8  1  0  0  0  0
  7  9  1  0  0  0  0
  9 10  2  0  0  0  0
 10 11  1  0  0  0  0
 11 12  2  0  0  0  0
  6 12  1  0  0  0  0
 12 13  1  0  0  0  0
 10 14  1  0  0  0  0
  9 15  1  0  0  0  0
  1 16  1  0  0  0  0
  1 17  1  0  0  0  0
  1 18  1  0  0  0  0
  3 19  1  0  0  0  0
 11 20  1  0  0  0  0
 13 21  1  0  0  0  0
 14 22  1  0  0  0  0
 15 23  1  0  0  0  0
 15 24  1  0  0  0  0
 15 25  1  0  0  0  0
M  END
$$$$
