C34H32ClFeN4O4
APtclcactv06281817003D 0   0.00000     0.00000
 
 76 78  0  0  0  0  0  0  0  0999 V2000
    2.4646    1.0915   -2.6762 C   0  0  0  0  0  0  0  0  0  0  0  0
    1.4864    0.1078   -2.0875 C   0  0  0  0  0  0  0  0  0  0  0  0
    1.6565   -1.2640   -2.0105 C   0  0  0  0  0  0  0  0  0  0  0  0
    0.5030   -1.7998   -1.3752 C   0  0  0  0  0  0  0  0  0  0  0  0
    0.3283   -3.1361   -1.0785 C   0  0  0  0  0  0  0  0  0  0  0  0
   -0.8294   -3.6533   -0.4773 C   0  0  0  0  0  0  0  0  0  0  0  0
   -1.9551   -2.9929   -0.1922 N   0  0  0  0  0  0  0  0  0  0  0  0
   -2.8745   -3.8333    0.2845 C   0  0  0  0  0  0  0  0  0  0  0  0
   -4.2007   -3.5586    0.6138 C   0  0  0  0  0  0  0  0  0  0  0  0
   -4.7598   -2.2903    0.5460 C   0  0  0  0  0  0  0  0  0  0  0  0
   -6.1081   -1.9956    0.8211 C   0  0  0  0  0  0  0  0  0  0  0  0
   -6.2773   -0.6508    0.7074 C   0  0  0  0  0  0  0  0  0  0  0  0
   -5.0361   -0.0842    0.3617 C   0  0  0  0  0  0  0  0  0  0  0  0
   -4.1281   -1.1107    0.2181 N   0  5  0  0  0  0  0  0  0  0  0  0
   -4.8045    1.2757    0.2261 C   0  0  0  0  0  0  0  0  0  0  0  0
   -3.5703    1.8136   -0.1405 C   0  0  0  0  0  0  0  0  0  0  0  0
   -3.2691    3.2512   -0.1649 C   0  0  0  0  0  0  0  0  0  0  0  0
   -2.0004    3.3716   -0.6134 C   0  0  0  0  0  0  0  0  0  0  0  0
   -1.5145    2.0089   -0.8688 C   0  0  0  0  0  0  0  0  0  0  0  0
   -2.4791    1.1501   -0.5295 N   0  0  0  0  0  0  0  0  0  0  0  0
   -0.2614    1.7083   -1.4022 C   0  0  0  0  0  0  0  0  0  0  0  0
    0.2436    0.4203   -1.5144 C   0  0  0  0  0  0  0  0  0  0  0  0
   -0.3558   -0.7556   -1.1155 N   0  5  0  0  0  0  0  0  0  0  0  0
   -1.2335    4.6534   -0.8131 C   0  0  0  0  0  0  0  0  0  0  0  0
   -4.1943    4.3724    0.2325 C   0  0  0  0  0  0  0  0  0  0  0  0
   -5.0823    4.7463   -0.9559 C   0  0  0  0  0  0  0  0  0  0  0  0
   -6.0076    5.8675   -0.5584 C   0  0  0  0  0  0  0  0  0  0  0  0
   -5.9614    6.3210    0.5606 O   0  0  0  0  0  0  0  0  0  0  0  0
   -6.8830    6.3624   -1.4475 O   0  0  0  0  0  0  0  0  0  0  0  0
   -7.5672    0.1004    0.9143 C   0  0  0  0  0  0  0  0  0  0  0  0
   -7.6874    0.5127    2.3828 C   0  0  0  0  0  0  0  0  0  0  0  0
   -8.9773    1.2639    2.5897 C   0  0  0  0  0  0  0  0  0  0  0  0
   -9.7240    1.4504    1.6582 O   0  0  0  0  0  0  0  0  0  0  0  0
   -9.2969    1.7259    3.8088 O   0  0  0  0  0  0  0  0  0  0  0  0
   -7.1776   -2.9953    1.1785 C   0  0  0  0  0  0  0  0  0  0  0  0
   -2.2335   -5.1592    0.4148 C   0  0  0  0  0  0  0  0  0  0  0  0
   -0.9630   -5.0074   -0.0647 C   0  0  0  0  0  0  0  0  0  0  0  0
    0.0975   -6.0753   -0.1426 C   0  0  0  0  0  0  0  0  0  0  0  0
   -2.8394   -6.3903    0.9517 C   0  0  0  0  0  0  0  0  0  0  0  0
   -2.8454   -7.5011    0.2217 C   0  0  0  0  0  0  0  0  0  0  0  0
    2.8190   -2.0282   -2.4981 C   0  0  0  0  0  0  0  0  0  0  0  0
    3.1969   -1.9249   -3.7678 C   0  0  0  0  0  0  0  0  0  0  0  0
   14.5894    0.2753   -0.1175 Cl  0  5  0  0  0  0  0  0  0  0  0  0
   22.9948    1.3557    1.6664 Fe  0  4  0  0  0  0  0  0  0  0  0  0
    2.2545    1.2217   -3.7378 H   0  0  0  0  0  0  0  0  0  0  0  0
    2.3673    2.0499   -2.1664 H   0  0  0  0  0  0  0  0  0  0  0  0
    3.4795    0.7143   -2.5503 H   0  0  0  0  0  0  0  0  0  0  0  0
    1.1263   -3.8216   -1.3228 H   0  0  0  0  0  0  0  0  0  0  0  0
   -4.8267   -4.3765    0.9389 H   0  0  0  0  0  0  0  0  0  0  0  0
   -5.6229    1.9550    0.4138 H   0  0  0  0  0  0  0  0  0  0  0  0
    0.3548    2.5268   -1.7436 H   0  0  0  0  0  0  0  0  0  0  0  0
   -0.7019    4.9055    0.1045 H   0  0  0  0  0  0  0  0  0  0  0  0
   -0.5172    4.5256   -1.6246 H   0  0  0  0  0  0  0  0  0  0  0  0
   -1.9268    5.4563   -1.0635 H   0  0  0  0  0  0  0  0  0  0  0  0
   -4.8189    4.0500    1.0656 H   0  0  0  0  0  0  0  0  0  0  0  0
   -3.6062    5.2393    0.5336 H   0  0  0  0  0  0  0  0  0  0  0  0
   -4.4577    5.0687   -1.7890 H   0  0  0  0  0  0  0  0  0  0  0  0
   -5.6705    3.8794   -1.2570 H   0  0  0  0  0  0  0  0  0  0  0  0
   -7.4556    7.0811   -1.1464 H   0  0  0  0  0  0  0  0  0  0  0  0
   -7.5742    0.9905    0.2852 H   0  0  0  0  0  0  0  0  0  0  0  0
   -8.4076   -0.5402    0.6468 H   0  0  0  0  0  0  0  0  0  0  0  0
   -7.6804   -0.3774    3.0118 H   0  0  0  0  0  0  0  0  0  0  0  0
   -6.8470    1.1533    2.6502 H   0  0  0  0  0  0  0  0  0  0  0  0
  -10.1346    2.2017    3.8923 H   0  0  0  0  0  0  0  0  0  0  0  0
   -7.2081   -3.1237    2.2605 H   0  0  0  0  0  0  0  0  0  0  0  0
   -8.1445   -2.6339    0.8282 H   0  0  0  0  0  0  0  0  0  0  0  0
   -6.9540   -3.9514    0.7053 H   0  0  0  0  0  0  0  0  0  0  0  0
    0.0282   -6.5868   -1.1027 H   0  0  0  0  0  0  0  0  0  0  0  0
    1.0819   -5.6176   -0.0450 H   0  0  0  0  0  0  0  0  0  0  0  0
   -0.0506   -6.7939    0.6635 H   0  0  0  0  0  0  0  0  0  0  0  0
   -3.2787   -6.3901    1.9383 H   0  0  0  0  0  0  0  0  0  0  0  0
   -2.3557   -7.5174   -0.7408 H   0  0  0  0  0  0  0  0  0  0  0  0
   -3.3399   -8.3873    0.5911 H   0  0  0  0  0  0  0  0  0  0  0  0
    3.3634   -2.6722   -1.8233 H   0  0  0  0  0  0  0  0  0  0  0  0
    2.6009   -1.3531   -4.4637 H   0  0  0  0  0  0  0  0  0  0  0  0
    4.0999   -2.4127   -4.1039 H   0  0  0  0  0  0  0  0  0  0  0  0
  1  2  1  0  0  0  0
  2  3  2  0  0  0  0
  3  4  1  0  0  0  0
  4  5  2  0  0  0  0
  5  6  1  0  0  0  0
  6  7  2  0  0  0  0
  7  8  1  0  0  0  0
  8  9  2  0  0  0  0
  9 10  1  0  0  0  0
 10 11  2  0  0  0  0
 11 12  1  0  0  0  0
 12 13  2  0  0  0  0
 13 14  1  0  0  0  0
 10 14  1  0  0  0  0
 13 15  1  0  0  0  0
 15 16  2  0  0  0  0
 16 17  1  0  0  0  0
 17 18  2  0  0  0  0
 18 19  1  0  0  0  0
 19 20  2  0  0  0  0
 16 20  1  0  0  0  0
 19 21  1  0  0  0  0
 21 22  2  0  0  0  0
  2 22  1  0  0  0  0
 22 23  1  0  0  0  0
  4 23  1  0  0  0  0
 18 24  1  0  0  0  0
 17 25  1  0  0  0  0
 25 26  1  0  0  0  0
 26 27  1  0  0  0  0
 27 28  2  0  0  0  0
 27 29  1  0  0  0  0
 12 30  1  0  0  0  0
 30 31  1  0  0  0  0
 31 32  1  0  0  0  0
 32 33  2  0  0  0  0
 32 34  1  0  0  0  0
 11 35  1  0  0  0  0
  8 36  1  0  0  0  0
 36 37  2  0  0  0  0
  6 37  1  0  0  0  0
 37 38  1  0  0  0  0
 36 39  1  0  0  0  0
 39 40  2  0  0  0  0
  3 41  1  0  0  0  0
 41 42  2  0  0  0  0
  1 45  1  0  0  0  0
  1 46  1  0  0  0  0
  1 47  1  0  0  0  0
  5 48  1  0  0  0  0
  9 49  1  0  0  0  0
 15 50  1  0  0  0  0
 21 51  1  0  0  0  0
 24 52  1  0  0  0  0
 24 53  1  0  0  0  0
 24 54  1  0  0  0  0
 25 55  1  0  0  0  0
 25 56  1  0  0  0  0
 26 57  1  0  0  0  0
 26 58  1  0  0  0  0
 29 59  1  0  0  0  0
 30 60  1  0  0  0  0
 30 61  1  0  0  0  0
 31 62  1  0  0  0  0
 31 63  1  0  0  0  0
 34 64  1  0  0  0  0
 35 65  1  0  0  0  0
 35 66  1  0  0  0  0
 35 67  1  0  0  0  0
 38 68  1  0  0  0  0
 38 69  1  0  0  0  0
 38 70  1  0  0  0  0
 39 71  1  0  0  0  0
 40 72  1  0  0  0  0
 40 73  1  0  0  0  0
 41 74  1  0  0  0  0
 42 75  1  0  0  0  0
 42 76  1  0  0  0  0
M  CHG  4  14  -1  23  -1  43  -1  44   3
M  RAD  1  44   2
M  END
$$$$
