C18H28O3
APtclcactv06281817023D 0   0.00000     0.00000
 
 49 48  0  0  0  0  0  0  0  0999 V2000
  -10.7727    2.6306   -0.2810 C   0  0  0  0  0  0  0  0  0  0  0  0
  -10.1890    1.3130    0.2329 C   0  0  0  0  0  0  0  0  0  0  0  0
   -8.8133    1.0847   -0.3965 C   0  0  0  0  0  0  0  0  0  0  0  0
   -8.2297   -0.2330    0.1174 C   0  0  0  0  0  0  0  0  0  0  0  0
   -6.8746   -0.4578   -0.5025 C   0  0  0  0  0  0  0  0  0  0  0  0
   -5.8124   -0.6669    0.2751 C   0  0  0  0  0  0  0  0  0  0  0  0
   -4.4953   -0.8854   -0.3274 C   0  0  0  0  0  0  0  0  0  0  0  0
   -3.4203   -1.0970    0.4596 C   0  0  0  0  0  0  0  0  0  0  0  0
   -2.1032   -1.3155   -0.1430 C   0  0  0  0  0  0  0  0  0  0  0  0
   -1.0410   -1.5246    0.6346 C   0  0  0  0  0  0  0  0  0  0  0  0
    0.3141   -1.7494    0.0147 C   0  0  0  0  0  0  0  0  0  0  0  0
    1.3113   -0.7411    0.5890 C   0  0  0  0  0  0  0  0  0  0  0  0
    2.6870   -0.9693   -0.0404 C   0  0  0  0  0  0  0  0  0  0  0  0
    3.6842    0.0390    0.5339 C   0  0  0  0  0  0  0  0  0  0  0  0
    5.0393   -0.1858   -0.0860 C   0  0  0  0  0  0  0  0  0  0  0  0
    5.1917   -1.0621   -0.9028 O   0  0  0  0  0  0  0  0  0  0  0  0
    6.2041    0.6829    0.3134 C   0  0  0  0  0  0  0  0  0  0  0  0
    7.4523    0.2483   -0.4573 C   0  0  0  0  0  0  0  0  0  0  0  0
    8.6172    1.1170   -0.0579 C   0  0  0  0  0  0  0  0  0  0  0  0
    8.4647    1.9937    0.7593 O   0  0  0  0  0  0  0  0  0  0  0  0
    9.8241    0.9167   -0.6101 O   0  0  0  0  0  0  0  0  0  0  0  0
  -10.1088    3.4519   -0.0109 H   0  0  0  0  0  0  0  0  0  0  0  0
  -10.8722    2.5855   -1.3655 H   0  0  0  0  0  0  0  0  0  0  0  0
  -11.7528    2.7932    0.1674 H   0  0  0  0  0  0  0  0  0  0  0  0
  -10.0895    1.3581    1.3174 H   0  0  0  0  0  0  0  0  0  0  0  0
  -10.8529    0.4917   -0.0372 H   0  0  0  0  0  0  0  0  0  0  0  0
   -8.9128    1.0395   -1.4810 H   0  0  0  0  0  0  0  0  0  0  0  0
   -8.1494    1.9059   -0.1264 H   0  0  0  0  0  0  0  0  0  0  0  0
   -8.1301   -0.1878    1.2019 H   0  0  0  0  0  0  0  0  0  0  0  0
   -8.8935   -1.0542   -0.1527 H   0  0  0  0  0  0  0  0  0  0  0  0
   -6.7641   -0.4496   -1.5768 H   0  0  0  0  0  0  0  0  0  0  0  0
   -5.9228   -0.6751    1.3494 H   0  0  0  0  0  0  0  0  0  0  0  0
   -4.3849   -0.8771   -1.4017 H   0  0  0  0  0  0  0  0  0  0  0  0
   -3.5307   -1.1052    1.5339 H   0  0  0  0  0  0  0  0  0  0  0  0
   -1.9927   -1.3073   -1.2173 H   0  0  0  0  0  0  0  0  0  0  0  0
   -1.1514   -1.5328    1.7089 H   0  0  0  0  0  0  0  0  0  0  0  0
    0.6520   -2.7616    0.2372 H   0  0  0  0  0  0  0  0  0  0  0  0
    0.2459   -1.6182   -1.0652 H   0  0  0  0  0  0  0  0  0  0  0  0
    0.9734    0.2711    0.3665 H   0  0  0  0  0  0  0  0  0  0  0  0
    1.3795   -0.8722    1.6689 H   0  0  0  0  0  0  0  0  0  0  0  0
    3.0249   -1.9815    0.1821 H   0  0  0  0  0  0  0  0  0  0  0  0
    2.6188   -0.8382   -1.1203 H   0  0  0  0  0  0  0  0  0  0  0  0
    3.3463    1.0511    0.3114 H   0  0  0  0  0  0  0  0  0  0  0  0
    3.7524   -0.0922    1.6138 H   0  0  0  0  0  0  0  0  0  0  0  0
    5.9777    1.7235    0.0812 H   0  0  0  0  0  0  0  0  0  0  0  0
    6.3838    0.5802    1.3836 H   0  0  0  0  0  0  0  0  0  0  0  0
    7.6787   -0.7924   -0.2251 H   0  0  0  0  0  0  0  0  0  0  0  0
    7.2727    0.3509   -1.5275 H   0  0  0  0  0  0  0  0  0  0  0  0
   10.5406    1.4989   -0.3224 H   0  0  0  0  0  0  0  0  0  0  0  0
  1  2  1  0  0  0  0
  2  3  1  0  0  0  0
  3  4  1  0  0  0  0
  4  5  1  0  0  0  0
  5  6  2  0  0  0  0
  6  7  1  0  0  0  0
  7  8  2  0  0  0  0
  8  9  1  0  0  0  0
  9 10  2  0  0  0  0
 10 11  1  0  0  0  0
 11 12  1  0  0  0  0
 12 13  1  0  0  0  0
 13 14  1  0  0  0  0
 14 15  1  0  0  0  0
 15 16  2  0  0  0  0
 15 17  1  0  0  0  0
 17 18  1  0  0  0  0
 18 19  1  0  0  0  0
 19 20  2  0  0  0  0
 19 21  1  0  0  0  0
  1 22  1  0  0  0  0
  1 23  1  0  0  0  0
  1 24  1  0  0  0  0
  2 25  1  0  0  0  0
  2 26  1  0  0  0  0
  3 27  1  0  0  0  0
  3 28  1  0  0  0  0
  4 29  1  0  0  0  0
  4 30  1  0  0  0  0
  5 31  1  0  0  0  0
  6 32  1  0  0  0  0
  7 33  1  0  0  0  0
  8 34  1  0  0  0  0
  9 35  1  0  0  0  0
 10 36  1  0  0  0  0
 11 37  1  0  0  0  0
 11 38  1  0  0  0  0
 12 39  1  0  0  0  0
 12 40  1  0  0  0  0
 13 41  1  0  0  0  0
 13 42  1  0  0  0  0
 14 43  1  0  0  0  0
 14 44  1  0  0  0  0
 17 45  1  0  0  0  0
 17 46  1  0  0  0  0
 18 47  1  0  0  0  0
 18 48  1  0  0  0  0
 21 49  1  0  0  0  0
M  END
$$$$
