C13H9NO4
APtclcactv06281817023D 0   0.00000     0.00000
 
 27 30  0  0  0  0  0  0  0  0999 V2000
    2.3039   -2.8899    0.8972 C   0  0  0  0  0  0  0  0  0  0  0  0
    2.0073   -2.2015   -0.3194 O   0  0  0  0  0  0  0  0  0  0  0  0
    1.4170   -0.9863   -0.2106 C   0  0  0  0  0  0  0  0  0  0  0  0
    2.1755    0.1772   -0.1212 C   0  0  0  0  0  0  0  0  0  0  0  0
    3.6163    0.4620   -0.1118 C   0  0  0  0  0  0  0  0  0  0  0  0
    3.7317    1.7909   -0.0037 C   0  0  0  0  0  0  0  0  0  0  0  0
    2.5148    2.3625    0.0552 O   0  0  0  0  0  0  0  0  0  0  0  0
    1.5387    1.4323   -0.0101 C   0  0  0  0  0  0  0  0  0  0  0  0
    0.2218    1.5182    0.0124 N   0  0  0  0  0  0  0  0  0  0  0  0
   -0.5583    0.4352   -0.0688 C   0  0  0  0  0  0  0  0  0  0  0  0
    0.0127   -0.8564   -0.1901 C   0  0  0  0  0  0  0  0  0  0  0  0
   -0.8203   -1.9841   -0.2781 C   0  0  0  0  0  0  0  0  0  0  0  0
   -2.1715   -1.8347   -0.2443 C   0  0  0  0  0  0  0  0  0  0  0  0
   -2.7522   -0.5677   -0.1227 C   0  0  0  0  0  0  0  0  0  0  0  0
   -1.9617    0.5608   -0.0389 C   0  0  0  0  0  0  0  0  0  0  0  0
   -2.7659    1.6583    0.0740 O   0  0  0  0  0  0  0  0  0  0  0  0
   -4.0544    1.1494    0.4670 C   0  0  0  0  0  0  0  0  0  0  0  0
   -4.0641   -0.1881   -0.0686 O   0  0  0  0  0  0  0  0  0  0  0  0
    2.9836   -2.2870    1.4993 H   0  0  0  0  0  0  0  0  0  0  0  0
    1.3815   -3.0610    1.4520 H   0  0  0  0  0  0  0  0  0  0  0  0
    2.7730   -3.8468    0.6681 H   0  0  0  0  0  0  0  0  0  0  0  0
    4.4203   -0.2560   -0.1784 H   0  0  0  0  0  0  0  0  0  0  0  0
    4.6680    2.3280    0.0319 H   0  0  0  0  0  0  0  0  0  0  0  0
   -0.3878   -2.9692   -0.3730 H   0  0  0  0  0  0  0  0  0  0  0  0
   -2.8053   -2.7065   -0.3126 H   0  0  0  0  0  0  0  0  0  0  0  0
   -4.1448    1.1311    1.5531 H   0  0  0  0  0  0  0  0  0  0  0  0
   -4.8533    1.7442    0.0243 H   0  0  0  0  0  0  0  0  0  0  0  0
  1  2  1  0  0  0  0
  2  3  1  0  0  0  0
  3  4  2  0  0  0  0
  4  5  1  0  0  0  0
  5  6  2  0  0  0  0
  6  7  1  0  0  0  0
  7  8  1  0  0  0  0
  4  8  1  0  0  0  0
  8  9  2  0  0  0  0
  9 10  1  0  0  0  0
 10 11  2  0  0  0  0
  3 11  1  0  0  0  0
 11 12  1  0  0  0  0
 12 13  2  0  0  0  0
 13 14  1  0  0  0  0
 14 15  2  0  0  0  0
 10 15  1  0  0  0  0
 15 16  1  0  0  0  0
 16 17  1  0  0  0  0
 17 18  1  0  0  0  0
 14 18  1  0  0  0  0
  1 19  1  0  0  0  0
  1 20  1  0  0  0  0
  1 21  1  0  0  0  0
  5 22  1  0  0  0  0
  6 23  1  0  0  0  0
 12 24  1  0  0  0  0
 13 25  1  0  0  0  0
 17 26  1  0  0  0  0
 17 27  1  0  0  0  0
M  END
$$$$
