C19H18O7
APtclcactv06281817013D 0   0.00000     0.00000
 
 44 46  0  0  0  0  0  0  0  0999 V2000
    7.6149   -0.4821    0.5026 C   0  0  0  0  0  0  0  0  0  0  0  0
    6.7884    0.5103   -0.1089 O   0  0  0  0  0  0  0  0  0  0  0  0
    5.4498    0.2837   -0.1076 C   0  0  0  0  0  0  0  0  0  0  0  0
    4.5898    1.2095   -0.6861 C   0  0  0  0  0  0  0  0  0  0  0  0
    3.2312    0.9838   -0.6866 C   0  0  0  0  0  0  0  0  0  0  0  0
    2.7177   -0.1786   -0.1046 C   0  0  0  0  0  0  0  0  0  0  0  0
    3.5863   -1.1072    0.4757 C   0  0  0  0  0  0  0  0  0  0  0  0
    4.9440   -0.8761    0.4672 C   0  0  0  0  0  0  0  0  0  0  0  0
    1.2632   -0.4243   -0.1023 C   0  0  0  0  0  0  0  0  0  0  0  0
    0.8127   -1.6879   -0.3293 C   0  0  0  0  0  0  0  0  0  0  0  0
   -0.5786   -1.9431   -0.3305 C   0  0  0  0  0  0  0  0  0  0  0  0
   -1.0172   -3.0645   -0.5302 O   0  0  0  0  0  0  0  0  0  0  0  0
   -1.4775   -0.8032   -0.0810 C   0  0  0  0  0  0  0  0  0  0  0  0
   -0.9087    0.4626    0.1424 C   0  0  0  0  0  0  0  0  0  0  0  0
    0.4349    0.6061    0.1290 O   0  0  0  0  0  0  0  0  0  0  0  0
   -1.7376    1.5523    0.3798 C   0  0  0  0  0  0  0  0  0  0  0  0
   -3.1158    1.3858    0.3956 C   0  0  0  0  0  0  0  0  0  0  0  0
   -3.6805    0.1315    0.1743 C   0  0  0  0  0  0  0  0  0  0  0  0
   -2.8677   -0.9649   -0.0648 C   0  0  0  0  0  0  0  0  0  0  0  0
   -3.4167   -2.1893   -0.2813 O   0  0  0  0  0  0  0  0  0  0  0  0
   -3.7485   -2.9646    0.8723 C   0  0  0  0  0  0  0  0  0  0  0  0
   -5.0337   -0.0172    0.1926 O   0  0  0  0  0  0  0  0  0  0  0  0
   -5.7325    0.2519   -1.0245 C   0  0  0  0  0  0  0  0  0  0  0  0
   -3.9212    2.4557    0.6294 O   0  0  0  0  0  0  0  0  0  0  0  0
   -1.1981    2.7834    0.5975 O   0  0  0  0  0  0  0  0  0  0  0  0
   -0.9839    3.6097   -0.5485 C   0  0  0  0  0  0  0  0  0  0  0  0
    7.3373   -0.5905    1.5510 H   0  0  0  0  0  0  0  0  0  0  0  0
    7.4786   -1.4345   -0.0098 H   0  0  0  0  0  0  0  0  0  0  0  0
    8.6594   -0.1783    0.4329 H   0  0  0  0  0  0  0  0  0  0  0  0
    4.9874    2.1074   -1.1356 H   0  0  0  0  0  0  0  0  0  0  0  0
    2.5635    1.7042   -1.1357 H   0  0  0  0  0  0  0  0  0  0  0  0
    3.1936   -2.0065    0.9268 H   0  0  0  0  0  0  0  0  0  0  0  0
    5.6159   -1.5931    0.9153 H   0  0  0  0  0  0  0  0  0  0  0  0
    1.5128   -2.4907   -0.5077 H   0  0  0  0  0  0  0  0  0  0  0  0
   -4.5384   -2.4635    1.4319 H   0  0  0  0  0  0  0  0  0  0  0  0
   -4.0935   -3.9505    0.5605 H   0  0  0  0  0  0  0  0  0  0  0  0
   -2.8669   -3.0712    1.5043 H   0  0  0  0  0  0  0  0  0  0  0  0
   -5.3141   -0.3571   -1.8259 H   0  0  0  0  0  0  0  0  0  0  0  0
   -6.7880    0.0111   -0.8983 H   0  0  0  0  0  0  0  0  0  0  0  0
   -5.6282    1.3070   -1.2777 H   0  0  0  0  0  0  0  0  0  0  0  0
   -4.1843    2.9320   -0.1700 H   0  0  0  0  0  0  0  0  0  0  0  0
   -1.9353    3.7911   -1.0485 H   0  0  0  0  0  0  0  0  0  0  0  0
   -0.5509    4.5598   -0.2355 H   0  0  0  0  0  0  0  0  0  0  0  0
   -0.3021    3.1084   -1.2355 H   0  0  0  0  0  0  0  0  0  0  0  0
  1  2  1  0  0  0  0
  2  3  1  0  0  0  0
  3  4  2  0  0  0  0
  4  5  1  0  0  0  0
  5  6  2  0  0  0  0
  6  7  1  0  0  0  0
  7  8  2  0  0  0  0
  3  8  1  0  0  0  0
  6  9  1  0  0  0  0
  9 10  2  0  0  0  0
 10 11  1  0  0  0  0
 11 12  2  0  0  0  0
 11 13  1  0  0  0  0
 13 14  2  0  0  0  0
 14 15  1  0  0  0  0
  9 15  1  0  0  0  0
 14 16  1  0  0  0  0
 16 17  2  0  0  0  0
 17 18  1  0  0  0  0
 18 19  2  0  0  0  0
 13 19  1  0  0  0  0
 19 20  1  0  0  0  0
 20 21  1  0  0  0  0
 18 22  1  0  0  0  0
 22 23  1  0  0  0  0
 17 24  1  0  0  0  0
 16 25  1  0  0  0  0
 25 26  1  0  0  0  0
  1 27  1  0  0  0  0
  1 28  1  0  0  0  0
  1 29  1  0  0  0  0
  4 30  1  0  0  0  0
  5 31  1  0  0  0  0
  7 32  1  0  0  0  0
  8 33  1  0  0  0  0
 10 34  1  0  0  0  0
 21 35  1  0  0  0  0
 21 36  1  0  0  0  0
 21 37  1  0  0  0  0
 23 38  1  0  0  0  0
 23 39  1  0  0  0  0
 23 40  1  0  0  0  0
 24 41  1  0  0  0  0
 26 42  1  0  0  0  0
 26 43  1  0  0  0  0
 26 44  1  0  0  0  0
M  END
$$$$
