C21H22O5
APtclcactv06281817023D 0   0.00000     0.00000
 
 48 49  0  0  0  0  0  0  0  0999 V2000
    6.0747   -2.1518   -0.1141 C   0  0  0  0  0  0  0  0  0  0  0  0
    5.9570   -1.1585    1.0131 C   0  0  0  0  0  0  0  0  0  0  0  0
    5.4544    0.0303    0.7887 C   0  0  0  0  0  0  0  0  0  0  0  0
    4.8787    0.3619   -0.5639 C   0  0  0  0  0  0  0  0  0  0  0  0
    3.4718    0.8760   -0.3988 C   0  0  0  0  0  0  0  0  0  0  0  0
    3.2443    2.2341   -0.2269 C   0  0  0  0  0  0  0  0  0  0  0  0
    1.9472    2.7158   -0.0737 C   0  0  0  0  0  0  0  0  0  0  0  0
    0.8853    1.8581   -0.0910 C   0  0  0  0  0  0  0  0  0  0  0  0
    1.0961    0.4838   -0.2639 C   0  0  0  0  0  0  0  0  0  0  0  0
    2.4050   -0.0051   -0.4241 C   0  0  0  0  0  0  0  0  0  0  0  0
    2.6213   -1.3338   -0.5927 O   0  0  0  0  0  0  0  0  0  0  0  0
    2.6240   -1.8255   -1.9345 C   0  0  0  0  0  0  0  0  0  0  0  0
   -0.0426   -0.4397   -0.2823 C   0  0  0  0  0  0  0  0  0  0  0  0
   -1.3018    0.0351   -0.1319 C   0  0  0  0  0  0  0  0  0  0  0  0
   -2.4017   -0.8568   -0.1496 C   0  0  0  0  0  0  0  0  0  0  0  0
   -2.2150   -2.0511   -0.3002 O   0  0  0  0  0  0  0  0  0  0  0  0
   -3.7754   -0.3388    0.0145 C   0  0  0  0  0  0  0  0  0  0  0  0
   -4.8617   -1.2175   -0.0028 C   0  0  0  0  0  0  0  0  0  0  0  0
   -6.1444   -0.7284    0.1510 C   0  0  0  0  0  0  0  0  0  0  0  0
   -6.3527    0.6394    0.3229 C   0  0  0  0  0  0  0  0  0  0  0  0
   -5.2731    1.5124    0.3400 C   0  0  0  0  0  0  0  0  0  0  0  0
   -3.9908    1.0301    0.1929 C   0  0  0  0  0  0  0  0  0  0  0  0
   -7.6144    1.1190    0.4735 O   0  0  0  0  0  0  0  0  0  0  0  0
   -7.2039   -1.5808    0.1342 O   0  0  0  0  0  0  0  0  0  0  0  0
    4.2917    3.0971   -0.2075 O   0  0  0  0  0  0  0  0  0  0  0  0
    6.4174   -1.5327    2.3984 C   0  0  0  0  0  0  0  0  0  0  0  0
    6.6364   -1.7053   -0.9346 H   0  0  0  0  0  0  0  0  0  0  0  0
    6.5941   -3.0426    0.2394 H   0  0  0  0  0  0  0  0  0  0  0  0
    5.0789   -2.4260   -0.4622 H   0  0  0  0  0  0  0  0  0  0  0  0
    5.4526    0.7726    1.5731 H   0  0  0  0  0  0  0  0  0  0  0  0
    5.4912    1.1265   -1.0419 H   0  0  0  0  0  0  0  0  0  0  0  0
    4.8675   -0.5346   -1.1838 H   0  0  0  0  0  0  0  0  0  0  0  0
    1.7800    3.7744    0.0598 H   0  0  0  0  0  0  0  0  0  0  0  0
   -0.1181    2.2392    0.0292 H   0  0  0  0  0  0  0  0  0  0  0  0
    1.6575   -1.6251   -2.3969 H   0  0  0  0  0  0  0  0  0  0  0  0
    3.4091   -1.3266   -2.5027 H   0  0  0  0  0  0  0  0  0  0  0  0
    2.8076   -2.8999   -1.9273 H   0  0  0  0  0  0  0  0  0  0  0  0
    0.1229   -1.4985   -0.4158 H   0  0  0  0  0  0  0  0  0  0  0  0
   -1.4673    1.0940    0.0016 H   0  0  0  0  0  0  0  0  0  0  0  0
   -4.6989   -2.2768   -0.1365 H   0  0  0  0  0  0  0  0  0  0  0  0
   -5.4385    2.5713    0.4735 H   0  0  0  0  0  0  0  0  0  0  0  0
   -3.1528    1.7112    0.2066 H   0  0  0  0  0  0  0  0  0  0  0  0
   -7.9132    1.1580    1.3924 H   0  0  0  0  0  0  0  0  0  0  0  0
   -7.4436   -1.9275    1.0045 H   0  0  0  0  0  0  0  0  0  0  0  0
    4.5293    3.4469   -1.0772 H   0  0  0  0  0  0  0  0  0  0  0  0
    6.8024   -2.5524    2.3902 H   0  0  0  0  0  0  0  0  0  0  0  0
    7.2049   -0.8496    2.7165 H   0  0  0  0  0  0  0  0  0  0  0  0
    5.5779   -1.4669    3.0905 H   0  0  0  0  0  0  0  0  0  0  0  0
  1  2  1  0  0  0  0
  2  3  2  0  0  0  0
  3  4  1  0  0  0  0
  4  5  1  0  0  0  0
  5  6  2  0  0  0  0
  6  7  1  0  0  0  0
  7  8  2  0  0  0  0
  8  9  1  0  0  0  0
  9 10  2  0  0  0  0
  5 10  1  0  0  0  0
 10 11  1  0  0  0  0
 11 12  1  0  0  0  0
  9 13  1  0  0  0  0
 13 14  2  0  0  0  0
 14 15  1  0  0  0  0
 15 16  2  0  0  0  0
 15 17  1  0  0  0  0
 17 18  2  0  0  0  0
 18 19  1  0  0  0  0
 19 20  2  0  0  0  0
 20 21  1  0  0  0  0
 21 22  2  0  0  0  0
 17 22  1  0  0  0  0
 20 23  1  0  0  0  0
 19 24  1  0  0  0  0
  6 25  1  0  0  0  0
  2 26  1  0  0  0  0
  1 27  1  0  0  0  0
  1 28  1  0  0  0  0
  1 29  1  0  0  0  0
  3 30  1  0  0  0  0
  4 31  1  0  0  0  0
  4 32  1  0  0  0  0
  7 33  1  0  0  0  0
  8 34  1  0  0  0  0
 12 35  1  0  0  0  0
 12 36  1  0  0  0  0
 12 37  1  0  0  0  0
 13 38  1  0  0  0  0
 14 39  1  0  0  0  0
 18 40  1  0  0  0  0
 21 41  1  0  0  0  0
 22 42  1  0  0  0  0
 23 43  1  0  0  0  0
 24 44  1  0  0  0  0
 25 45  1  0  0  0  0
 26 46  1  0  0  0  0
 26 47  1  0  0  0  0
 26 48  1  0  0  0  0
M  END
$$$$
