C20H14O8
APtclcactv06281817013D 0   0.00000     0.00000
 
 42 47  0  0  0  0  0  0  0  0999 V2000
    4.3911   -2.5555    0.9893 C   0  0  0  0  0  0  0  0  0  0  0  0
    4.0302   -1.9428   -0.2502 O   0  0  0  0  0  0  0  0  0  0  0  0
    3.4874   -0.6965   -0.1884 C   0  0  0  0  0  0  0  0  0  0  0  0
    4.2883    0.4438   -0.2363 C   0  0  0  0  0  0  0  0  0  0  0  0
    3.7170    1.7410   -0.1724 C   0  0  0  0  0  0  0  0  0  0  0  0
    2.3448    1.9309   -0.0581 C   0  0  0  0  0  0  0  0  0  0  0  0
    1.5509    0.7769   -0.0090 C   0  0  0  0  0  0  0  0  0  0  0  0
    2.1094   -0.5127   -0.0806 C   0  0  0  0  0  0  0  0  0  0  0  0
    1.3170   -1.6225   -0.0402 O   0  0  0  0  0  0  0  0  0  0  0  0
   -0.0483   -1.4587   -0.4015 C   0  0  0  0  0  0  0  0  0  0  0  0
   -0.8692   -2.7274   -0.1823 C   0  0  0  0  0  0  0  0  0  0  0  0
   -2.1872   -2.4903   -0.6823 O   0  0  0  0  0  0  0  0  0  0  0  0
   -2.8069   -1.3144   -0.3896 C   0  0  0  0  0  0  0  0  0  0  0  0
   -4.1764   -1.2336   -0.6618 C   0  0  0  0  0  0  0  0  0  0  0  0
   -4.8218   -0.0399   -0.3824 C   0  0  0  0  0  0  0  0  0  0  0  0
   -4.1236    1.0519    0.1554 C   0  0  0  0  0  0  0  0  0  0  0  0
   -2.7677    0.9666    0.4290 C   0  0  0  0  0  0  0  0  0  0  0  0
   -2.1249   -0.2365    0.1528 C   0  0  0  0  0  0  0  0  0  0  0  0
   -0.6598   -0.3505    0.4711 C   0  0  0  0  0  0  0  0  0  0  0  0
    0.0842    0.9223    0.1215 C   0  0  0  0  0  0  0  0  0  0  0  0
   -0.4815    1.9838   -0.0354 O   0  0  0  0  0  0  0  0  0  0  0  0
   -0.4898   -0.6740    1.8526 O   0  0  0  0  0  0  0  0  0  0  0  0
   -4.9858    2.0815    0.3223 O   0  0  0  0  0  0  0  0  0  0  0  0
   -6.3027    1.4953    0.2563 C   0  0  0  0  0  0  0  0  0  0  0  0
   -6.1186    0.3092   -0.5442 O   0  0  0  0  0  0  0  0  0  0  0  0
    4.8390    2.6676   -0.2507 C   0  0  0  0  0  0  0  0  0  0  0  0
    5.9418    1.9073   -0.3488 C   0  0  0  0  0  0  0  0  0  0  0  0
    5.6113    0.5993   -0.3389 O   0  0  0  0  0  0  0  0  0  0  0  0
    5.1320   -1.9383    1.4975 H   0  0  0  0  0  0  0  0  0  0  0  0
    3.5060   -2.6524    1.6181 H   0  0  0  0  0  0  0  0  0  0  0  0
    4.8107   -3.5431    0.7979 H   0  0  0  0  0  0  0  0  0  0  0  0
    1.9117    2.9190   -0.0092 H   0  0  0  0  0  0  0  0  0  0  0  0
   -0.1122   -1.1630   -1.4487 H   0  0  0  0  0  0  0  0  0  0  0  0
   -0.4144   -3.5585   -0.7213 H   0  0  0  0  0  0  0  0  0  0  0  0
   -0.9146   -2.9580    0.8820 H   0  0  0  0  0  0  0  0  0  0  0  0
   -4.7130   -2.0740   -1.0766 H   0  0  0  0  0  0  0  0  0  0  0  0
   -2.2279    1.8056    0.8428 H   0  0  0  0  0  0  0  0  0  0  0  0
   -0.9020   -1.5086    2.1147 H   0  0  0  0  0  0  0  0  0  0  0  0
   -6.6539    1.2320    1.2540 H   0  0  0  0  0  0  0  0  0  0  0  0
   -7.0009    2.1782   -0.2276 H   0  0  0  0  0  0  0  0  0  0  0  0
    4.7931    3.7465   -0.2338 H   0  0  0  0  0  0  0  0  0  0  0  0
    6.9494    2.2886   -0.4247 H   0  0  0  0  0  0  0  0  0  0  0  0
  1  2  1  0  0  0  0
  2  3  1  0  0  0  0
  3  4  2  0  0  0  0
  4  5  1  0  0  0  0
  5  6  2  0  0  0  0
  6  7  1  0  0  0  0
  7  8  2  0  0  0  0
  3  8  1  0  0  0  0
  8  9  1  0  0  0  0
  9 10  1  0  0  0  0
 10 11  1  0  0  0  0
 11 12  1  0  0  0  0
 12 13  1  0  0  0  0
 13 14  2  0  0  0  0
 14 15  1  0  0  0  0
 15 16  2  0  0  0  0
 16 17  1  0  0  0  0
 17 18  2  0  0  0  0
 13 18  1  0  0  0  0
 18 19  1  0  0  0  0
 10 19  1  0  0  0  0
 19 20  1  0  0  0  0
  7 20  1  0  0  0  0
 20 21  2  0  0  0  0
 19 22  1  0  0  0  0
 16 23  1  0  0  0  0
 23 24  1  0  0  0  0
 24 25  1  0  0  0  0
 15 25  1  0  0  0  0
  5 26  1  0  0  0  0
 26 27  2  0  0  0  0
 27 28  1  0  0  0  0
  4 28  1  0  0  0  0
  1 29  1  0  0  0  0
  1 30  1  0  0  0  0
  1 31  1  0  0  0  0
  6 32  1  0  0  0  0
 10 33  1  0  0  0  0
 11 34  1  0  0  0  0
 11 35  1  0  0  0  0
 14 36  1  0  0  0  0
 17 37  1  0  0  0  0
 22 38  1  0  0  0  0
 24 39  1  0  0  0  0
 24 40  1  0  0  0  0
 26 41  1  0  0  0  0
 27 42  1  0  0  0  0
M  END
$$$$
