C15H8O7
APtclcactv06281817013D 0   0.00000     0.00000
 
 30 33  0  0  0  0  0  0  0  0999 V2000
   -4.5204   -0.3487    0.0341 C   0  0  0  0  0  0  0  0  0  0  0  0
   -3.9045   -1.5899    0.1514 C   0  0  0  0  0  0  0  0  0  0  0  0
   -2.5247   -1.6833    0.1175 C   0  0  0  0  0  0  0  0  0  0  0  0
   -1.7598   -0.5301   -0.0339 C   0  0  0  0  0  0  0  0  0  0  0  0
   -2.3773    0.7295   -0.1691 C   0  0  0  0  0  0  0  0  0  0  0  0
   -3.7696    0.8009   -0.1247 C   0  0  0  0  0  0  0  0  0  0  0  0
   -4.3902    2.0053   -0.2380 O   0  0  0  0  0  0  0  0  0  0  0  0
   -1.6506    1.8563   -0.3636 O   0  0  0  0  0  0  0  0  0  0  0  0
   -0.3769    1.9139    0.1025 C   0  0  0  0  0  0  0  0  0  0  0  0
    0.0985    2.9416    0.5501 O   0  0  0  0  0  0  0  0  0  0  0  0
    0.3908    0.6728    0.0371 C   0  0  0  0  0  0  0  0  0  0  0  0
   -0.2918   -0.5590   -0.0363 C   0  0  0  0  0  0  0  0  0  0  0  0
    0.5970   -1.5457   -0.0958 O   0  0  0  0  0  0  0  0  0  0  0  0
    1.8536   -1.0696   -0.0607 C   0  0  0  0  0  0  0  0  0  0  0  0
    3.0771   -1.7300   -0.0964 C   0  0  0  0  0  0  0  0  0  0  0  0
    4.2251   -0.9505   -0.0418 C   0  0  0  0  0  0  0  0  0  0  0  0
    4.1696    0.4377    0.0451 C   0  0  0  0  0  0  0  0  0  0  0  0
    2.9601    1.1161    0.0809 C   0  0  0  0  0  0  0  0  0  0  0  0
    1.7977    0.3456    0.0264 C   0  0  0  0  0  0  0  0  0  0  0  0
    5.3298    1.1463    0.0967 O   0  0  0  0  0  0  0  0  0  0  0  0
    5.4396   -1.5615   -0.0739 O   0  0  0  0  0  0  0  0  0  0  0  0
   -4.6583   -2.7115    0.2997 O   0  0  0  0  0  0  0  0  0  0  0  0
   -5.5980   -0.2826    0.0630 H   0  0  0  0  0  0  0  0  0  0  0  0
   -2.0434   -2.6459    0.2085 H   0  0  0  0  0  0  0  0  0  0  0  0
   -4.6029    2.2541   -1.1479 H   0  0  0  0  0  0  0  0  0  0  0  0
    3.1323   -2.8065   -0.1634 H   0  0  0  0  0  0  0  0  0  0  0  0
    2.9197    2.1933    0.1480 H   0  0  0  0  0  0  0  0  0  0  0  0
    5.6705    1.4066   -0.7701 H   0  0  0  0  0  0  0  0  0  0  0  0
    5.7953   -1.6831   -0.9648 H   0  0  0  0  0  0  0  0  0  0  0  0
   -4.9048   -3.1330   -0.5350 H   0  0  0  0  0  0  0  0  0  0  0  0
  1  2  2  0  0  0  0
  2  3  1  0  0  0  0
  3  4  2  0  0  0  0
  4  5  1  0  0  0  0
  5  6  2  0  0  0  0
  1  6  1  0  0  0  0
  6  7  1  0  0  0  0
  5  8  1  0  0  0  0
  8  9  1  0  0  0  0
  9 10  2  0  0  0  0
  9 11  1  0  0  0  0
 11 12  2  0  0  0  0
  4 12  1  0  0  0  0
 12 13  1  0  0  0  0
 13 14  1  0  0  0  0
 14 15  2  0  0  0  0
 15 16  1  0  0  0  0
 16 17  2  0  0  0  0
 17 18  1  0  0  0  0
 18 19  2  0  0  0  0
 14 19  1  0  0  0  0
 11 19  1  0  0  0  0
 17 20  1  0  0  0  0
 16 21  1  0  0  0  0
  2 22  1  0  0  0  0
  1 23  1  0  0  0  0
  3 24  1  0  0  0  0
  7 25  1  0  0  0  0
 15 26  1  0  0  0  0
 18 27  1  0  0  0  0
 20 28  1  0  0  0  0
 21 29  1  0  0  0  0
 22 30  1  0  0  0  0
M  END
$$$$
