C27H30O15
APtclcactv06281817023D 0   0.00000     0.00000
 
 72 76  0  0  0  0  0  0  0  0999 V2000
    4.6897    1.3213   -2.2658 C   0  0  0  0  0  0  0  0  0  0  0  0
    5.3537    0.3757   -1.2628 C   0  0  0  0  0  0  0  0  0  0  0  0
    6.0777    1.1948   -0.1910 C   0  0  0  0  0  0  0  0  0  0  0  0
    5.0536    2.0390    0.5737 C   0  0  0  0  0  0  0  0  0  0  0  0
    3.9886    1.1135    1.1700 C   0  0  0  0  0  0  0  0  0  0  0  0
    3.3453    0.2975    0.0457 C   0  0  0  0  0  0  0  0  0  0  0  0
    4.3564   -0.4398   -0.6444 O   0  0  0  0  0  0  0  0  0  0  0  0
    2.3900   -0.6085    0.6010 O   0  0  0  0  0  0  0  0  0  0  0  0
    1.6481   -1.3416   -0.3759 C   0  0  0  0  0  0  0  0  0  0  0  0
    1.2564   -2.7070    0.1975 C   0  0  0  0  0  0  0  0  0  0  0  0
    0.3965   -3.4516   -0.8284 C   0  0  0  0  0  0  0  0  0  0  0  0
   -0.8242   -2.5958   -1.1767 C   0  0  0  0  0  0  0  0  0  0  0  0
   -0.3896   -1.3289   -1.6750 O   0  0  0  0  0  0  0  0  0  0  0  0
    0.3791   -0.5674   -0.7417 C   0  0  0  0  0  0  0  0  0  0  0  0
   -0.3949   -0.3367    0.4372 O   0  0  0  0  0  0  0  0  0  0  0  0
   -1.4017    0.5745    0.3469 C   0  0  0  0  0  0  0  0  0  0  0  0
   -2.6940    0.1924    0.5481 C   0  0  0  0  0  0  0  0  0  0  0  0
   -3.7215    1.0553    0.4701 O   0  0  0  0  0  0  0  0  0  0  0  0
   -3.5456    2.3629    0.1867 C   0  0  0  0  0  0  0  0  0  0  0  0
   -4.6292    3.2247    0.1150 C   0  0  0  0  0  0  0  0  0  0  0  0
   -4.4317    4.5654   -0.1773 C   0  0  0  0  0  0  0  0  0  0  0  0
   -3.1520    5.0612   -0.4011 C   0  0  0  0  0  0  0  0  0  0  0  0
   -2.0586    4.2178   -0.3336 C   0  0  0  0  0  0  0  0  0  0  0  0
   -2.2504    2.8618   -0.0387 C   0  0  0  0  0  0  0  0  0  0  0  0
   -1.1136    1.9314    0.0482 C   0  0  0  0  0  0  0  0  0  0  0  0
    0.0322    2.3113   -0.1335 O   0  0  0  0  0  0  0  0  0  0  0  0
   -0.8089    4.6997   -0.5522 O   0  0  0  0  0  0  0  0  0  0  0  0
   -5.4983    5.4024   -0.2460 O   0  0  0  0  0  0  0  0  0  0  0  0
   -2.9757   -1.2204    0.8627 C   0  0  0  0  0  0  0  0  0  0  0  0
   -2.2345   -1.8807    1.8469 C   0  0  0  0  0  0  0  0  0  0  0  0
   -2.5012   -3.2005    2.1374 C   0  0  0  0  0  0  0  0  0  0  0  0
   -3.5048   -3.8756    1.4535 C   0  0  0  0  0  0  0  0  0  0  0  0
   -4.2438   -3.2234    0.4741 C   0  0  0  0  0  0  0  0  0  0  0  0
   -3.9886   -1.9017    0.1816 C   0  0  0  0  0  0  0  0  0  0  0  0
   -3.7639   -5.1768    1.7429 O   0  0  0  0  0  0  0  0  0  0  0  0
   -1.6571   -3.3061   -2.2457 C   0  0  0  0  0  0  0  0  0  0  0  0
   -2.8549   -2.5650   -2.4867 O   0  0  0  0  0  0  0  0  0  0  0  0
    1.1637   -3.6924   -2.0098 O   0  0  0  0  0  0  0  0  0  0  0  0
    2.4355   -3.4657    0.4735 O   0  0  0  0  0  0  0  0  0  0  0  0
    4.5980    0.2296    2.1131 O   0  0  0  0  0  0  0  0  0  0  0  0
    5.7102    2.7514    1.6241 O   0  0  0  0  0  0  0  0  0  0  0  0
    6.7424    0.3130    0.7160 O   0  0  0  0  0  0  0  0  0  0  0  0
    5.4505    1.9439   -2.7366 H   0  0  0  0  0  0  0  0  0  0  0  0
    4.1743    0.7379   -3.0288 H   0  0  0  0  0  0  0  0  0  0  0  0
    3.9714    1.9556   -1.7465 H   0  0  0  0  0  0  0  0  0  0  0  0
    6.0718   -0.2590   -1.7820 H   0  0  0  0  0  0  0  0  0  0  0  0
    6.8085    1.8499   -0.6651 H   0  0  0  0  0  0  0  0  0  0  0  0
    4.5816    2.7461   -0.1085 H   0  0  0  0  0  0  0  0  0  0  0  0
    3.2255    1.7105    1.6694 H   0  0  0  0  0  0  0  0  0  0  0  0
    2.8460    0.9702   -0.6517 H   0  0  0  0  0  0  0  0  0  0  0  0
    2.2595   -1.4827   -1.2672 H   0  0  0  0  0  0  0  0  0  0  0  0
    0.6878   -2.5669    1.1168 H   0  0  0  0  0  0  0  0  0  0  0  0
    0.0672   -4.4013   -0.4070 H   0  0  0  0  0  0  0  0  0  0  0  0
   -1.4303   -2.4464   -0.2832 H   0  0  0  0  0  0  0  0  0  0  0  0
    0.6526    0.3879   -1.1898 H   0  0  0  0  0  0  0  0  0  0  0  0
   -5.6280    2.8513    0.2866 H   0  0  0  0  0  0  0  0  0  0  0  0
   -3.0119    6.1076   -0.6287 H   0  0  0  0  0  0  0  0  0  0  0  0
   -0.3640    5.0157    0.2461 H   0  0  0  0  0  0  0  0  0  0  0  0
   -5.7250    5.8206    0.5959 H   0  0  0  0  0  0  0  0  0  0  0  0
   -1.4538   -1.3570    2.3785 H   0  0  0  0  0  0  0  0  0  0  0  0
   -1.9290   -3.7115    2.8977 H   0  0  0  0  0  0  0  0  0  0  0  0
   -5.0225   -3.7522   -0.0555 H   0  0  0  0  0  0  0  0  0  0  0  0
   -4.5637   -1.3955   -0.5796 H   0  0  0  0  0  0  0  0  0  0  0  0
   -4.4251   -5.3011    2.4375 H   0  0  0  0  0  0  0  0  0  0  0  0
   -1.0810   -3.3756   -3.1684 H   0  0  0  0  0  0  0  0  0  0  0  0
   -1.9129   -4.3079   -1.9007 H   0  0  0  0  0  0  0  0  0  0  0  0
   -3.4328   -2.9579   -3.1550 H   0  0  0  0  0  0  0  0  0  0  0  0
    0.6805   -4.1615   -2.7037 H   0  0  0  0  0  0  0  0  0  0  0  0
    2.2616   -4.3435    0.8398 H   0  0  0  0  0  0  0  0  0  0  0  0
    3.9805   -0.3863    2.5308 H   0  0  0  0  0  0  0  0  0  0  0  0
    5.1202    3.3078    2.1508 H   0  0  0  0  0  0  0  0  0  0  0  0
    7.4029   -0.2563    0.2981 H   0  0  0  0  0  0  0  0  0  0  0  0
  1  2  1  0  0  0  0
  2  3  1  0  0  0  0
  3  4  1  0  0  0  0
  4  5  1  0  0  0  0
  5  6  1  0  0  0  0
  6  7  1  0  0  0  0
  2  7  1  0  0  0  0
  6  8  1  0  0  0  0
  8  9  1  0  0  0  0
  9 10  1  0  0  0  0
 10 11  1  0  0  0  0
 11 12  1  0  0  0  0
 12 13  1  0  0  0  0
 13 14  1  0  0  0  0
  9 14  1  0  0  0  0
 14 15  1  0  0  0  0
 15 16  1  0  0  0  0
 16 17  2  0  0  0  0
 17 18  1  0  0  0  0
 18 19  1  0  0  0  0
 19 20  2  0  0  0  0
 20 21  1  0  0  0  0
 21 22  2  0  0  0  0
 22 23  1  0  0  0  0
 23 24  2  0  0  0  0
 19 24  1  0  0  0  0
 24 25  1  0  0  0  0
 16 25  1  0  0  0  0
 25 26  2  0  0  0  0
 23 27  1  0  0  0  0
 21 28  1  0  0  0  0
 17 29  1  0  0  0  0
 29 30  2  0  0  0  0
 30 31  1  0  0  0  0
 31 32  2  0  0  0  0
 32 33  1  0  0  0  0
 33 34  2  0  0  0  0
 29 34  1  0  0  0  0
 32 35  1  0  0  0  0
 12 36  1  0  0  0  0
 36 37  1  0  0  0  0
 11 38  1  0  0  0  0
 10 39  1  0  0  0  0
  5 40  1  0  0  0  0
  4 41  1  0  0  0  0
  3 42  1  0  0  0  0
  1 43  1  0  0  0  0
  1 44  1  0  0  0  0
  1 45  1  0  0  0  0
  2 46  1  0  0  0  0
  3 47  1  0  0  0  0
  4 48  1  0  0  0  0
  5 49  1  0  0  0  0
  6 50  1  0  0  0  0
  9 51  1  0  0  0  0
 10 52  1  0  0  0  0
 11 53  1  0  0  0  0
 12 54  1  0  0  0  0
 14 55  1  0  0  0  0
 20 56  1  0  0  0  0
 22 57  1  0  0  0  0
 27 58  1  0  0  0  0
 28 59  1  0  0  0  0
 30 60  1  0  0  0  0
 31 61  1  0  0  0  0
 33 62  1  0  0  0  0
 34 63  1  0  0  0  0
 35 64  1  0  0  0  0
 36 65  1  0  0  0  0
 36 66  1  0  0  0  0
 37 67  1  0  0  0  0
 38 68  1  0  0  0  0
 39 69  1  0  0  0  0
 40 70  1  0  0  0  0
 41 71  1  0  0  0  0
 42 72  1  0  0  0  0
M  END
$$$$
