C17H28
APtclcactv06281817023D 0   0.00000     0.00000
 
 45 44  0  0  0  0  0  0  0  0999 V2000
    8.2026   -1.0538   -1.2134 C   0  0  0  0  0  0  0  0  0  0  0  0
    7.0937   -1.8902   -0.5718 C   0  0  0  0  0  0  0  0  0  0  0  0
    6.3604   -1.0557    0.4465 C   0  0  0  0  0  0  0  0  0  0  0  0
    5.0604   -0.9161    0.3653 C   0  0  0  0  0  0  0  0  0  0  0  0
    4.3271   -0.0816    1.3836 C   0  0  0  0  0  0  0  0  0  0  0  0
    3.5207    0.9781    0.6779 C   0  0  0  0  0  0  0  0  0  0  0  0
    2.2336    1.0781    0.9001 C   0  0  0  0  0  0  0  0  0  0  0  0
    1.4272    2.1377    0.1945 C   0  0  0  0  0  0  0  0  0  0  0  0
    0.2773    1.4916   -0.5344 C   0  0  0  0  0  0  0  0  0  0  0  0
   -0.9494    1.8919   -0.3081 C   0  0  0  0  0  0  0  0  0  0  0  0
   -2.0994    1.2458   -1.0370 C   0  0  0  0  0  0  0  0  0  0  0  0
   -3.1192    0.7261   -0.0217 C   0  0  0  0  0  0  0  0  0  0  0  0
   -4.2867    0.0701   -0.7617 C   0  0  0  0  0  0  0  0  0  0  0  0
   -5.3065   -0.4496    0.2535 C   0  0  0  0  0  0  0  0  0  0  0  0
   -6.4740   -1.1056   -0.4865 C   0  0  0  0  0  0  0  0  0  0  0  0
   -7.4785   -1.6175    0.5135 C   0  0  0  0  0  0  0  0  0  0  0  0
   -8.7308   -1.2409    0.4355 C   0  0  0  0  0  0  0  0  0  0  0  0
    8.9003   -0.7238   -0.4437 H   0  0  0  0  0  0  0  0  0  0  0  0
    8.7330   -1.6574   -1.9499 H   0  0  0  0  0  0  0  0  0  0  0  0
    7.7646   -0.1844   -1.7036 H   0  0  0  0  0  0  0  0  0  0  0  0
    6.3960   -2.2202   -1.3414 H   0  0  0  0  0  0  0  0  0  0  0  0
    7.5318   -2.7596   -0.0815 H   0  0  0  0  0  0  0  0  0  0  0  0
    6.9066   -0.5728    1.2433 H   0  0  0  0  0  0  0  0  0  0  0  0
    4.5142   -1.3990   -0.4315 H   0  0  0  0  0  0  0  0  0  0  0  0
    3.6603   -0.7194    1.9638 H   0  0  0  0  0  0  0  0  0  0  0  0
    5.0468    0.3934    2.0503 H   0  0  0  0  0  0  0  0  0  0  0  0
    4.0040    1.6550   -0.0110 H   0  0  0  0  0  0  0  0  0  0  0  0
    1.7503    0.4011    1.5890 H   0  0  0  0  0  0  0  0  0  0  0  0
    1.0409    2.8476    0.9259 H   0  0  0  0  0  0  0  0  0  0  0  0
    2.0620    2.6616   -0.5202 H   0  0  0  0  0  0  0  0  0  0  0  0
    0.4644    0.6987   -1.2433 H   0  0  0  0  0  0  0  0  0  0  0  0
   -1.1366    2.6849    0.4008 H   0  0  0  0  0  0  0  0  0  0  0  0
   -2.5756    1.9796   -1.6873 H   0  0  0  0  0  0  0  0  0  0  0  0
   -1.7283    0.4150   -1.6372 H   0  0  0  0  0  0  0  0  0  0  0  0
   -2.6430   -0.0077    0.6286 H   0  0  0  0  0  0  0  0  0  0  0  0
   -3.4902    1.5569    0.5784 H   0  0  0  0  0  0  0  0  0  0  0  0
   -4.7629    0.8039   -1.4120 H   0  0  0  0  0  0  0  0  0  0  0  0
   -3.9157   -0.7607   -1.3619 H   0  0  0  0  0  0  0  0  0  0  0  0
   -4.8303   -1.1834    0.9038 H   0  0  0  0  0  0  0  0  0  0  0  0
   -5.6775    0.3812    0.8537 H   0  0  0  0  0  0  0  0  0  0  0  0
   -6.9502   -0.3718   -1.1368 H   0  0  0  0  0  0  0  0  0  0  0  0
   -6.1030   -1.9364   -1.0866 H   0  0  0  0  0  0  0  0  0  0  0  0
   -7.1660   -2.2949    1.2945 H   0  0  0  0  0  0  0  0  0  0  0  0
   -9.0433   -0.5635   -0.3455 H   0  0  0  0  0  0  0  0  0  0  0  0
   -9.4507   -1.6077    1.1521 H   0  0  0  0  0  0  0  0  0  0  0  0
  1  2  1  0  0  0  0
  2  3  1  0  0  0  0
  3  4  2  0  0  0  0
  4  5  1  0  0  0  0
  5  6  1  0  0  0  0
  6  7  2  0  0  0  0
  7  8  1  0  0  0  0
  8  9  1  0  0  0  0
  9 10  2  0  0  0  0
 10 11  1  0  0  0  0
 11 12  1  0  0  0  0
 12 13  1  0  0  0  0
 13 14  1  0  0  0  0
 14 15  1  0  0  0  0
 15 16  1  0  0  0  0
 16 17  2  0  0  0  0
  1 18  1  0  0  0  0
  1 19  1  0  0  0  0
  1 20  1  0  0  0  0
  2 21  1  0  0  0  0
  2 22  1  0  0  0  0
  3 23  1  0  0  0  0
  4 24  1  0  0  0  0
  5 25  1  0  0  0  0
  5 26  1  0  0  0  0
  6 27  1  0  0  0  0
  7 28  1  0  0  0  0
  8 29  1  0  0  0  0
  8 30  1  0  0  0  0
  9 31  1  0  0  0  0
 10 32  1  0  0  0  0
 11 33  1  0  0  0  0
 11 34  1  0  0  0  0
 12 35  1  0  0  0  0
 12 36  1  0  0  0  0
 13 37  1  0  0  0  0
 13 38  1  0  0  0  0
 14 39  1  0  0  0  0
 14 40  1  0  0  0  0
 15 41  1  0  0  0  0
 15 42  1  0  0  0  0
 16 43  1  0  0  0  0
 17 44  1  0  0  0  0
 17 45  1  0  0  0  0
M  END
$$$$
