C30H48O3
APtclcactv06281817023D 0   0.00000     0.00000
 
 81 85  0  0  0  0  0  0  0  0999 V2000
    2.7988    2.3080   -2.0457 C   0  0  0  0  0  0  0  0  0  0  0  0
    1.9897    1.5571   -0.9862 C   0  0  0  0  0  0  0  0  0  0  0  0
    2.9384    0.7524   -0.0956 C   0  0  0  0  0  0  0  0  0  0  0  0
    3.7152   -0.2495   -0.9521 C   0  0  0  0  0  0  0  0  0  0  0  0
    4.6496   -1.0421   -0.0748 C   0  0  0  0  0  0  0  0  0  0  0  0
    5.9481   -1.0943   -0.3619 C   0  0  0  0  0  0  0  0  0  0  0  0
    6.4701   -0.4366   -1.6133 C   0  0  0  0  0  0  0  0  0  0  0  0
    6.8728   -1.7931    0.5414 C   0  0  0  0  0  0  0  0  0  0  0  0
    6.4518   -2.3235    1.5506 O   0  0  0  0  0  0  0  0  0  0  0  0
    8.1880   -1.8459    0.2506 O   0  0  0  0  0  0  0  0  0  0  0  0
    1.2192    2.5552   -0.1349 C   0  0  0  0  0  0  0  0  0  0  0  0
    0.4120    3.5487   -1.0062 C   0  0  0  0  0  0  0  0  0  0  0  0
   -1.0533    3.4825   -0.4893 C   0  0  0  0  0  0  0  0  0  0  0  0
   -1.1426    2.0319    0.0168 C   0  0  0  0  0  0  0  0  0  0  0  0
    0.1931    1.8943    0.7845 C   0  0  0  0  0  0  0  0  0  0  0  0
    0.4018    0.4445    1.1530 C   0  0  0  0  0  0  0  0  0  0  0  0
   -0.7287    0.0010    2.0897 C   0  0  0  0  0  0  0  0  0  0  0  0
   -2.1197    0.3467    1.5370 C   0  0  0  0  0  0  0  0  0  0  0  0
   -2.2982    1.7443    0.9560 C   0  0  0  0  0  0  0  0  0  0  0  0
   -3.6311    1.9651    0.2878 C   0  0  0  0  0  0  0  0  0  0  0  0
   -4.1835    0.8444   -0.5521 C   0  0  0  0  0  0  0  0  0  0  0  0
   -4.0475   -0.5336   -0.0144 C   0  0  0  0  0  0  0  0  0  0  0  0
   -2.9909   -0.8038    1.0174 C   0  0  0  0  0  0  0  0  0  0  0  0
   -3.2719   -0.1936    2.4084 C   0  0  0  0  0  0  0  0  0  0  0  0
   -2.2895   -2.1631    1.0100 C   0  0  0  0  0  0  0  0  0  0  0  0
   -3.1094   -3.2735    0.4055 C   0  0  0  0  0  0  0  0  0  0  0  0
   -3.7512   -2.8866   -0.9065 C   0  0  0  0  0  0  0  0  0  0  0  0
   -4.6315   -1.6615   -0.7872 C   0  0  0  0  0  0  0  0  0  0  0  0
   -5.9388   -2.0767   -0.1028 C   0  0  0  0  0  0  0  0  0  0  0  0
   -4.9758   -1.1981   -2.2042 C   0  0  0  0  0  0  0  0  0  0  0  0
   -2.7235   -2.6254   -1.8662 O   0  0  0  0  0  0  0  0  0  0  0  0
    0.1673    2.7329    2.0783 C   0  0  0  0  0  0  0  0  0  0  0  0
   -1.1887    1.0861   -1.1904 C   0  0  0  0  0  0  0  0  0  0  0  0
    3.3509    1.5930   -2.6556 H   0  0  0  0  0  0  0  0  0  0  0  0
    2.1229    2.8813   -2.6802 H   0  0  0  0  0  0  0  0  0  0  0  0
    3.4990    2.9848   -1.5560 H   0  0  0  0  0  0  0  0  0  0  0  0
    1.2895    0.8804   -1.4759 H   0  0  0  0  0  0  0  0  0  0  0  0
    3.6375    1.4293    0.3956 H   0  0  0  0  0  0  0  0  0  0  0  0
    2.3619    0.2160    0.6581 H   0  0  0  0  0  0  0  0  0  0  0  0
    3.0162   -0.9264   -1.4432 H   0  0  0  0  0  0  0  0  0  0  0  0
    4.2918    0.2869   -1.7057 H   0  0  0  0  0  0  0  0  0  0  0  0
    4.2656   -1.5679    0.7869 H   0  0  0  0  0  0  0  0  0  0  0  0
    6.7048    0.6072   -1.4044 H   0  0  0  0  0  0  0  0  0  0  0  0
    7.3711   -0.9520   -1.9459 H   0  0  0  0  0  0  0  0  0  0  0  0
    5.7120   -0.4892   -2.3947 H   0  0  0  0  0  0  0  0  0  0  0  0
    8.7571   -2.3168    0.8747 H   0  0  0  0  0  0  0  0  0  0  0  0
    1.9295    3.1248    0.4835 H   0  0  0  0  0  0  0  0  0  0  0  0
    0.8024    4.5584   -0.8800 H   0  0  0  0  0  0  0  0  0  0  0  0
    0.4566    3.2599   -2.0539 H   0  0  0  0  0  0  0  0  0  0  0  0
   -1.2278    4.1977    0.3053 H   0  0  0  0  0  0  0  0  0  0  0  0
   -1.7531    3.6382   -1.3122 H   0  0  0  0  0  0  0  0  0  0  0  0
    0.4379   -0.2093    0.2860 H   0  0  0  0  0  0  0  0  0  0  0  0
    1.3579    0.3442    1.6900 H   0  0  0  0  0  0  0  0  0  0  0  0
   -0.6618   -1.0851    2.2196 H   0  0  0  0  0  0  0  0  0  0  0  0
   -0.6049    0.4514    3.0729 H   0  0  0  0  0  0  0  0  0  0  0  0
   -2.2652    2.4566    1.7971 H   0  0  0  0  0  0  0  0  0  0  0  0
   -4.3681    2.2011    1.0729 H   0  0  0  0  0  0  0  0  0  0  0  0
   -3.5606    2.8676   -0.3362 H   0  0  0  0  0  0  0  0  0  0  0  0
   -5.2627    1.0458   -0.6869 H   0  0  0  0  0  0  0  0  0  0  0  0
   -3.7402    0.9086   -1.5490 H   0  0  0  0  0  0  0  0  0  0  0  0
   -4.8834   -0.4544    0.7055 H   0  0  0  0  0  0  0  0  0  0  0  0
   -3.0011   -0.7867    3.2802 H   0  0  0  0  0  0  0  0  0  0  0  0
   -4.1547    0.4344    2.5132 H   0  0  0  0  0  0  0  0  0  0  0  0
   -1.3567   -2.0718    0.4523 H   0  0  0  0  0  0  0  0  0  0  0  0
   -2.0485   -2.4343    2.0404 H   0  0  0  0  0  0  0  0  0  0  0  0
   -2.4555   -4.1322    0.2335 H   0  0  0  0  0  0  0  0  0  0  0  0
   -3.8815   -3.5702    1.1134 H   0  0  0  0  0  0  0  0  0  0  0  0
   -4.3563   -3.7211   -1.2633 H   0  0  0  0  0  0  0  0  0  0  0  0
   -5.7193   -2.4783    0.8865 H   0  0  0  0  0  0  0  0  0  0  0  0
   -6.5900   -1.2080   -0.0060 H   0  0  0  0  0  0  0  0  0  0  0  0
   -6.4366   -2.8389   -0.7021 H   0  0  0  0  0  0  0  0  0  0  0  0
   -5.5031   -1.9947   -2.7290 H   0  0  0  0  0  0  0  0  0  0  0  0
   -5.6113   -0.3140   -2.1530 H   0  0  0  0  0  0  0  0  0  0  0  0
   -4.0582   -0.9554   -2.7401 H   0  0  0  0  0  0  0  0  0  0  0  0
   -2.1445   -3.3806   -2.0378 H   0  0  0  0  0  0  0  0  0  0  0  0
   -0.6443    2.3876    2.7188 H   0  0  0  0  0  0  0  0  0  0  0  0
    1.1164    2.6215    2.6025 H   0  0  0  0  0  0  0  0  0  0  0  0
    0.0114    3.7822    1.8281 H   0  0  0  0  0  0  0  0  0  0  0  0
   -0.2983    1.2335   -1.8017 H   0  0  0  0  0  0  0  0  0  0  0  0
   -1.2235    0.0538   -0.8421 H   0  0  0  0  0  0  0  0  0  0  0  0
   -2.0770    1.2990   -1.7851 H   0  0  0  0  0  0  0  0  0  0  0  0
  1  2  1  0  0  0  0
  2  3  1  0  0  0  0
  3  4  1  0  0  0  0
  4  5  1  0  0  0  0
  5  6  2  0  0  0  0
  6  7  1  0  0  0  0
  6  8  1  0  0  0  0
  8  9  2  0  0  0  0
  8 10  1  0  0  0  0
  2 11  1  0  0  0  0
 11 12  1  0  0  0  0
 12 13  1  0  0  0  0
 13 14  1  0  0  0  0
 14 15  1  0  0  0  0
 11 15  1  0  0  0  0
 15 16  1  0  0  0  0
 16 17  1  0  0  0  0
 17 18  1  0  0  0  0
 18 19  1  0  0  0  0
 14 19  1  0  0  0  0
 19 20  1  0  0  0  0
 20 21  1  0  0  0  0
 21 22  1  0  0  0  0
 22 23  1  0  0  0  0
 18 23  1  0  0  0  0
 23 24  1  0  0  0  0
 18 24  1  0  0  0  0
 23 25  1  0  0  0  0
 25 26  1  0  0  0  0
 26 27  1  0  0  0  0
 27 28  1  0  0  0  0
 22 28  1  0  0  0  0
 28 29  1  0  0  0  0
 28 30  1  0  0  0  0
 27 31  1  0  0  0  0
 15 32  1  0  0  0  0
 14 33  1  0  0  0  0
  1 34  1  0  0  0  0
  1 35  1  0  0  0  0
  1 36  1  0  0  0  0
  2 37  1  0  0  0  0
  3 38  1  0  0  0  0
  3 39  1  0  0  0  0
  4 40  1  0  0  0  0
  4 41  1  0  0  0  0
  5 42  1  0  0  0  0
  7 43  1  0  0  0  0
  7 44  1  0  0  0  0
  7 45  1  0  0  0  0
 10 46  1  0  0  0  0
 11 47  1  0  0  0  0
 12 48  1  0  0  0  0
 12 49  1  0  0  0  0
 13 50  1  0  0  0  0
 13 51  1  0  0  0  0
 16 52  1  0  0  0  0
 16 53  1  0  0  0  0
 17 54  1  0  0  0  0
 17 55  1  0  0  0  0
 19 56  1  0  0  0  0
 20 57  1  0  0  0  0
 20 58  1  0  0  0  0
 21 59  1  0  0  0  0
 21 60  1  0  0  0  0
 22 61  1  0  0  0  0
 24 62  1  0  0  0  0
 24 63  1  0  0  0  0
 25 64  1  0  0  0  0
 25 65  1  0  0  0  0
 26 66  1  0  0  0  0
 26 67  1  0  0  0  0
 27 68  1  0  0  0  0
 29 69  1  0  0  0  0
 29 70  1  0  0  0  0
 29 71  1  0  0  0  0
 30 72  1  0  0  0  0
 30 73  1  0  0  0  0
 30 74  1  0  0  0  0
 31 75  1  0  0  0  0
 32 76  1  0  0  0  0
 32 77  1  0  0  0  0
 32 78  1  0  0  0  0
 33 79  1  0  0  0  0
 33 80  1  0  0  0  0
 33 81  1  0  0  0  0
M  END
$$$$
