C25H24O5
APtclcactv06281817023D 0   0.00000     0.00000
 
 54 57  0  0  0  0  0  0  0  0999 V2000
   -1.7354    4.7412    1.1772 C   0  0  0  0  0  0  0  0  0  0  0  0
   -1.0251    4.4808   -0.1527 C   0  0  0  0  0  0  0  0  0  0  0  0
    0.0131    5.5771   -0.3996 C   0  0  0  0  0  0  0  0  0  0  0  0
   -0.3274    3.1201   -0.1003 C   0  0  0  0  0  0  0  0  0  0  0  0
   -1.3609    2.0299    0.0198 C   0  0  0  0  0  0  0  0  0  0  0  0
   -2.5402    2.3135    0.0597 O   0  0  0  0  0  0  0  0  0  0  0  0
   -0.9426    0.6297    0.0884 C   0  0  0  0  0  0  0  0  0  0  0  0
    0.4213    0.2979    0.0425 C   0  0  0  0  0  0  0  0  0  0  0  0
    0.8148   -1.0449    0.1087 C   0  0  0  0  0  0  0  0  0  0  0  0
   -0.1475   -2.0639    0.2201 C   0  0  0  0  0  0  0  0  0  0  0  0
   -1.5038   -1.7276    0.2645 C   0  0  0  0  0  0  0  0  0  0  0  0
   -1.9035   -0.3893    0.2062 C   0  0  0  0  0  0  0  0  0  0  0  0
   -3.2254   -0.0987    0.2537 O   0  0  0  0  0  0  0  0  0  0  0  0
   -4.1191   -1.0279   -0.3606 C   0  0  0  0  0  0  0  0  0  0  0  0
   -3.8022   -2.4330    0.0797 C   0  0  0  0  0  0  0  0  0  0  0  0
   -2.5471   -2.7691    0.3805 C   0  0  0  0  0  0  0  0  0  0  0  0
   -5.5564   -0.6854    0.0364 C   0  0  0  0  0  0  0  0  0  0  0  0
   -3.9823   -0.9314   -1.8815 C   0  0  0  0  0  0  0  0  0  0  0  0
    0.2428   -3.3535    0.2834 O   0  0  0  0  0  0  0  0  0  0  0  0
    1.5365   -3.7089    0.2442 C   0  0  0  0  0  0  0  0  0  0  0  0
    1.8288   -4.8903    0.3055 O   0  0  0  0  0  0  0  0  0  0  0  0
    2.5623   -2.7565    0.1341 C   0  0  0  0  0  0  0  0  0  0  0  0
    2.2385   -1.4138    0.0637 C   0  0  0  0  0  0  0  0  0  0  0  0
    3.2910   -0.3804   -0.0527 C   0  0  0  0  0  0  0  0  0  0  0  0
    4.0950   -0.3242   -1.1921 C   0  0  0  0  0  0  0  0  0  0  0  0
    5.0746    0.6418   -1.2944 C   0  0  0  0  0  0  0  0  0  0  0  0
    5.2611    1.5534   -0.2704 C   0  0  0  0  0  0  0  0  0  0  0  0
    4.4677    1.5028    0.8620 C   0  0  0  0  0  0  0  0  0  0  0  0
    3.4802    0.5460    0.9739 C   0  0  0  0  0  0  0  0  0  0  0  0
    1.3534    1.2733   -0.0660 O   0  0  0  0  0  0  0  0  0  0  0  0
   -2.2325    5.7105    1.1399 H   0  0  0  0  0  0  0  0  0  0  0  0
   -2.4751    3.9601    1.3531 H   0  0  0  0  0  0  0  0  0  0  0  0
   -1.0047    4.7384    1.9860 H   0  0  0  0  0  0  0  0  0  0  0  0
   -1.7558    4.4835   -0.9615 H   0  0  0  0  0  0  0  0  0  0  0  0
    0.7438    5.5743    0.4093 H   0  0  0  0  0  0  0  0  0  0  0  0
    0.5191    5.3916   -1.3470 H   0  0  0  0  0  0  0  0  0  0  0  0
   -0.4839    6.5465   -0.4368 H   0  0  0  0  0  0  0  0  0  0  0  0
    0.2513    2.9732   -1.0123 H   0  0  0  0  0  0  0  0  0  0  0  0
    0.3384    3.0861    0.7620 H   0  0  0  0  0  0  0  0  0  0  0  0
   -4.5912   -3.1665    0.1572 H   0  0  0  0  0  0  0  0  0  0  0  0
   -2.2998   -3.7741    0.6893 H   0  0  0  0  0  0  0  0  0  0  0  0
   -5.7946    0.3247   -0.2969 H   0  0  0  0  0  0  0  0  0  0  0  0
   -6.2410   -1.3932   -0.4311 H   0  0  0  0  0  0  0  0  0  0  0  0
   -5.6577   -0.7438    1.1201 H   0  0  0  0  0  0  0  0  0  0  0  0
   -2.9575   -1.1657   -2.1697 H   0  0  0  0  0  0  0  0  0  0  0  0
   -4.6634   -1.6397   -2.3532 H   0  0  0  0  0  0  0  0  0  0  0  0
   -4.2285    0.0799   -2.2050 H   0  0  0  0  0  0  0  0  0  0  0  0
    3.5954   -3.0698    0.1046 H   0  0  0  0  0  0  0  0  0  0  0  0
    3.9509   -1.0357   -1.9918 H   0  0  0  0  0  0  0  0  0  0  0  0
    5.6975    0.6863   -2.1756 H   0  0  0  0  0  0  0  0  0  0  0  0
    6.0296    2.3074   -0.3552 H   0  0  0  0  0  0  0  0  0  0  0  0
    4.6188    2.2168    1.6582 H   0  0  0  0  0  0  0  0  0  0  0  0
    2.8615    0.5075    1.8583 H   0  0  0  0  0  0  0  0  0  0  0  0
    1.6676    1.6132    0.7831 H   0  0  0  0  0  0  0  0  0  0  0  0
  1  2  1  0  0  0  0
  2  3  1  0  0  0  0
  2  4  1  0  0  0  0
  4  5  1  0  0  0  0
  5  6  2  0  0  0  0
  5  7  1  0  0  0  0
  7  8  2  0  0  0  0
  8  9  1  0  0  0  0
  9 10  2  0  0  0  0
 10 11  1  0  0  0  0
 11 12  2  0  0  0  0
  7 12  1  0  0  0  0
 12 13  1  0  0  0  0
 13 14  1  0  0  0  0
 14 15  1  0  0  0  0
 15 16  2  0  0  0  0
 11 16  1  0  0  0  0
 14 17  1  0  0  0  0
 14 18  1  0  0  0  0
 10 19  1  0  0  0  0
 19 20  1  0  0  0  0
 20 21  2  0  0  0  0
 20 22  1  0  0  0  0
 22 23  2  0  0  0  0
  9 23  1  0  0  0  0
 23 24  1  0  0  0  0
 24 25  2  0  0  0  0
 25 26  1  0  0  0  0
 26 27  2  0  0  0  0
 27 28  1  0  0  0  0
 28 29  2  0  0  0  0
 24 29  1  0  0  0  0
  8 30  1  0  0  0  0
  1 31  1  0  0  0  0
  1 32  1  0  0  0  0
  1 33  1  0  0  0  0
  2 34  1  0  0  0  0
  3 35  1  0  0  0  0
  3 36  1  0  0  0  0
  3 37  1  0  0  0  0
  4 38  1  0  0  0  0
  4 39  1  0  0  0  0
 15 40  1  0  0  0  0
 16 41  1  0  0  0  0
 17 42  1  0  0  0  0
 17 43  1  0  0  0  0
 17 44  1  0  0  0  0
 18 45  1  0  0  0  0
 18 46  1  0  0  0  0
 18 47  1  0  0  0  0
 22 48  1  0  0  0  0
 25 49  1  0  0  0  0
 26 50  1  0  0  0  0
 27 51  1  0  0  0  0
 28 52  1  0  0  0  0
 29 53  1  0  0  0  0
 30 54  1  0  0  0  0
M  END
$$$$
