C30H52O
APtclcactv06281817033D 0   0.00000     0.00000
 
 83 86  0  0  0  0  0  0  0  0999 V2000
   -6.3964    1.1780    1.3215 C   0  0  0  0  0  0  0  0  0  0  0  0
   -5.7383    0.1381    0.4124 C   0  0  0  0  0  0  0  0  0  0  0  0
   -4.2259    0.3563    0.3981 C   0  0  0  0  0  0  0  0  0  0  0  0
   -3.8886    1.7649   -0.0760 C   0  0  0  0  0  0  0  0  0  0  0  0
   -2.3778    2.0026   -0.0627 C   0  0  0  0  0  0  0  0  0  0  0  0
   -1.6469    0.7364    0.3752 C   0  0  0  0  0  0  0  0  0  0  0  0
   -2.0860   -0.4080   -0.5116 C   0  0  0  0  0  0  0  0  0  0  0  0
   -1.2923   -1.1148   -1.2579 C   0  0  0  0  0  0  0  0  0  0  0  0
    0.1898   -0.8283   -1.3806 C   0  0  0  0  0  0  0  0  0  0  0  0
    0.3592    0.6569   -1.0962 C   0  0  0  0  0  0  0  0  0  0  0  0
   -0.1541    0.8932    0.3474 C   0  0  0  0  0  0  0  0  0  0  0  0
    0.3941    2.2902    0.6579 C   0  0  0  0  0  0  0  0  0  0  0  0
    1.8232    2.2477    0.0532 C   0  0  0  0  0  0  0  0  0  0  0  0
    1.8027    1.1539   -1.0420 C   0  0  0  0  0  0  0  0  0  0  0  0
    2.7431    0.0080   -0.6633 C   0  0  0  0  0  0  0  0  0  0  0  0
    2.8558   -0.9681   -1.8361 C   0  0  0  0  0  0  0  0  0  0  0  0
    4.1268    0.5715   -0.3339 C   0  0  0  0  0  0  0  0  0  0  0  0
    5.0318   -0.5571    0.1643 C   0  0  0  0  0  0  0  0  0  0  0  0
    6.4156    0.0065    0.4937 C   0  0  0  0  0  0  0  0  0  0  0  0
    6.3028    0.9825    1.6665 C   0  0  0  0  0  0  0  0  0  0  0  0
    7.3560   -1.1394    0.8724 C   0  0  0  0  0  0  0  0  0  0  0  0
    7.4687   -2.1155   -0.3004 C   0  0  0  0  0  0  0  0  0  0  0  0
    8.7398   -0.5759    1.2018 C   0  0  0  0  0  0  0  0  0  0  0  0
    0.4876   -0.1233    1.2939 C   0  0  0  0  0  0  0  0  0  0  0  0
   -0.4590    1.4820   -2.0915 C   0  0  0  0  0  0  0  0  0  0  0  0
   -3.5802   -0.6789   -0.5342 C   0  0  0  0  0  0  0  0  0  0  0  0
   -3.8600   -2.0793    0.0103 C   0  0  0  0  0  0  0  0  0  0  0  0
   -5.3731   -2.3112    0.0434 C   0  0  0  0  0  0  0  0  0  0  0  0
   -6.0377   -1.2670    0.9417 C   0  0  0  0  0  0  0  0  0  0  0  0
   -5.5298   -1.3920    2.2715 O   0  0  0  0  0  0  0  0  0  0  0  0
   -4.1250   -0.5244   -1.9555 C   0  0  0  0  0  0  0  0  0  0  0  0
   -6.1775    2.1782    0.9474 H   0  0  0  0  0  0  0  0  0  0  0  0
   -7.4751    1.0216    1.3310 H   0  0  0  0  0  0  0  0  0  0  0  0
   -6.0054    1.0751    2.3337 H   0  0  0  0  0  0  0  0  0  0  0  0
   -6.1304    0.2386   -0.5996 H   0  0  0  0  0  0  0  0  0  0  0  0
   -3.8323    0.2116    1.4042 H   0  0  0  0  0  0  0  0  0  0  0  0
   -4.2631    1.9000   -1.0907 H   0  0  0  0  0  0  0  0  0  0  0  0
   -4.3704    2.4885    0.5815 H   0  0  0  0  0  0  0  0  0  0  0  0
   -2.0476    2.2822   -1.0631 H   0  0  0  0  0  0  0  0  0  0  0  0
   -2.1458    2.8112    0.6305 H   0  0  0  0  0  0  0  0  0  0  0  0
   -1.9406    0.5079    1.3997 H   0  0  0  0  0  0  0  0  0  0  0  0
   -1.7067   -1.9424   -1.8144 H   0  0  0  0  0  0  0  0  0  0  0  0
    0.7467   -1.4156   -0.6505 H   0  0  0  0  0  0  0  0  0  0  0  0
    0.5336   -1.0583   -2.3891 H   0  0  0  0  0  0  0  0  0  0  0  0
   -0.2078    3.0574    0.1707 H   0  0  0  0  0  0  0  0  0  0  0  0
    0.4358    2.4573    1.7342 H   0  0  0  0  0  0  0  0  0  0  0  0
    2.0718    3.2133   -0.3871 H   0  0  0  0  0  0  0  0  0  0  0  0
    2.5484    1.9904    0.8253 H   0  0  0  0  0  0  0  0  0  0  0  0
    2.0918    1.5777   -2.0037 H   0  0  0  0  0  0  0  0  0  0  0  0
    2.3469   -0.5145    0.2074 H   0  0  0  0  0  0  0  0  0  0  0  0
    3.7394   -1.5928   -1.7053 H   0  0  0  0  0  0  0  0  0  0  0  0
    1.9672   -1.5983   -1.8710 H   0  0  0  0  0  0  0  0  0  0  0  0
    2.9412   -0.4084   -2.7676 H   0  0  0  0  0  0  0  0  0  0  0  0
    4.5605    1.0165   -1.2295 H   0  0  0  0  0  0  0  0  0  0  0  0
    4.0343    1.3321    0.4414 H   0  0  0  0  0  0  0  0  0  0  0  0
    4.5981   -1.0020    1.0599 H   0  0  0  0  0  0  0  0  0  0  0  0
    5.1243   -1.3177   -0.6110 H   0  0  0  0  0  0  0  0  0  0  0  0
    6.8117    0.5290   -0.3770 H   0  0  0  0  0  0  0  0  0  0  0  0
    5.9066    0.4600    2.5372 H   0  0  0  0  0  0  0  0  0  0  0  0
    7.2886    1.3840    1.9012 H   0  0  0  0  0  0  0  0  0  0  0  0
    5.6328    1.7989    1.3967 H   0  0  0  0  0  0  0  0  0  0  0  0
    6.9598   -1.6619    1.7431 H   0  0  0  0  0  0  0  0  0  0  0  0
    8.1387   -2.9318   -0.0306 H   0  0  0  0  0  0  0  0  0  0  0  0
    6.4829   -2.5169   -0.5351 H   0  0  0  0  0  0  0  0  0  0  0  0
    7.8649   -1.5930   -1.1711 H   0  0  0  0  0  0  0  0  0  0  0  0
    8.6594    0.1195    2.0373 H   0  0  0  0  0  0  0  0  0  0  0  0
    9.4097   -1.3922    1.4716 H   0  0  0  0  0  0  0  0  0  0  0  0
    9.1359   -0.0534    0.3311 H   0  0  0  0  0  0  0  0  0  0  0  0
    1.5517    0.0922    1.3911 H   0  0  0  0  0  0  0  0  0  0  0  0
    0.0128   -0.0583    2.2729 H   0  0  0  0  0  0  0  0  0  0  0  0
    0.3555   -1.1278    0.8920 H   0  0  0  0  0  0  0  0  0  0  0  0
   -1.4882    1.1232   -2.1014 H   0  0  0  0  0  0  0  0  0  0  0  0
   -0.4426    2.5305   -1.7943 H   0  0  0  0  0  0  0  0  0  0  0  0
   -0.0291    1.3800   -3.0879 H   0  0  0  0  0  0  0  0  0  0  0  0
   -3.3916   -2.8218   -0.6358 H   0  0  0  0  0  0  0  0  0  0  0  0
   -3.4560   -2.1655    1.0190 H   0  0  0  0  0  0  0  0  0  0  0  0
   -5.7746   -2.2285   -0.9666 H   0  0  0  0  0  0  0  0  0  0  0  0
   -5.5785   -3.3081    0.4334 H   0  0  0  0  0  0  0  0  0  0  0  0
   -7.1155   -1.4292    0.9497 H   0  0  0  0  0  0  0  0  0  0  0  0
   -5.6882   -2.2572    2.6734 H   0  0  0  0  0  0  0  0  0  0  0  0
   -3.6244   -1.2329   -2.6155 H   0  0  0  0  0  0  0  0  0  0  0  0
   -5.1971   -0.7213   -1.9571 H   0  0  0  0  0  0  0  0  0  0  0  0
   -3.9417    0.4911   -2.3065 H   0  0  0  0  0  0  0  0  0  0  0  0
  1  2  1  0  0  0  0
  2  3  1  0  0  0  0
  3  4  1  0  0  0  0
  4  5  1  0  0  0  0
  5  6  1  0  0  0  0
  6  7  1  0  0  0  0
  7  8  2  0  0  0  0
  8  9  1  0  0  0  0
  9 10  1  0  0  0  0
 10 11  1  0  0  0  0
  6 11  1  0  0  0  0
 11 12  1  0  0  0  0
 12 13  1  0  0  0  0
 13 14  1  0  0  0  0
 10 14  1  0  0  0  0
 14 15  1  0  0  0  0
 15 16  1  0  0  0  0
 15 17  1  0  0  0  0
 17 18  1  0  0  0  0
 18 19  1  0  0  0  0
 19 20  1  0  0  0  0
 19 21  1  0  0  0  0
 21 22  1  0  0  0  0
 21 23  1  0  0  0  0
 11 24  1  0  0  0  0
 10 25  1  0  0  0  0
  7 26  1  0  0  0  0
  3 26  1  0  0  0  0
 26 27  1  0  0  0  0
 27 28  1  0  0  0  0
 28 29  1  0  0  0  0
  2 29  1  0  0  0  0
 29 30  1  0  0  0  0
 26 31  1  0  0  0  0
  1 32  1  0  0  0  0
  1 33  1  0  0  0  0
  1 34  1  0  0  0  0
  2 35  1  0  0  0  0
  3 36  1  0  0  0  0
  4 37  1  0  0  0  0
  4 38  1  0  0  0  0
  5 39  1  0  0  0  0
  5 40  1  0  0  0  0
  6 41  1  0  0  0  0
  8 42  1  0  0  0  0
  9 43  1  0  0  0  0
  9 44  1  0  0  0  0
 12 45  1  0  0  0  0
 12 46  1  0  0  0  0
 13 47  1  0  0  0  0
 13 48  1  0  0  0  0
 14 49  1  0  0  0  0
 15 50  1  0  0  0  0
 16 51  1  0  0  0  0
 16 52  1  0  0  0  0
 16 53  1  0  0  0  0
 17 54  1  0  0  0  0
 17 55  1  0  0  0  0
 18 56  1  0  0  0  0
 18 57  1  0  0  0  0
 19 58  1  0  0  0  0
 20 59  1  0  0  0  0
 20 60  1  0  0  0  0
 20 61  1  0  0  0  0
 21 62  1  0  0  0  0
 22 63  1  0  0  0  0
 22 64  1  0  0  0  0
 22 65  1  0  0  0  0
 23 66  1  0  0  0  0
 23 67  1  0  0  0  0
 23 68  1  0  0  0  0
 24 69  1  0  0  0  0
 24 70  1  0  0  0  0
 24 71  1  0  0  0  0
 25 72  1  0  0  0  0
 25 73  1  0  0  0  0
 25 74  1  0  0  0  0
 27 75  1  0  0  0  0
 27 76  1  0  0  0  0
 28 77  1  0  0  0  0
 28 78  1  0  0  0  0
 29 79  1  0  0  0  0
 30 80  1  0  0  0  0
 31 81  1  0  0  0  0
 31 82  1  0  0  0  0
 31 83  1  0  0  0  0
M  END
$$$$
