C8H8O3
APtclcactv06281817023D 0   0.00000     0.00000
 
 19 20  0  0  0  0  0  0  0  0999 V2000
    3.3078    0.8731    0.0241 C   0  0  0  0  0  0  0  0  0  0  0  0
    1.9159    1.1924   -0.0259 O   0  0  0  0  0  0  0  0  0  0  0  0
    1.0432    0.1508   -0.0159 C   0  0  0  0  0  0  0  0  0  0  0  0
    1.5168   -1.1531    0.0411 C   0  0  0  0  0  0  0  0  0  0  0  0
    0.6256   -2.2094    0.0517 C   0  0  0  0  0  0  0  0  0  0  0  0
   -0.7341   -1.9741    0.0024 C   0  0  0  0  0  0  0  0  0  0  0  0
   -1.2162   -0.6718   -0.0583 C   0  0  0  0  0  0  0  0  0  0  0  0
   -0.3189    0.3875   -0.0565 C   0  0  0  0  0  0  0  0  0  0  0  0
   -1.1309    1.6639   -0.1105 C   0  0  0  0  0  0  0  0  0  0  0  0
   -2.4584    1.2331    0.2592 O   0  0  0  0  0  0  0  0  0  0  0  0
   -2.4884   -0.1909   -0.1280 O   0  0  0  0  0  0  0  0  0  0  0  0
    3.8924    1.7929    0.0099 H   0  0  0  0  0  0  0  0  0  0  0  0
    3.5213    0.3210    0.9394 H   0  0  0  0  0  0  0  0  0  0  0  0
    3.5716    0.2616   -0.8389 H   0  0  0  0  0  0  0  0  0  0  0  0
    2.5796   -1.3416    0.0766 H   0  0  0  0  0  0  0  0  0  0  0  0
    0.9943   -3.2234    0.0984 H   0  0  0  0  0  0  0  0  0  0  0  0
   -1.4249   -2.8042    0.0108 H   0  0  0  0  0  0  0  0  0  0  0  0
   -0.7501    2.3919    0.6057 H   0  0  0  0  0  0  0  0  0  0  0  0
   -1.1285    2.0781   -1.1187 H   0  0  0  0  0  0  0  0  0  0  0  0
  1  2  1  0  0  0  0
  2  3  1  0  0  0  0
  3  4  2  0  0  0  0
  4  5  1  0  0  0  0
  5  6  2  0  0  0  0
  6  7  1  0  0  0  0
  7  8  2  0  0  0  0
  3  8  1  0  0  0  0
  8  9  1  0  0  0  0
  9 10  1  0  0  0  0
 10 11  1  0  0  0  0
  7 11  1  0  0  0  0
  1 12  1  0  0  0  0
  1 13  1  0  0  0  0
  1 14  1  0  0  0  0
  4 15  1  0  0  0  0
  5 16  1  0  0  0  0
  6 17  1  0  0  0  0
  9 18  1  0  0  0  0
  9 19  1  0  0  0  0
M  END
$$$$
