C21H18O12
APtclcactv06281817033D 0   0.00000     0.00000
 
 51 55  0  0  0  0  0  0  0  0999 V2000
    3.4196    0.4079   -2.6874 C   0  0  0  0  0  0  0  0  0  0  0  0
    4.1981   -0.5247   -1.7573 C   0  0  0  0  0  0  0  0  0  0  0  0
    5.4820    0.1698   -1.2959 C   0  0  0  0  0  0  0  0  0  0  0  0
    5.1158    1.4240   -0.4964 C   0  0  0  0  0  0  0  0  0  0  0  0
    4.2173    1.0234    0.6777 C   0  0  0  0  0  0  0  0  0  0  0  0
    2.9822    0.2960    0.1400 C   0  0  0  0  0  0  0  0  0  0  0  0
    3.3944   -0.8423   -0.6192 O   0  0  0  0  0  0  0  0  0  0  0  0
    2.1666   -0.1303    1.2333 O   0  0  0  0  0  0  0  0  0  0  0  0
    0.9735   -0.7034    0.9260 C   0  0  0  0  0  0  0  0  0  0  0  0
    0.8917   -2.0839    0.7399 C   0  0  0  0  0  0  0  0  0  0  0  0
   -0.3054   -2.7076    0.4188 C   0  0  0  0  0  0  0  0  0  0  0  0
   -1.4507   -1.9371    0.2684 C   0  0  0  0  0  0  0  0  0  0  0  0
   -1.3602   -0.5423    0.4623 C   0  0  0  0  0  0  0  0  0  0  0  0
   -0.1652    0.0869    0.8034 C   0  0  0  0  0  0  0  0  0  0  0  0
   -0.1497    1.4243    1.0271 O   0  0  0  0  0  0  0  0  0  0  0  0
   -1.1046    2.1936    0.4518 C   0  0  0  0  0  0  0  0  0  0  0  0
   -0.8427    3.3195    0.0733 O   0  0  0  0  0  0  0  0  0  0  0  0
   -2.4621    1.6508    0.2899 C   0  0  0  0  0  0  0  0  0  0  0  0
   -3.6045    2.4222    0.1229 C   0  0  0  0  0  0  0  0  0  0  0  0
   -4.8282    1.7906   -0.0469 C   0  0  0  0  0  0  0  0  0  0  0  0
   -4.9424    0.3999   -0.0493 C   0  0  0  0  0  0  0  0  0  0  0  0
   -3.8142   -0.3941    0.1320 C   0  0  0  0  0  0  0  0  0  0  0  0
   -2.5890    0.2442    0.3006 C   0  0  0  0  0  0  0  0  0  0  0  0
   -3.8791   -1.7477    0.1854 O   0  0  0  0  0  0  0  0  0  0  0  0
   -2.7708   -2.4671   -0.1062 C   0  0  0  0  0  0  0  0  0  0  0  0
   -2.8632   -3.5363   -0.6786 O   0  0  0  0  0  0  0  0  0  0  0  0
   -6.1581   -0.1802   -0.2286 O   0  0  0  0  0  0  0  0  0  0  0  0
   -6.5463   -0.4708   -1.5728 C   0  0  0  0  0  0  0  0  0  0  0  0
   -5.9456    2.5468   -0.2150 O   0  0  0  0  0  0  0  0  0  0  0  0
    2.0150   -2.8378    0.8763 O   0  0  0  0  0  0  0  0  0  0  0  0
    4.9375    0.1563    1.5561 O   0  0  0  0  0  0  0  0  0  0  0  0
    6.3063    2.0386    0.0007 O   0  0  0  0  0  0  0  0  0  0  0  0
    6.2357   -0.7199   -0.4698 O   0  0  0  0  0  0  0  0  0  0  0  0
    4.0331    0.6509   -3.5550 H   0  0  0  0  0  0  0  0  0  0  0  0
    2.5055   -0.0867   -3.0159 H   0  0  0  0  0  0  0  0  0  0  0  0
    3.1655    1.3239   -2.1540 H   0  0  0  0  0  0  0  0  0  0  0  0
    4.4519   -1.4409   -2.2905 H   0  0  0  0  0  0  0  0  0  0  0  0
    6.0759    0.4524   -2.1651 H   0  0  0  0  0  0  0  0  0  0  0  0
    4.5838    2.1244   -1.1402 H   0  0  0  0  0  0  0  0  0  0  0  0
    3.9067    1.9165    1.2200 H   0  0  0  0  0  0  0  0  0  0  0  0
    2.4117    0.9711   -0.4978 H   0  0  0  0  0  0  0  0  0  0  0  0
   -0.3458   -3.7788    0.2872 H   0  0  0  0  0  0  0  0  0  0  0  0
   -3.5415    3.5003    0.1254 H   0  0  0  0  0  0  0  0  0  0  0  0
   -6.5745    0.4530   -2.1506 H   0  0  0  0  0  0  0  0  0  0  0  0
   -5.8259   -1.1565   -2.0188 H   0  0  0  0  0  0  0  0  0  0  0  0
   -7.5346   -0.9306   -1.5742 H   0  0  0  0  0  0  0  0  0  0  0  0
   -6.1431    2.7570   -1.1380 H   0  0  0  0  0  0  0  0  0  0  0  0
    2.1648   -3.1614    1.7751 H   0  0  0  0  0  0  0  0  0  0  0  0
    4.4281   -0.1374    2.3237 H   0  0  0  0  0  0  0  0  0  0  0  0
    6.1486    2.8405    0.5177 H   0  0  0  0  0  0  0  0  0  0  0  0
    6.4980   -1.5393   -0.9112 H   0  0  0  0  0  0  0  0  0  0  0  0
  1  2  1  0  0  0  0
  2  3  1  0  0  0  0
  3  4  1  0  0  0  0
  4  5  1  0  0  0  0
  5  6  1  0  0  0  0
  6  7  1  0  0  0  0
  2  7  1  0  0  0  0
  6  8  1  0  0  0  0
  8  9  1  0  0  0  0
  9 10  2  0  0  0  0
 10 11  1  0  0  0  0
 11 12  2  0  0  0  0
 12 13  1  0  0  0  0
 13 14  2  0  0  0  0
  9 14  1  0  0  0  0
 14 15  1  0  0  0  0
 15 16  1  0  0  0  0
 16 17  2  0  0  0  0
 16 18  1  0  0  0  0
 18 19  2  0  0  0  0
 19 20  1  0  0  0  0
 20 21  2  0  0  0  0
 21 22  1  0  0  0  0
 22 23  2  0  0  0  0
 18 23  1  0  0  0  0
 13 23  1  0  0  0  0
 22 24  1  0  0  0  0
 24 25  1  0  0  0  0
 12 25  1  0  0  0  0
 25 26  2  0  0  0  0
 21 27  1  0  0  0  0
 27 28  1  0  0  0  0
 20 29  1  0  0  0  0
 10 30  1  0  0  0  0
  5 31  1  0  0  0  0
  4 32  1  0  0  0  0
  3 33  1  0  0  0  0
  1 34  1  0  0  0  0
  1 35  1  0  0  0  0
  1 36  1  0  0  0  0
  2 37  1  0  0  0  0
  3 38  1  0  0  0  0
  4 39  1  0  0  0  0
  5 40  1  0  0  0  0
  6 41  1  0  0  0  0
 11 42  1  0  0  0  0
 19 43  1  0  0  0  0
 28 44  1  0  0  0  0
 28 45  1  0  0  0  0
 28 46  1  0  0  0  0
 29 47  1  0  0  0  0
 30 48  1  0  0  0  0
 31 49  1  0  0  0  0
 32 50  1  0  0  0  0
 33 51  1  0  0  0  0
M  END
$$$$
