C17H15NO3
APtclcactv06281817033D 0   0.00000     0.00000
 
 36 40  0  0  0  0  0  0  0  0999 V2000
    1.3053   -3.3278   -0.1820 C   0  0  0  0  0  0  0  0  0  0  0  0
   -0.0997   -3.8190   -0.4880 C   0  0  0  0  0  0  0  0  0  0  0  0
   -1.0965   -3.0244    0.2322 N   0  0  0  0  0  0  0  0  0  0  0  0
   -1.1200   -1.6412   -0.2652 C   0  0  0  0  0  0  0  0  0  0  0  0
   -2.1553   -0.8479    0.5290 C   0  0  0  0  0  0  0  0  0  0  0  0
   -2.0766    0.6162    0.1941 C   0  0  0  0  0  0  0  0  0  0  0  0
   -3.2199    1.3865    0.1468 C   0  0  0  0  0  0  0  0  0  0  0  0
   -3.1338    2.7374   -0.1406 C   0  0  0  0  0  0  0  0  0  0  0  0
   -1.9043    3.3236   -0.3803 C   0  0  0  0  0  0  0  0  0  0  0  0
   -0.7542    2.5594   -0.3444 C   0  0  0  0  0  0  0  0  0  0  0  0
   -0.8371    1.2001   -0.0669 C   0  0  0  0  0  0  0  0  0  0  0  0
    0.3776    0.3519   -0.0274 C   0  0  0  0  0  0  0  0  0  0  0  0
    0.2513   -1.0360   -0.1128 C   0  0  0  0  0  0  0  0  0  0  0  0
    1.3761   -1.8312   -0.0694 C   0  0  0  0  0  0  0  0  0  0  0  0
    2.6290   -1.2455    0.0683 C   0  0  0  0  0  0  0  0  0  0  0  0
    2.7661    0.1285    0.1502 C   0  0  0  0  0  0  0  0  0  0  0  0
    1.6361    0.9380    0.1013 C   0  0  0  0  0  0  0  0  0  0  0  0
    2.0267    2.2414    0.1973 O   0  0  0  0  0  0  0  0  0  0  0  0
    3.4349    2.2440   -0.1038 C   0  0  0  0  0  0  0  0  0  0  0  0
    3.8678    0.9250    0.2791 O   0  0  0  0  0  0  0  0  0  0  0  0
   -3.4622   -1.3329    0.2144 O   0  0  0  0  0  0  0  0  0  0  0  0
    1.6365   -3.7687    0.7583 H   0  0  0  0  0  0  0  0  0  0  0  0
    1.9746   -3.6541   -0.9780 H   0  0  0  0  0  0  0  0  0  0  0  0
   -0.2826   -3.7380   -1.5595 H   0  0  0  0  0  0  0  0  0  0  0  0
   -0.1881   -4.8630   -0.1876 H   0  0  0  0  0  0  0  0  0  0  0  0
   -2.0105   -3.4471    0.1686 H   0  0  0  0  0  0  0  0  0  0  0  0
   -1.3952   -1.6407   -1.3199 H   0  0  0  0  0  0  0  0  0  0  0  0
   -1.9703   -0.9826    1.5947 H   0  0  0  0  0  0  0  0  0  0  0  0
   -4.1829    0.9351    0.3346 H   0  0  0  0  0  0  0  0  0  0  0  0
   -4.0314    3.3369   -0.1783 H   0  0  0  0  0  0  0  0  0  0  0  0
   -1.8434    4.3801   -0.5962 H   0  0  0  0  0  0  0  0  0  0  0  0
    0.2062    3.0166   -0.5313 H   0  0  0  0  0  0  0  0  0  0  0  0
    3.5077   -1.8719    0.1123 H   0  0  0  0  0  0  0  0  0  0  0  0
    3.5987    2.4068   -1.1690 H   0  0  0  0  0  0  0  0  0  0  0  0
    3.9510    3.0025    0.4847 H   0  0  0  0  0  0  0  0  0  0  0  0
   -4.1745   -0.8759    0.6822 H   0  0  0  0  0  0  0  0  0  0  0  0
  1  2  1  0  0  0  0
  2  3  1  0  0  0  0
  3  4  1  0  0  0  0
  4  5  1  0  0  0  0
  5  6  1  0  0  0  0
  6  7  2  0  0  0  0
  7  8  1  0  0  0  0
  8  9  2  0  0  0  0
  9 10  1  0  0  0  0
 10 11  2  0  0  0  0
  6 11  1  0  0  0  0
 11 12  1  0  0  0  0
 12 13  2  0  0  0  0
  4 13  1  0  0  0  0
 13 14  1  0  0  0  0
  1 14  1  0  0  0  0
 14 15  2  0  0  0  0
 15 16  1  0  0  0  0
 16 17  2  0  0  0  0
 12 17  1  0  0  0  0
 17 18  1  0  0  0  0
 18 19  1  0  0  0  0
 19 20  1  0  0  0  0
 16 20  1  0  0  0  0
  5 21  1  0  0  0  0
  1 22  1  0  0  0  0
  1 23  1  0  0  0  0
  2 24  1  0  0  0  0
  2 25  1  0  0  0  0
  3 26  1  0  0  0  0
  4 27  1  0  0  0  0
  5 28  1  0  0  0  0
  7 29  1  0  0  0  0
  8 30  1  0  0  0  0
  9 31  1  0  0  0  0
 10 32  1  0  0  0  0
 15 33  1  0  0  0  0
 19 34  1  0  0  0  0
 19 35  1  0  0  0  0
 21 36  1  0  0  0  0
M  END
$$$$
