C25H28O4
APtclcactv06281817043D 0   0.00000     0.00000
 
 57 59  0  0  0  0  0  0  0  0999 V2000
   -0.1089   -5.3850   -0.9771 C   0  0  0  0  0  0  0  0  0  0  0  0
    0.3494   -4.6528    0.2578 C   0  0  0  0  0  0  0  0  0  0  0  0
    0.3977   -3.3437    0.2632 C   0  0  0  0  0  0  0  0  0  0  0  0
   -0.1223   -2.5658   -0.9181 C   0  0  0  0  0  0  0  0  0  0  0  0
   -1.1324   -1.5517   -0.4465 C   0  0  0  0  0  0  0  0  0  0  0  0
   -0.7180   -0.2703   -0.0820 C   0  0  0  0  0  0  0  0  0  0  0  0
   -1.6576    0.6651    0.3536 C   0  0  0  0  0  0  0  0  0  0  0  0
   -2.9964    0.3183    0.4224 C   0  0  0  0  0  0  0  0  0  0  0  0
   -3.4043   -0.9575    0.0594 C   0  0  0  0  0  0  0  0  0  0  0  0
   -2.4743   -1.8886   -0.3796 C   0  0  0  0  0  0  0  0  0  0  0  0
   -2.8790   -3.1367   -0.7339 O   0  0  0  0  0  0  0  0  0  0  0  0
   -3.9122    1.2284    0.8465 O   0  0  0  0  0  0  0  0  0  0  0  0
   -5.2758    0.8035    0.8931 C   0  0  0  0  0  0  0  0  0  0  0  0
   -1.2157    2.0506    0.7490 C   0  0  0  0  0  0  0  0  0  0  0  0
   -1.2508    2.9526   -0.4577 C   0  0  0  0  0  0  0  0  0  0  0  0
   -1.9387    4.0668   -0.4228 C   0  0  0  0  0  0  0  0  0  0  0  0
   -2.6951    4.4467    0.8241 C   0  0  0  0  0  0  0  0  0  0  0  0
   -1.9738    4.9688   -1.6296 C   0  0  0  0  0  0  0  0  0  0  0  0
    0.7122    0.0953   -0.1567 C   0  0  0  0  0  0  0  0  0  0  0  0
    1.4381    0.1686   -1.2972 C   0  0  0  0  0  0  0  0  0  0  0  0
    2.7902    0.5631   -0.8937 C   0  0  0  0  0  0  0  0  0  0  0  0
    2.7455    0.6942    0.5058 C   0  0  0  0  0  0  0  0  0  0  0  0
    1.4873    0.4113    0.9002 O   0  0  0  0  0  0  0  0  0  0  0  0
    3.8959    1.0642    1.1896 C   0  0  0  0  0  0  0  0  0  0  0  0
    5.0665    1.2983    0.4902 C   0  0  0  0  0  0  0  0  0  0  0  0
    5.1025    1.1663   -0.8954 C   0  0  0  0  0  0  0  0  0  0  0  0
    3.9797    0.8031   -1.5839 C   0  0  0  0  0  0  0  0  0  0  0  0
    6.1912    1.6608    1.1616 O   0  0  0  0  0  0  0  0  0  0  0  0
    0.7522   -5.4267    1.4866 C   0  0  0  0  0  0  0  0  0  0  0  0
    0.4952   -5.0736   -1.8293 H   0  0  0  0  0  0  0  0  0  0  0  0
    0.0028   -6.4586   -0.8255 H   0  0  0  0  0  0  0  0  0  0  0  0
   -1.1562   -5.1523   -1.1697 H   0  0  0  0  0  0  0  0  0  0  0  0
    0.8101   -2.8220    1.1141 H   0  0  0  0  0  0  0  0  0  0  0  0
    0.7053   -2.0533   -1.4085 H   0  0  0  0  0  0  0  0  0  0  0  0
   -0.5956   -3.2490   -1.6233 H   0  0  0  0  0  0  0  0  0  0  0  0
   -4.4491   -1.2250    0.1150 H   0  0  0  0  0  0  0  0  0  0  0  0
   -3.1140   -3.2237   -1.6678 H   0  0  0  0  0  0  0  0  0  0  0  0
   -5.5982    0.5068   -0.1050 H   0  0  0  0  0  0  0  0  0  0  0  0
   -5.3692   -0.0442    1.5720 H   0  0  0  0  0  0  0  0  0  0  0  0
   -5.9000    1.6236    1.2478 H   0  0  0  0  0  0  0  0  0  0  0  0
   -1.8864    2.4413    1.5143 H   0  0  0  0  0  0  0  0  0  0  0  0
   -0.2000    2.0095    1.1425 H   0  0  0  0  0  0  0  0  0  0  0  0
   -0.7087    2.6803   -1.3513 H   0  0  0  0  0  0  0  0  0  0  0  0
   -1.9984    4.5411    1.6570 H   0  0  0  0  0  0  0  0  0  0  0  0
   -3.2028    5.3980    0.6654 H   0  0  0  0  0  0  0  0  0  0  0  0
   -3.4310    3.6756    1.0517 H   0  0  0  0  0  0  0  0  0  0  0  0
   -2.8094    4.6866   -2.2700 H   0  0  0  0  0  0  0  0  0  0  0  0
   -2.0964    6.0027   -1.3069 H   0  0  0  0  0  0  0  0  0  0  0  0
   -1.0410    4.8696   -2.1846 H   0  0  0  0  0  0  0  0  0  0  0  0
    1.0907   -0.0247   -2.3014 H   0  0  0  0  0  0  0  0  0  0  0  0
    3.8770    1.1693    2.2643 H   0  0  0  0  0  0  0  0  0  0  0  0
    6.0230    1.3520   -1.4288 H   0  0  0  0  0  0  0  0  0  0  0  0
    4.0123    0.7019   -2.6587 H   0  0  0  0  0  0  0  0  0  0  0  0
    6.7388    0.9151    1.4430 H   0  0  0  0  0  0  0  0  0  0  0  0
    1.8187   -5.6476    1.4435 H   0  0  0  0  0  0  0  0  0  0  0  0
    0.5398   -4.8330    2.3757 H   0  0  0  0  0  0  0  0  0  0  0  0
    0.1894   -6.3592    1.5294 H   0  0  0  0  0  0  0  0  0  0  0  0
  1  2  1  0  0  0  0
  2  3  2  0  0  0  0
  3  4  1  0  0  0  0
  4  5  1  0  0  0  0
  5  6  2  0  0  0  0
  6  7  1  0  0  0  0
  7  8  2  0  0  0  0
  8  9  1  0  0  0  0
  9 10  2  0  0  0  0
  5 10  1  0  0  0  0
 10 11  1  0  0  0  0
  8 12  1  0  0  0  0
 12 13  1  0  0  0  0
  7 14  1  0  0  0  0
 14 15  1  0  0  0  0
 15 16  2  0  0  0  0
 16 17  1  0  0  0  0
 16 18  1  0  0  0  0
  6 19  1  0  0  0  0
 19 20  2  0  0  0  0
 20 21  1  0  0  0  0
 21 22  2  0  0  0  0
 22 23  1  0  0  0  0
 19 23  1  0  0  0  0
 22 24  1  0  0  0  0
 24 25  2  0  0  0  0
 25 26  1  0  0  0  0
 26 27  2  0  0  0  0
 21 27  1  0  0  0  0
 25 28  1  0  0  0  0
  2 29  1  0  0  0  0
  1 30  1  0  0  0  0
  1 31  1  0  0  0  0
  1 32  1  0  0  0  0
  3 33  1  0  0  0  0
  4 34  1  0  0  0  0
  4 35  1  0  0  0  0
  9 36  1  0  0  0  0
 11 37  1  0  0  0  0
 13 38  1  0  0  0  0
 13 39  1  0  0  0  0
 13 40  1  0  0  0  0
 14 41  1  0  0  0  0
 14 42  1  0  0  0  0
 15 43  1  0  0  0  0
 17 44  1  0  0  0  0
 17 45  1  0  0  0  0
 17 46  1  0  0  0  0
 18 47  1  0  0  0  0
 18 48  1  0  0  0  0
 18 49  1  0  0  0  0
 20 50  1  0  0  0  0
 24 51  1  0  0  0  0
 26 52  1  0  0  0  0
 27 53  1  0  0  0  0
 28 54  1  0  0  0  0
 29 55  1  0  0  0  0
 29 56  1  0  0  0  0
 29 57  1  0  0  0  0
M  END
$$$$
