C10H18O
APtclcactv06281817023D 0   0.00000     0.00000
 
 29 29  0  0  0  0  0  0  0  0999 V2000
    3.1198    1.2227   -0.0378 C   0  0  0  0  0  0  0  0  0  0  0  0
    2.2973   -0.0253   -0.3646 C   0  0  0  0  0  0  0  0  0  0  0  0
    3.1009   -1.2754   -0.0008 C   0  0  0  0  0  0  0  0  0  0  0  0
    0.9960   -0.0036    0.4398 C   0  0  0  0  0  0  0  0  0  0  0  0
    0.1945    1.2475    0.0740 C   0  0  0  0  0  0  0  0  0  0  0  0
   -1.2068    1.1219    0.6852 C   0  0  0  0  0  0  0  0  0  0  0  0
   -1.9437   -0.0166   -0.0237 C   0  0  0  0  0  0  0  0  0  0  0  0
   -1.0802   -1.2432   -0.0671 C   0  0  0  0  0  0  0  0  0  0  0  0
    0.1991   -1.2369    0.1301 C   0  0  0  0  0  0  0  0  0  0  0  0
   -3.2358   -0.3326    0.7322 C   0  0  0  0  0  0  0  0  0  0  0  0
   -2.2642    0.3845   -1.3572 O   0  0  0  0  0  0  0  0  0  0  0  0
    4.0469    1.2072   -0.6109 H   0  0  0  0  0  0  0  0  0  0  0  0
    2.5473    2.1133   -0.2970 H   0  0  0  0  0  0  0  0  0  0  0  0
    3.3512    1.2368    1.0273 H   0  0  0  0  0  0  0  0  0  0  0  0
    2.0659   -0.0394   -1.4296 H   0  0  0  0  0  0  0  0  0  0  0  0
    2.5150   -2.1645   -0.2336 H   0  0  0  0  0  0  0  0  0  0  0  0
    4.0280   -1.2909   -0.5738 H   0  0  0  0  0  0  0  0  0  0  0  0
    3.3324   -1.2614    1.0643 H   0  0  0  0  0  0  0  0  0  0  0  0
    1.2296    0.0154    1.5043 H   0  0  0  0  0  0  0  0  0  0  0  0
    0.6911    2.1311    0.4749 H   0  0  0  0  0  0  0  0  0  0  0  0
    0.1154    1.3281   -1.0102 H   0  0  0  0  0  0  0  0  0  0  0  0
   -1.1240    0.8984    1.7488 H   0  0  0  0  0  0  0  0  0  0  0  0
   -1.7527    2.0549    0.5451 H   0  0  0  0  0  0  0  0  0  0  0  0
   -1.5557   -2.1902   -0.2756 H   0  0  0  0  0  0  0  0  0  0  0  0
    0.7258   -2.1777    0.0676 H   0  0  0  0  0  0  0  0  0  0  0  0
   -3.8699    0.5537    0.7543 H   0  0  0  0  0  0  0  0  0  0  0  0
   -3.7623   -1.1435    0.2288 H   0  0  0  0  0  0  0  0  0  0  0  0
   -2.9959   -0.6332    1.7521 H   0  0  0  0  0  0  0  0  0  0  0  0
   -2.7337   -0.2889   -1.8684 H   0  0  0  0  0  0  0  0  0  0  0  0
  1  2  1  0  0  0  0
  2  3  1  0  0  0  0
  2  4  1  0  0  0  0
  4  5  1  0  0  0  0
  5  6  1  0  0  0  0
  6  7  1  0  0  0  0
  7  8  1  0  0  0  0
  8  9  2  0  0  0  0
  4  9  1  0  0  0  0
  7 10  1  0  0  0  0
  7 11  1  0  0  0  0
  1 12  1  0  0  0  0
  1 13  1  0  0  0  0
  1 14  1  0  0  0  0
  2 15  1  0  0  0  0
  3 16  1  0  0  0  0
  3 17  1  0  0  0  0
  3 18  1  0  0  0  0
  4 19  1  0  0  0  0
  5 20  1  0  0  0  0
  5 21  1  0  0  0  0
  6 22  1  0  0  0  0
  6 23  1  0  0  0  0
  8 24  1  0  0  0  0
  9 25  1  0  0  0  0
 10 26  1  0  0  0  0
 10 27  1  0  0  0  0
 10 28  1  0  0  0  0
 11 29  1  0  0  0  0
M  END
$$$$
