C25H28O7
APtclcactv06281817023D 0   0.00000     0.00000
 
 60 62  0  0  0  0  0  0  0  0999 V2000
    5.0897   -3.3826   -0.4345 C   0  0  0  0  0  0  0  0  0  0  0  0
    5.1750   -2.5108    0.7918 C   0  0  0  0  0  0  0  0  0  0  0  0
    5.0688   -1.2100    0.6794 C   0  0  0  0  0  0  0  0  0  0  0  0
    4.7335   -0.5938   -0.6544 C   0  0  0  0  0  0  0  0  0  0  0  0
    3.5244    0.2937   -0.5081 C   0  0  0  0  0  0  0  0  0  0  0  0
    3.6828    1.6373   -0.1890 C   0  0  0  0  0  0  0  0  0  0  0  0
    2.5813    2.4686   -0.0546 C   0  0  0  0  0  0  0  0  0  0  0  0
    1.3006    1.9663   -0.2363 C   0  0  0  0  0  0  0  0  0  0  0  0
    1.1405    0.6049   -0.5495 C   0  0  0  0  0  0  0  0  0  0  0  0
    2.2569   -0.2273   -0.6969 C   0  0  0  0  0  0  0  0  0  0  0  0
    2.0962   -1.5373   -1.0115 O   0  0  0  0  0  0  0  0  0  0  0  0
   -0.2268    0.0790   -0.7171 C   0  0  0  0  0  0  0  0  0  0  0  0
   -0.4422   -1.0189   -1.1994 O   0  0  0  0  0  0  0  0  0  0  0  0
   -1.3176    0.9622   -0.2650 C   0  0  0  0  0  0  0  0  0  0  0  0
   -2.6313    0.4762   -0.1254 C   0  0  0  0  0  0  0  0  0  0  0  0
   -3.6356    1.3393    0.3124 C   0  0  0  0  0  0  0  0  0  0  0  0
   -3.3284    2.6673    0.6039 C   0  0  0  0  0  0  0  0  0  0  0  0
   -2.0358    3.1430    0.4620 C   0  0  0  0  0  0  0  0  0  0  0  0
   -1.0187    2.3019    0.0259 C   0  0  0  0  0  0  0  0  0  0  0  0
    0.2339    2.7826   -0.1189 O   0  0  0  0  0  0  0  0  0  0  0  0
   -4.3085    3.5046    1.0316 O   0  0  0  0  0  0  0  0  0  0  0  0
   -4.9100    0.8869    0.4540 O   0  0  0  0  0  0  0  0  0  0  0  0
   -5.7380    0.9050   -0.7105 C   0  0  0  0  0  0  0  0  0  0  0  0
   -2.9425   -0.9308   -0.4392 C   0  0  0  0  0  0  0  0  0  0  0  0
   -3.4934   -1.7107    0.4835 C   0  0  0  0  0  0  0  0  0  0  0  0
   -3.7067   -3.1758    0.2022 C   0  0  0  0  0  0  0  0  0  0  0  0
   -2.9328   -4.0094    1.2255 C   0  0  0  0  0  0  0  0  0  0  0  0
   -5.1981   -3.5023    0.3015 C   0  0  0  0  0  0  0  0  0  0  0  0
   -3.2387   -3.4814   -1.1129 O   0  0  0  0  0  0  0  0  0  0  0  0
    4.9298    2.1411   -0.0066 O   0  0  0  0  0  0  0  0  0  0  0  0
    5.0275    3.5290    0.3194 C   0  0  0  0  0  0  0  0  0  0  0  0
    5.3824   -3.1355    2.1475 C   0  0  0  0  0  0  0  0  0  0  0  0
    5.8272   -3.0531   -1.1664 H   0  0  0  0  0  0  0  0  0  0  0  0
    5.2891   -4.4181   -0.1587 H   0  0  0  0  0  0  0  0  0  0  0  0
    4.0913   -3.3070   -0.8653 H   0  0  0  0  0  0  0  0  0  0  0  0
    5.2214   -0.5791    1.5426 H   0  0  0  0  0  0  0  0  0  0  0  0
    5.5791   -0.0012   -1.0037 H   0  0  0  0  0  0  0  0  0  0  0  0
    4.5201   -1.3827   -1.3757 H   0  0  0  0  0  0  0  0  0  0  0  0
    2.7205    3.5106    0.1928 H   0  0  0  0  0  0  0  0  0  0  0  0
    2.0867   -1.7152   -1.9619 H   0  0  0  0  0  0  0  0  0  0  0  0
   -1.8162    4.1752    0.6918 H   0  0  0  0  0  0  0  0  0  0  0  0
   -4.4184    3.5232    1.9921 H   0  0  0  0  0  0  0  0  0  0  0  0
   -5.7577    1.9122   -1.1268 H   0  0  0  0  0  0  0  0  0  0  0  0
   -5.3376    0.2134   -1.4518 H   0  0  0  0  0  0  0  0  0  0  0  0
   -6.7502    0.6033   -0.4414 H   0  0  0  0  0  0  0  0  0  0  0  0
   -2.7223   -1.3269   -1.4196 H   0  0  0  0  0  0  0  0  0  0  0  0
   -3.7887   -1.2950    1.4356 H   0  0  0  0  0  0  0  0  0  0  0  0
   -3.2898   -3.7763    2.2286 H   0  0  0  0  0  0  0  0  0  0  0  0
   -3.0871   -5.0691    1.0220 H   0  0  0  0  0  0  0  0  0  0  0  0
   -1.8703   -3.7768    1.1547 H   0  0  0  0  0  0  0  0  0  0  0  0
   -5.7494   -2.9084   -0.4275 H   0  0  0  0  0  0  0  0  0  0  0  0
   -5.3524   -4.5620    0.0981 H   0  0  0  0  0  0  0  0  0  0  0  0
   -5.5551   -3.2692    1.3047 H   0  0  0  0  0  0  0  0  0  0  0  0
   -2.2988   -3.2987   -1.2483 H   0  0  0  0  0  0  0  0  0  0  0  0
    4.4947    3.7218    1.2506 H   0  0  0  0  0  0  0  0  0  0  0  0
    6.0763    3.8014    0.4379 H   0  0  0  0  0  0  0  0  0  0  0  0
    4.5862    4.1223   -0.4814 H   0  0  0  0  0  0  0  0  0  0  0  0
    5.4470   -4.2185    2.0424 H   0  0  0  0  0  0  0  0  0  0  0  0
    6.3066   -2.7571    2.5843 H   0  0  0  0  0  0  0  0  0  0  0  0
    4.5437   -2.8827    2.7962 H   0  0  0  0  0  0  0  0  0  0  0  0
  1  2  1  0  0  0  0
  2  3  2  0  0  0  0
  3  4  1  0  0  0  0
  4  5  1  0  0  0  0
  5  6  2  0  0  0  0
  6  7  1  0  0  0  0
  7  8  2  0  0  0  0
  8  9  1  0  0  0  0
  9 10  2  0  0  0  0
  5 10  1  0  0  0  0
 10 11  1  0  0  0  0
  9 12  1  0  0  0  0
 12 13  2  0  0  0  0
 12 14  1  0  0  0  0
 14 15  2  0  0  0  0
 15 16  1  0  0  0  0
 16 17  2  0  0  0  0
 17 18  1  0  0  0  0
 18 19  2  0  0  0  0
 14 19  1  0  0  0  0
 19 20  1  0  0  0  0
  8 20  1  0  0  0  0
 17 21  1  0  0  0  0
 16 22  1  0  0  0  0
 22 23  1  0  0  0  0
 15 24  1  0  0  0  0
 24 25  2  0  0  0  0
 25 26  1  0  0  0  0
 26 27  1  0  0  0  0
 26 28  1  0  0  0  0
 26 29  1  0  0  0  0
  6 30  1  0  0  0  0
 30 31  1  0  0  0  0
  2 32  1  0  0  0  0
  1 33  1  0  0  0  0
  1 34  1  0  0  0  0
  1 35  1  0  0  0  0
  3 36  1  0  0  0  0
  4 37  1  0  0  0  0
  4 38  1  0  0  0  0
  7 39  1  0  0  0  0
 11 40  1  0  0  0  0
 18 41  1  0  0  0  0
 21 42  1  0  0  0  0
 23 43  1  0  0  0  0
 23 44  1  0  0  0  0
 23 45  1  0  0  0  0
 24 46  1  0  0  0  0
 25 47  1  0  0  0  0
 27 48  1  0  0  0  0
 27 49  1  0  0  0  0
 27 50  1  0  0  0  0
 28 51  1  0  0  0  0
 28 52  1  0  0  0  0
 28 53  1  0  0  0  0
 29 54  1  0  0  0  0
 31 55  1  0  0  0  0
 31 56  1  0  0  0  0
 31 57  1  0  0  0  0
 32 58  1  0  0  0  0
 32 59  1  0  0  0  0
 32 60  1  0  0  0  0
M  END
$$$$
