C17H16O5
APtclcactv06281817033D 0   0.00000     0.00000
 
 38 41  0  0  0  0  0  0  0  0999 V2000
    5.9685    0.7779    0.2219 C   0  0  0  0  0  0  0  0  0  0  0  0
    4.9720   -0.2108   -0.0458 O   0  0  0  0  0  0  0  0  0  0  0  0
    3.6731    0.1827    0.0399 C   0  0  0  0  0  0  0  0  0  0  0  0
    2.6633   -0.7458   -0.2124 C   0  0  0  0  0  0  0  0  0  0  0  0
    1.3464   -0.3029   -0.1135 C   0  0  0  0  0  0  0  0  0  0  0  0
    1.0700    1.0343    0.2417 C   0  0  0  0  0  0  0  0  0  0  0  0
    2.0762    1.9444    0.4832 C   0  0  0  0  0  0  0  0  0  0  0  0
    3.3863    1.4930    0.3809 C   0  0  0  0  0  0  0  0  0  0  0  0
   -0.4093    1.1300    0.2862 C   0  0  0  0  0  0  0  0  0  0  0  0
   -1.0975    2.3689   -0.2303 C   0  0  0  0  0  0  0  0  0  0  0  0
   -2.4838    2.0834   -0.4502 O   0  0  0  0  0  0  0  0  0  0  0  0
   -3.0113    0.8528   -0.2476 C   0  0  0  0  0  0  0  0  0  0  0  0
   -2.2195   -0.2986   -0.3721 C   0  0  0  0  0  0  0  0  0  0  0  0
   -0.7869   -0.0333   -0.6963 C   0  0  0  0  0  0  0  0  0  0  0  0
    0.1939   -0.9981   -0.3395 O   0  0  0  0  0  0  0  0  0  0  0  0
   -2.7513   -1.5480   -0.1933 C   0  0  0  0  0  0  0  0  0  0  0  0
   -4.0904   -1.6877    0.1304 C   0  0  0  0  0  0  0  0  0  0  0  0
   -4.8852   -0.5586    0.2715 C   0  0  0  0  0  0  0  0  0  0  0  0
   -4.3495    0.7050    0.0832 C   0  0  0  0  0  0  0  0  0  0  0  0
   -6.1979   -0.6935    0.5962 O   0  0  0  0  0  0  0  0  0  0  0  0
    2.9533   -2.0338   -0.5427 O   0  0  0  0  0  0  0  0  0  0  0  0
    3.0772   -2.9670    0.5323 C   0  0  0  0  0  0  0  0  0  0  0  0
    5.8430    1.1546    1.2370 H   0  0  0  0  0  0  0  0  0  0  0  0
    6.9583    0.3332    0.1191 H   0  0  0  0  0  0  0  0  0  0  0  0
    5.8641    1.5999   -0.4862 H   0  0  0  0  0  0  0  0  0  0  0  0
    1.8550    2.9684    0.7456 H   0  0  0  0  0  0  0  0  0  0  0  0
    4.1982    2.1813    0.5636 H   0  0  0  0  0  0  0  0  0  0  0  0
   -0.7646    0.9016    1.2910 H   0  0  0  0  0  0  0  0  0  0  0  0
   -1.0028    3.1701    0.5026 H   0  0  0  0  0  0  0  0  0  0  0  0
   -0.6362    2.6769   -1.1686 H   0  0  0  0  0  0  0  0  0  0  0  0
   -0.6763    0.2782   -1.7349 H   0  0  0  0  0  0  0  0  0  0  0  0
   -2.1275   -2.4225   -0.3049 H   0  0  0  0  0  0  0  0  0  0  0  0
   -4.5145   -2.6708    0.2720 H   0  0  0  0  0  0  0  0  0  0  0  0
   -4.9761    1.5776    0.1945 H   0  0  0  0  0  0  0  0  0  0  0  0
   -6.3698   -0.6933    1.5478 H   0  0  0  0  0  0  0  0  0  0  0  0
    3.3091   -3.9539    0.1318 H   0  0  0  0  0  0  0  0  0  0  0  0
    3.8780   -2.6484    1.1996 H   0  0  0  0  0  0  0  0  0  0  0  0
    2.1390   -3.0107    1.0855 H   0  0  0  0  0  0  0  0  0  0  0  0
  1  2  1  0  0  0  0
  2  3  1  0  0  0  0
  3  4  2  0  0  0  0
  4  5  1  0  0  0  0
  5  6  2  0  0  0  0
  6  7  1  0  0  0  0
  7  8  2  0  0  0  0
  3  8  1  0  0  0  0
  6  9  1  0  0  0  0
  9 10  1  0  0  0  0
 10 11  1  0  0  0  0
 11 12  1  0  0  0  0
 12 13  2  0  0  0  0
 13 14  1  0  0  0  0
  9 14  1  0  0  0  0
 14 15  1  0  0  0  0
  5 15  1  0  0  0  0
 13 16  1  0  0  0  0
 16 17  2  0  0  0  0
 17 18  1  0  0  0  0
 18 19  2  0  0  0  0
 12 19  1  0  0  0  0
 18 20  1  0  0  0  0
  4 21  1  0  0  0  0
 21 22  1  0  0  0  0
  1 23  1  0  0  0  0
  1 24  1  0  0  0  0
  1 25  1  0  0  0  0
  7 26  1  0  0  0  0
  8 27  1  0  0  0  0
  9 28  1  0  0  0  0
 10 29  1  0  0  0  0
 10 30  1  0  0  0  0
 14 31  1  0  0  0  0
 16 32  1  0  0  0  0
 17 33  1  0  0  0  0
 19 34  1  0  0  0  0
 20 35  1  0  0  0  0
 22 36  1  0  0  0  0
 22 37  1  0  0  0  0
 22 38  1  0  0  0  0
M  END
$$$$
