C33H40O22
APtclcactv06281817033D 0   0.00000     0.00000
 
 95100  0  0  0  0  0  0  0  0999 V2000
    3.5167   -2.2923    1.9925 C   0  0  0  0  0  0  0  0  0  0  0  0
    3.0369   -2.7982    3.1814 C   0  0  0  0  0  0  0  0  0  0  0  0
    2.3703   -1.9697    4.0733 C   0  0  0  0  0  0  0  0  0  0  0  0
    2.1824   -0.6222    3.7709 C   0  0  0  0  0  0  0  0  0  0  0  0
    2.6606   -0.1078    2.5810 C   0  0  0  0  0  0  0  0  0  0  0  0
    3.3324   -0.9419    1.6828 C   0  0  0  0  0  0  0  0  0  0  0  0
    3.8453   -0.3984    0.4116 C   0  0  0  0  0  0  0  0  0  0  0  0
    3.5959   -1.0801   -0.7415 C   0  0  0  0  0  0  0  0  0  0  0  0
    4.0827   -0.5703   -1.9730 C   0  0  0  0  0  0  0  0  0  0  0  0
    3.8785   -1.1533   -3.0258 O   0  0  0  0  0  0  0  0  0  0  0  0
    4.8428    0.6891   -1.9315 C   0  0  0  0  0  0  0  0  0  0  0  0
    5.3599    1.2649   -3.0992 C   0  0  0  0  0  0  0  0  0  0  0  0
    6.0683    2.4494   -3.0184 C   0  0  0  0  0  0  0  0  0  0  0  0
    6.2651    3.0632   -1.7862 C   0  0  0  0  0  0  0  0  0  0  0  0
    5.7568    2.4991   -0.6264 C   0  0  0  0  0  0  0  0  0  0  0  0
    5.0433    1.3120   -0.6869 C   0  0  0  0  0  0  0  0  0  0  0  0
    4.5368    0.7539    0.4326 O   0  0  0  0  0  0  0  0  0  0  0  0
    6.9623    4.2261   -1.7184 O   0  0  0  0  0  0  0  0  0  0  0  0
    5.1672    0.6641   -4.3008 O   0  0  0  0  0  0  0  0  0  0  0  0
    2.8861   -2.2409   -0.7122 O   0  0  0  0  0  0  0  0  0  0  0  0
    1.6542   -2.2664   -1.4360 C   0  0  0  0  0  0  0  0  0  0  0  0
    1.1725   -3.7131   -1.5731 C   0  0  0  0  0  0  0  0  0  0  0  0
    0.9045   -4.2881   -0.1789 C   0  0  0  0  0  0  0  0  0  0  0  0
   -0.1169   -3.4009    0.5395 C   0  0  0  0  0  0  0  0  0  0  0  0
    0.4146   -1.9663    0.5950 C   0  0  0  0  0  0  0  0  0  0  0  0
    0.6720   -1.5034   -0.7322 O   0  0  0  0  0  0  0  0  0  0  0  0
   -0.6263   -1.0618    1.2579 C   0  0  0  0  0  0  0  0  0  0  0  0
   -0.0852    0.2514    1.4152 O   0  0  0  0  0  0  0  0  0  0  0  0
   -0.9818    1.1799    2.0283 C   0  0  0  0  0  0  0  0  0  0  0  0
   -0.2601    2.5101    2.2592 C   0  0  0  0  0  0  0  0  0  0  0  0
    0.1617    3.0946    0.9075 C   0  0  0  0  0  0  0  0  0  0  0  0
   -1.0785    3.2520    0.0224 C   0  0  0  0  0  0  0  0  0  0  0  0
   -1.7686    1.8931   -0.1221 C   0  0  0  0  0  0  0  0  0  0  0  0
   -2.1067    1.3920    1.1728 O   0  0  0  0  0  0  0  0  0  0  0  0
   -3.0417    2.0534   -0.9555 C   0  0  0  0  0  0  0  0  0  0  0  0
   -3.6232    0.7691   -1.1886 O   0  0  0  0  0  0  0  0  0  0  0  0
   -4.8240    0.8066   -1.9624 C   0  0  0  0  0  0  0  0  0  0  0  0
   -5.2881   -0.6228   -2.2544 C   0  0  0  0  0  0  0  0  0  0  0  0
   -5.6087   -1.3273   -0.9325 C   0  0  0  0  0  0  0  0  0  0  0  0
   -6.6658   -0.5157   -0.1774 C   0  0  0  0  0  0  0  0  0  0  0  0
   -6.1486    0.9095    0.0344 C   0  0  0  0  0  0  0  0  0  0  0  0
   -5.8404    1.4961   -1.2318 O   0  0  0  0  0  0  0  0  0  0  0  0
   -7.2230    1.7434    0.7350 C   0  0  0  0  0  0  0  0  0  0  0  0
   -6.6994    3.0383    1.0371 O   0  0  0  0  0  0  0  0  0  0  0  0
   -7.8733   -0.4771   -0.9407 O   0  0  0  0  0  0  0  0  0  0  0  0
   -6.1125   -2.6377   -1.1991 O   0  0  0  0  0  0  0  0  0  0  0  0
   -6.4591   -0.5870   -3.0726 O   0  0  0  0  0  0  0  0  0  0  0  0
   -1.9796    4.1836    0.6242 O   0  0  0  0  0  0  0  0  0  0  0  0
    0.7711    4.3715    1.1081 O   0  0  0  0  0  0  0  0  0  0  0  0
   -1.1395    3.4221    2.9202 O   0  0  0  0  0  0  0  0  0  0  0  0
   -1.3550   -3.4242   -0.1737 O   0  0  0  0  0  0  0  0  0  0  0  0
    0.3846   -5.6136   -0.3003 O   0  0  0  0  0  0  0  0  0  0  0  0
   -0.0314   -3.7447   -2.3423 O   0  0  0  0  0  0  0  0  0  0  0  0
    1.5279    0.1863    4.6470 O   0  0  0  0  0  0  0  0  0  0  0  0
    1.8993   -2.4736    5.2440 O   0  0  0  0  0  0  0  0  0  0  0  0
    4.0390   -2.9383    1.3023 H   0  0  0  0  0  0  0  0  0  0  0  0
    3.1796   -3.8419    3.4194 H   0  0  0  0  0  0  0  0  0  0  0  0
    2.5153    0.9361    2.3454 H   0  0  0  0  0  0  0  0  0  0  0  0
    6.4702    2.8989   -3.9144 H   0  0  0  0  0  0  0  0  0  0  0  0
    5.9167    2.9847    0.3249 H   0  0  0  0  0  0  0  0  0  0  0  0
    6.4150    5.0185   -1.8059 H   0  0  0  0  0  0  0  0  0  0  0  0
    4.3619    0.9453   -4.7565 H   0  0  0  0  0  0  0  0  0  0  0  0
    1.8058   -1.8383   -2.4269 H   0  0  0  0  0  0  0  0  0  0  0  0
    1.9394   -4.3067   -2.0707 H   0  0  0  0  0  0  0  0  0  0  0  0
    1.8332   -4.3101    0.3912 H   0  0  0  0  0  0  0  0  0  0  0  0
   -0.2721   -3.7713    1.5528 H   0  0  0  0  0  0  0  0  0  0  0  0
    1.3380   -1.9429    1.1737 H   0  0  0  0  0  0  0  0  0  0  0  0
   -1.5178   -1.0150    0.6326 H   0  0  0  0  0  0  0  0  0  0  0  0
   -0.8890   -1.4660    2.2355 H   0  0  0  0  0  0  0  0  0  0  0  0
   -1.3218    0.7802    2.9837 H   0  0  0  0  0  0  0  0  0  0  0  0
    0.6233    2.3431    2.8754 H   0  0  0  0  0  0  0  0  0  0  0  0
    0.8711    2.4223    0.4250 H   0  0  0  0  0  0  0  0  0  0  0  0
   -0.7804    3.6155   -0.9610 H   0  0  0  0  0  0  0  0  0  0  0  0
   -1.0950    1.1942   -0.6179 H   0  0  0  0  0  0  0  0  0  0  0  0
   -3.7516    2.6815   -0.4173 H   0  0  0  0  0  0  0  0  0  0  0  0
   -2.7950    2.5191   -1.9096 H   0  0  0  0  0  0  0  0  0  0  0  0
   -4.6352    1.3264   -2.9016 H   0  0  0  0  0  0  0  0  0  0  0  0
   -4.4966   -1.1639   -2.7729 H   0  0  0  0  0  0  0  0  0  0  0  0
   -4.7040   -1.3989   -0.3287 H   0  0  0  0  0  0  0  0  0  0  0  0
   -6.8597   -0.9803    0.7894 H   0  0  0  0  0  0  0  0  0  0  0  0
   -5.2499    0.8823    0.6507 H   0  0  0  0  0  0  0  0  0  0  0  0
   -8.0885    1.8451    0.0802 H   0  0  0  0  0  0  0  0  0  0  0  0
   -7.5225    1.2481    1.6587 H   0  0  0  0  0  0  0  0  0  0  0  0
   -7.3278    3.6224    1.4833 H   0  0  0  0  0  0  0  0  0  0  0  0
   -8.2550   -1.3478   -1.1172 H   0  0  0  0  0  0  0  0  0  0  0  0
   -5.4962   -3.2053   -1.6821 H   0  0  0  0  0  0  0  0  0  0  0  0
   -6.3298   -0.1496   -3.9254 H   0  0  0  0  0  0  0  0  0  0  0  0
   -1.6060    5.0665    0.7508 H   0  0  0  0  0  0  0  0  0  0  0  0
    1.5602    4.3473    1.6665 H   0  0  0  0  0  0  0  0  0  0  0  0
   -1.4507    3.1135    3.7822 H   0  0  0  0  0  0  0  0  0  0  0  0
   -1.7474   -4.3046   -0.2518 H   0  0  0  0  0  0  0  0  0  0  0  0
    0.9778   -6.2288   -0.7527 H   0  0  0  0  0  0  0  0  0  0  0  0
    0.0820   -3.4682   -3.2619 H   0  0  0  0  0  0  0  0  0  0  0  0
    2.1055    0.6153    5.2932 H   0  0  0  0  0  0  0  0  0  0  0  0
    2.5300   -2.4247    5.9753 H   0  0  0  0  0  0  0  0  0  0  0  0
  1  2  2  0  0  0  0
  2  3  1  0  0  0  0
  3  4  2  0  0  0  0
  4  5  1  0  0  0  0
  5  6  2  0  0  0  0
  1  6  1  0  0  0  0
  6  7  1  0  0  0  0
  7  8  2  0  0  0  0
  8  9  1  0  0  0  0
  9 10  2  0  0  0  0
  9 11  1  0  0  0  0
 11 12  2  0  0  0  0
 12 13  1  0  0  0  0
 13 14  2  0  0  0  0
 14 15  1  0  0  0  0
 15 16  2  0  0  0  0
 11 16  1  0  0  0  0
 16 17  1  0  0  0  0
  7 17  1  0  0  0  0
 14 18  1  0  0  0  0
 12 19  1  0  0  0  0
  8 20  1  0  0  0  0
 20 21  1  0  0  0  0
 21 22  1  0  0  0  0
 22 23  1  0  0  0  0
 23 24  1  0  0  0  0
 24 25  1  0  0  0  0
 25 26  1  0  0  0  0
 21 26  1  0  0  0  0
 25 27  1  0  0  0  0
 27 28  1  0  0  0  0
 28 29  1  0  0  0  0
 29 30  1  0  0  0  0
 30 31  1  0  0  0  0
 31 32  1  0  0  0  0
 32 33  1  0  0  0  0
 33 34  1  0  0  0  0
 29 34  1  0  0  0  0
 33 35  1  0  0  0  0
 35 36  1  0  0  0  0
 36 37  1  0  0  0  0
 37 38  1  0  0  0  0
 38 39  1  0  0  0  0
 39 40  1  0  0  0  0
 40 41  1  0  0  0  0
 41 42  1  0  0  0  0
 37 42  1  0  0  0  0
 41 43  1  0  0  0  0
 43 44  1  0  0  0  0
 40 45  1  0  0  0  0
 39 46  1  0  0  0  0
 38 47  1  0  0  0  0
 32 48  1  0  0  0  0
 31 49  1  0  0  0  0
 30 50  1  0  0  0  0
 24 51  1  0  0  0  0
 23 52  1  0  0  0  0
 22 53  1  0  0  0  0
  4 54  1  0  0  0  0
  3 55  1  0  0  0  0
  1 56  1  0  0  0  0
  2 57  1  0  0  0  0
  5 58  1  0  0  0  0
 13 59  1  0  0  0  0
 15 60  1  0  0  0  0
 18 61  1  0  0  0  0
 19 62  1  0  0  0  0
 21 63  1  0  0  0  0
 22 64  1  0  0  0  0
 23 65  1  0  0  0  0
 24 66  1  0  0  0  0
 25 67  1  0  0  0  0
 27 68  1  0  0  0  0
 27 69  1  0  0  0  0
 29 70  1  0  0  0  0
 30 71  1  0  0  0  0
 31 72  1  0  0  0  0
 32 73  1  0  0  0  0
 33 74  1  0  0  0  0
 35 75  1  0  0  0  0
 35 76  1  0  0  0  0
 37 77  1  0  0  0  0
 38 78  1  0  0  0  0
 39 79  1  0  0  0  0
 40 80  1  0  0  0  0
 41 81  1  0  0  0  0
 43 82  1  0  0  0  0
 43 83  1  0  0  0  0
 44 84  1  0  0  0  0
 45 85  1  0  0  0  0
 46 86  1  0  0  0  0
 47 87  1  0  0  0  0
 48 88  1  0  0  0  0
 49 89  1  0  0  0  0
 50 90  1  0  0  0  0
 51 91  1  0  0  0  0
 52 92  1  0  0  0  0
 53 93  1  0  0  0  0
 54 94  1  0  0  0  0
 55 95  1  0  0  0  0
M  END
$$$$
