C22H22O6
APtclcactv06281817023D 0   0.00000     0.00000
 
 50 52  0  0  0  0  0  0  0  0999 V2000
    3.3285   -3.7263   -0.8655 C   0  0  0  0  0  0  0  0  0  0  0  0
    3.7424   -3.0463    0.4141 C   0  0  0  0  0  0  0  0  0  0  0  0
    3.9498   -1.7530    0.4311 C   0  0  0  0  0  0  0  0  0  0  0  0
    3.6537   -0.9262   -0.7935 C   0  0  0  0  0  0  0  0  0  0  0  0
    2.7319    0.2072   -0.4236 C   0  0  0  0  0  0  0  0  0  0  0  0
    3.2594    1.4233   -0.0143 C   0  0  0  0  0  0  0  0  0  0  0  0
    2.4165    2.4712    0.3278 C   0  0  0  0  0  0  0  0  0  0  0  0
    1.0432    2.3079    0.2621 C   0  0  0  0  0  0  0  0  0  0  0  0
    0.5063    1.0849   -0.1497 C   0  0  0  0  0  0  0  0  0  0  0  0
    1.3598    0.0348   -0.4984 C   0  0  0  0  0  0  0  0  0  0  0  0
    0.8444   -1.1566   -0.9000 O   0  0  0  0  0  0  0  0  0  0  0  0
    0.6032   -1.3206   -2.2989 C   0  0  0  0  0  0  0  0  0  0  0  0
   -0.9640    0.9042   -0.2221 C   0  0  0  0  0  0  0  0  0  0  0  0
   -1.6475    1.1871   -1.3612 C   0  0  0  0  0  0  0  0  0  0  0  0
   -2.9707    1.0579   -1.4679 O   0  0  0  0  0  0  0  0  0  0  0  0
   -3.6796    0.3489   -0.5698 C   0  0  0  0  0  0  0  0  0  0  0  0
   -3.1160   -0.0029    0.6696 C   0  0  0  0  0  0  0  0  0  0  0  0
   -1.7257    0.4060    0.9395 C   0  0  0  0  0  0  0  0  0  0  0  0
   -1.2375    0.3453    2.0549 O   0  0  0  0  0  0  0  0  0  0  0  0
   -3.8550   -0.7265    1.6053 C   0  0  0  0  0  0  0  0  0  0  0  0
   -5.1348   -1.1029    1.3122 C   0  0  0  0  0  0  0  0  0  0  0  0
   -5.7017   -0.7668    0.0843 C   0  0  0  0  0  0  0  0  0  0  0  0
   -4.9820   -0.0454   -0.8521 C   0  0  0  0  0  0  0  0  0  0  0  0
   -6.9731   -1.1511   -0.1962 O   0  0  0  0  0  0  0  0  0  0  0  0
    0.2189    3.3347    0.5977 O   0  0  0  0  0  0  0  0  0  0  0  0
    4.6067    1.5887    0.0525 O   0  0  0  0  0  0  0  0  0  0  0  0
    5.0830    2.8658    0.4817 C   0  0  0  0  0  0  0  0  0  0  0  0
    3.9178   -3.8542    1.6741 C   0  0  0  0  0  0  0  0  0  0  0  0
    4.0510   -3.4973   -1.6488 H   0  0  0  0  0  0  0  0  0  0  0  0
    3.2920   -4.8044   -0.7087 H   0  0  0  0  0  0  0  0  0  0  0  0
    2.3430   -3.3691   -1.1645 H   0  0  0  0  0  0  0  0  0  0  0  0
    4.3329   -1.2792    1.3228 H   0  0  0  0  0  0  0  0  0  0  0  0
    4.5840   -0.5224   -1.1929 H   0  0  0  0  0  0  0  0  0  0  0  0
    3.1758   -1.5518   -1.5475 H   0  0  0  0  0  0  0  0  0  0  0  0
    2.8324    3.4156    0.6462 H   0  0  0  0  0  0  0  0  0  0  0  0
   -0.1071   -0.5657   -2.6361 H   0  0  0  0  0  0  0  0  0  0  0  0
    1.5399   -1.2077   -2.8448 H   0  0  0  0  0  0  0  0  0  0  0  0
    0.1928   -2.3135   -2.4829 H   0  0  0  0  0  0  0  0  0  0  0  0
   -1.0934    1.5334   -2.2211 H   0  0  0  0  0  0  0  0  0  0  0  0
   -3.4173   -0.9878    2.5574 H   0  0  0  0  0  0  0  0  0  0  0  0
   -5.7095   -1.6633    2.0346 H   0  0  0  0  0  0  0  0  0  0  0  0
   -5.4310    0.2097   -1.8007 H   0  0  0  0  0  0  0  0  0  0  0  0
   -7.6457   -0.5089    0.0691 H   0  0  0  0  0  0  0  0  0  0  0  0
   -0.0128    3.9113   -0.1431 H   0  0  0  0  0  0  0  0  0  0  0  0
    4.7124    3.0731    1.4856 H   0  0  0  0  0  0  0  0  0  0  0  0
    6.1729    2.8630    0.4902 H   0  0  0  0  0  0  0  0  0  0  0  0
    4.7269    3.6353   -0.2032 H   0  0  0  0  0  0  0  0  0  0  0  0
    3.7033   -4.9025    1.4664 H   0  0  0  0  0  0  0  0  0  0  0  0
    4.9441   -3.7567    2.0283 H   0  0  0  0  0  0  0  0  0  0  0  0
    3.2331   -3.4878    2.4389 H   0  0  0  0  0  0  0  0  0  0  0  0
  1  2  1  0  0  0  0
  2  3  2  0  0  0  0
  3  4  1  0  0  0  0
  4  5  1  0  0  0  0
  5  6  2  0  0  0  0
  6  7  1  0  0  0  0
  7  8  2  0  0  0  0
  8  9  1  0  0  0  0
  9 10  2  0  0  0  0
  5 10  1  0  0  0  0
 10 11  1  0  0  0  0
 11 12  1  0  0  0  0
  9 13  1  0  0  0  0
 13 14  2  0  0  0  0
 14 15  1  0  0  0  0
 15 16  1  0  0  0  0
 16 17  2  0  0  0  0
 17 18  1  0  0  0  0
 13 18  1  0  0  0  0
 18 19  2  0  0  0  0
 17 20  1  0  0  0  0
 20 21  2  0  0  0  0
 21 22  1  0  0  0  0
 22 23  2  0  0  0  0
 16 23  1  0  0  0  0
 22 24  1  0  0  0  0
  8 25  1  0  0  0  0
  6 26  1  0  0  0  0
 26 27  1  0  0  0  0
  2 28  1  0  0  0  0
  1 29  1  0  0  0  0
  1 30  1  0  0  0  0
  1 31  1  0  0  0  0
  3 32  1  0  0  0  0
  4 33  1  0  0  0  0
  4 34  1  0  0  0  0
  7 35  1  0  0  0  0
 12 36  1  0  0  0  0
 12 37  1  0  0  0  0
 12 38  1  0  0  0  0
 14 39  1  0  0  0  0
 20 40  1  0  0  0  0
 21 41  1  0  0  0  0
 23 42  1  0  0  0  0
 24 43  1  0  0  0  0
 25 44  1  0  0  0  0
 27 45  1  0  0  0  0
 27 46  1  0  0  0  0
 27 47  1  0  0  0  0
 28 48  1  0  0  0  0
 28 49  1  0  0  0  0
 28 50  1  0  0  0  0
M  END
$$$$
