C16H14O5
APtclcactv06281817033D 0   0.00000     0.00000
 
 35 37  0  0  0  0  0  0  0  0999 V2000
    5.9494    2.1384    0.0107 C   0  0  0  0  0  0  0  0  0  0  0  0
    4.5209    2.1740    0.0069 O   0  0  0  0  0  0  0  0  0  0  0  0
    3.8740    0.9788    0.0073 C   0  0  0  0  0  0  0  0  0  0  0  0
    2.4897    0.9418    0.0037 C   0  0  0  0  0  0  0  0  0  0  0  0
    1.8264   -0.2860    0.0042 C   0  0  0  0  0  0  0  0  0  0  0  0
    2.5618   -1.4716    0.0083 C   0  0  0  0  0  0  0  0  0  0  0  0
    3.9462   -1.4256    0.0119 C   0  0  0  0  0  0  0  0  0  0  0  0
    4.6015   -0.2029    0.0057 C   0  0  0  0  0  0  0  0  0  0  0  0
    4.6635   -2.5799    0.0159 O   0  0  0  0  0  0  0  0  0  0  0  0
    0.3491   -0.3303    0.0008 C   0  0  0  0  0  0  0  0  0  0  0  0
   -0.3957   -1.4613    0.0009 C   0  0  0  0  0  0  0  0  0  0  0  0
   -1.7948   -1.0266   -0.0031 C   0  0  0  0  0  0  0  0  0  0  0  0
   -3.0201   -1.6968   -0.0044 C   0  0  0  0  0  0  0  0  0  0  0  0
   -4.1942   -0.9717   -0.0080 C   0  0  0  0  0  0  0  0  0  0  0  0
   -4.1558    0.4239   -0.0102 C   0  0  0  0  0  0  0  0  0  0  0  0
   -2.9466    1.0938   -0.0088 C   0  0  0  0  0  0  0  0  0  0  0  0
   -1.7562    0.3788   -0.0053 C   0  0  0  0  0  0  0  0  0  0  0  0
   -0.4584    0.7491    0.0030 O   0  0  0  0  0  0  0  0  0  0  0  0
   -5.3178    1.1303   -0.0141 O   0  0  0  0  0  0  0  0  0  0  0  0
   -5.2108    2.5553   -0.0162 C   0  0  0  0  0  0  0  0  0  0  0  0
   -5.3913   -1.6180   -0.0098 O   0  0  0  0  0  0  0  0  0  0  0  0
    6.2975    1.6173    0.9026 H   0  0  0  0  0  0  0  0  0  0  0  0
    6.3022    1.6141   -0.8774 H   0  0  0  0  0  0  0  0  0  0  0  0
    6.3382    3.1567    0.0099 H   0  0  0  0  0  0  0  0  0  0  0  0
    1.9242    1.8619    0.0009 H   0  0  0  0  0  0  0  0  0  0  0  0
    2.0524   -2.4240    0.0090 H   0  0  0  0  0  0  0  0  0  0  0  0
    5.6811   -0.1705    0.0085 H   0  0  0  0  0  0  0  0  0  0  0  0
    4.8735   -2.9156   -0.8663 H   0  0  0  0  0  0  0  0  0  0  0  0
   -0.0318   -2.4781    0.0034 H   0  0  0  0  0  0  0  0  0  0  0  0
   -3.0486   -2.7764   -0.0031 H   0  0  0  0  0  0  0  0  0  0  0  0
   -2.9277    2.1737   -0.0109 H   0  0  0  0  0  0  0  0  0  0  0  0
   -4.6733    2.8806    0.8746 H   0  0  0  0  0  0  0  0  0  0  0  0
   -4.6691    2.8776   -0.9054 H   0  0  0  0  0  0  0  0  0  0  0  0
   -6.2083    2.9945   -0.0193 H   0  0  0  0  0  0  0  0  0  0  0  0
   -5.7394   -1.8037    0.8731 H   0  0  0  0  0  0  0  0  0  0  0  0
  1  2  1  0  0  0  0
  2  3  1  0  0  0  0
  3  4  2  0  0  0  0
  4  5  1  0  0  0  0
  5  6  2  0  0  0  0
  6  7  1  0  0  0  0
  7  8  2  0  0  0  0
  3  8  1  0  0  0  0
  7  9  1  0  0  0  0
  5 10  1  0  0  0  0
 10 11  2  0  0  0  0
 11 12  1  0  0  0  0
 12 13  2  0  0  0  0
 13 14  1  0  0  0  0
 14 15  2  0  0  0  0
 15 16  1  0  0  0  0
 16 17  2  0  0  0  0
 12 17  1  0  0  0  0
 17 18  1  0  0  0  0
 10 18  1  0  0  0  0
 15 19  1  0  0  0  0
 19 20  1  0  0  0  0
 14 21  1  0  0  0  0
  1 22  1  0  0  0  0
  1 23  1  0  0  0  0
  1 24  1  0  0  0  0
  4 25  1  0  0  0  0
  6 26  1  0  0  0  0
  8 27  1  0  0  0  0
  9 28  1  0  0  0  0
 11 29  1  0  0  0  0
 13 30  1  0  0  0  0
 16 31  1  0  0  0  0
 20 32  1  0  0  0  0
 20 33  1  0  0  0  0
 20 34  1  0  0  0  0
 21 35  1  0  0  0  0
M  END
$$$$
