C32H22O11
APtclcactv06281817023D 0   0.00000     0.00000
 
 65 70  0  0  0  0  0  0  0  0999 V2000
    0.8618    2.2288    4.9031 C   0  0  0  0  0  0  0  0  0  0  0  0
   -0.2476    2.3560    4.0115 O   0  0  0  0  0  0  0  0  0  0  0  0
   -0.0387    2.0111    2.7126 C   0  0  0  0  0  0  0  0  0  0  0  0
    1.2048    1.5617    2.3099 C   0  0  0  0  0  0  0  0  0  0  0  0
    1.4237    1.2066    0.9751 C   0  0  0  0  0  0  0  0  0  0  0  0
    0.3853    1.3055    0.0483 C   0  0  0  0  0  0  0  0  0  0  0  0
   -0.8651    1.7573    0.4553 C   0  0  0  0  0  0  0  0  0  0  0  0
   -1.0791    2.1061    1.7929 C   0  0  0  0  0  0  0  0  0  0  0  0
   -2.3002    2.5473    2.1924 O   0  0  0  0  0  0  0  0  0  0  0  0
   -3.1895    1.5780    2.7507 C   0  0  0  0  0  0  0  0  0  0  0  0
   -1.9714    1.8641   -0.5259 C   0  0  0  0  0  0  0  0  0  0  0  0
   -2.2359    3.0839   -1.1541 C   0  0  0  0  0  0  0  0  0  0  0  0
   -3.2700    3.1930   -2.0742 C   0  0  0  0  0  0  0  0  0  0  0  0
   -4.0516    2.0933   -2.3794 C   0  0  0  0  0  0  0  0  0  0  0  0
   -3.7967    0.8641   -1.7564 C   0  0  0  0  0  0  0  0  0  0  0  0
   -2.7495    0.7437   -0.8298 C   0  0  0  0  0  0  0  0  0  0  0  0
   -2.5119   -0.4440   -0.2357 O   0  0  0  0  0  0  0  0  0  0  0  0
   -3.2472   -1.5363   -0.4969 C   0  0  0  0  0  0  0  0  0  0  0  0
   -4.2837   -1.5255   -1.3780 C   0  0  0  0  0  0  0  0  0  0  0  0
   -4.6088   -0.3276   -2.0572 C   0  0  0  0  0  0  0  0  0  0  0  0
   -5.5318   -0.2811   -2.8543 O   0  0  0  0  0  0  0  0  0  0  0  0
   -2.9187   -2.7958    0.1972 C   0  0  0  0  0  0  0  0  0  0  0  0
   -2.5574   -2.7783    1.5473 C   0  0  0  0  0  0  0  0  0  0  0  0
   -2.2515   -3.9566    2.1915 C   0  0  0  0  0  0  0  0  0  0  0  0
   -2.3016   -5.1616    1.5011 C   0  0  0  0  0  0  0  0  0  0  0  0
   -2.6603   -5.1836    0.1586 C   0  0  0  0  0  0  0  0  0  0  0  0
   -2.9735   -4.0106   -0.4918 C   0  0  0  0  0  0  0  0  0  0  0  0
   -1.9988   -6.3207    2.1398 O   0  0  0  0  0  0  0  0  0  0  0  0
   -5.0619    2.2043   -3.2786 O   0  0  0  0  0  0  0  0  0  0  0  0
   -1.4766    4.1702   -0.8624 O   0  0  0  0  0  0  0  0  0  0  0  0
    2.7519    0.7281    0.5470 C   0  0  0  0  0  0  0  0  0  0  0  0
    3.7455    0.6422    1.4718 C   0  0  0  0  0  0  0  0  0  0  0  0
    5.0261    0.1853    1.0797 C   0  0  0  0  0  0  0  0  0  0  0  0
    5.9406    0.0954    1.8829 O   0  0  0  0  0  0  0  0  0  0  0  0
    5.2122   -0.1779   -0.3353 C   0  0  0  0  0  0  0  0  0  0  0  0
    6.4453   -0.6400   -0.8114 C   0  0  0  0  0  0  0  0  0  0  0  0
    6.5787   -0.9712   -2.1474 C   0  0  0  0  0  0  0  0  0  0  0  0
    5.4953   -0.8455   -3.0097 C   0  0  0  0  0  0  0  0  0  0  0  0
    4.2715   -0.3882   -2.5451 C   0  0  0  0  0  0  0  0  0  0  0  0
    4.1184   -0.0519   -1.2094 C   0  0  0  0  0  0  0  0  0  0  0  0
    2.9321    0.3889   -0.7394 O   0  0  0  0  0  0  0  0  0  0  0  0
    5.6371   -1.1734   -4.3194 O   0  0  0  0  0  0  0  0  0  0  0  0
    7.5016   -0.7615    0.0318 O   0  0  0  0  0  0  0  0  0  0  0  0
    0.5602    2.5355    5.9046 H   0  0  0  0  0  0  0  0  0  0  0  0
    1.1928    1.1905    4.9253 H   0  0  0  0  0  0  0  0  0  0  0  0
    1.6788    2.8632    4.5594 H   0  0  0  0  0  0  0  0  0  0  0  0
    2.0087    1.4851    3.0270 H   0  0  0  0  0  0  0  0  0  0  0  0
    0.5526    1.0320   -0.9830 H   0  0  0  0  0  0  0  0  0  0  0  0
   -4.1566    2.0417    2.9453 H   0  0  0  0  0  0  0  0  0  0  0  0
   -3.3163    0.7542    2.0483 H   0  0  0  0  0  0  0  0  0  0  0  0
   -2.7739    1.1988    3.6843 H   0  0  0  0  0  0  0  0  0  0  0  0
   -3.4652    4.1409   -2.5536 H   0  0  0  0  0  0  0  0  0  0  0  0
   -4.8515   -2.4258   -1.5610 H   0  0  0  0  0  0  0  0  0  0  0  0
   -2.5179   -1.8422    2.0845 H   0  0  0  0  0  0  0  0  0  0  0  0
   -1.9719   -3.9440    3.2346 H   0  0  0  0  0  0  0  0  0  0  0  0
   -2.6977   -6.1222   -0.3743 H   0  0  0  0  0  0  0  0  0  0  0  0
   -3.2525   -4.0286   -1.5350 H   0  0  0  0  0  0  0  0  0  0  0  0
   -2.7591   -6.7521    2.5533 H   0  0  0  0  0  0  0  0  0  0  0  0
   -4.7982    2.0219   -4.1909 H   0  0  0  0  0  0  0  0  0  0  0  0
   -0.6606    4.2297   -1.3778 H   0  0  0  0  0  0  0  0  0  0  0  0
    3.5585    0.9211    2.4983 H   0  0  0  0  0  0  0  0  0  0  0  0
    7.5268   -1.3279   -2.5220 H   0  0  0  0  0  0  0  0  0  0  0  0
    3.4373   -0.2941   -3.2244 H   0  0  0  0  0  0  0  0  0  0  0  0
    5.4372   -2.0986   -4.5171 H   0  0  0  0  0  0  0  0  0  0  0  0
    7.5670   -1.6269    0.4583 H   0  0  0  0  0  0  0  0  0  0  0  0
  1  2  1  0  0  0  0
  2  3  1  0  0  0  0
  3  4  2  0  0  0  0
  4  5  1  0  0  0  0
  5  6  2  0  0  0  0
  6  7  1  0  0  0  0
  7  8  2  0  0  0  0
  3  8  1  0  0  0  0
  8  9  1  0  0  0  0
  9 10  1  0  0  0  0
  7 11  1  0  0  0  0
 11 12  2  0  0  0  0
 12 13  1  0  0  0  0
 13 14  2  0  0  0  0
 14 15  1  0  0  0  0
 15 16  2  0  0  0  0
 11 16  1  0  0  0  0
 16 17  1  0  0  0  0
 17 18  1  0  0  0  0
 18 19  2  0  0  0  0
 19 20  1  0  0  0  0
 15 20  1  0  0  0  0
 20 21  2  0  0  0  0
 18 22  1  0  0  0  0
 22 23  2  0  0  0  0
 23 24  1  0  0  0  0
 24 25  2  0  0  0  0
 25 26  1  0  0  0  0
 26 27  2  0  0  0  0
 22 27  1  0  0  0  0
 25 28  1  0  0  0  0
 14 29  1  0  0  0  0
 12 30  1  0  0  0  0
  5 31  1  0  0  0  0
 31 32  2  0  0  0  0
 32 33  1  0  0  0  0
 33 34  2  0  0  0  0
 33 35  1  0  0  0  0
 35 36  2  0  0  0  0
 36 37  1  0  0  0  0
 37 38  2  0  0  0  0
 38 39  1  0  0  0  0
 39 40  2  0  0  0  0
 35 40  1  0  0  0  0
 40 41  1  0  0  0  0
 31 41  1  0  0  0  0
 38 42  1  0  0  0  0
 36 43  1  0  0  0  0
  1 44  1  0  0  0  0
  1 45  1  0  0  0  0
  1 46  1  0  0  0  0
  4 47  1  0  0  0  0
  6 48  1  0  0  0  0
 10 49  1  0  0  0  0
 10 50  1  0  0  0  0
 10 51  1  0  0  0  0
 13 52  1  0  0  0  0
 19 53  1  0  0  0  0
 23 54  1  0  0  0  0
 24 55  1  0  0  0  0
 26 56  1  0  0  0  0
 27 57  1  0  0  0  0
 28 58  1  0  0  0  0
 29 59  1  0  0  0  0
 30 60  1  0  0  0  0
 32 61  1  0  0  0  0
 37 62  1  0  0  0  0
 39 63  1  0  0  0  0
 42 64  1  0  0  0  0
 43 65  1  0  0  0  0
M  END
$$$$
