C10H16O
APtclcactv06281817023D 0   0.00000     0.00000
 
 27 27  0  0  0  0  0  0  0  0999 V2000
    2.8891    1.2054   -0.4859 C   0  0  0  0  0  0  0  0  0  0  0  0
    2.1938   -0.1551   -0.4042 C   0  0  0  0  0  0  0  0  0  0  0  0
    3.0245   -1.1009    0.4655 C   0  0  0  0  0  0  0  0  0  0  0  0
    0.8049    0.0183    0.2137 C   0  0  0  0  0  0  0  0  0  0  0  0
   -0.0175    0.9636   -0.6605 C   0  0  0  0  0  0  0  0  0  0  0  0
   -1.4590    1.0067   -0.1332 C   0  0  0  0  0  0  0  0  0  0  0  0
   -2.0221   -0.3950   -0.2504 C   0  0  0  0  0  0  0  0  0  0  0  0
   -3.2637   -0.6039   -0.6750 C   0  0  0  0  0  0  0  0  0  0  0  0
   -1.1433   -1.5198    0.1230 C   0  0  0  0  0  0  0  0  0  0  0  0
    0.1473   -1.3245    0.3291 C   0  0  0  0  0  0  0  0  0  0  0  0
   -1.4644    1.4204    1.2346 O   0  0  0  0  0  0  0  0  0  0  0  0
    3.8786    1.0819   -0.9261 H   0  0  0  0  0  0  0  0  0  0  0  0
    2.2973    1.8792   -1.1055 H   0  0  0  0  0  0  0  0  0  0  0  0
    2.9866    1.6243    0.5156 H   0  0  0  0  0  0  0  0  0  0  0  0
    2.0962   -0.5740   -1.4057 H   0  0  0  0  0  0  0  0  0  0  0  0
    2.5292   -2.0701    0.5238 H   0  0  0  0  0  0  0  0  0  0  0  0
    4.0140   -1.2244    0.0254 H   0  0  0  0  0  0  0  0  0  0  0  0
    3.1220   -0.6819    1.4671 H   0  0  0  0  0  0  0  0  0  0  0  0
    0.9082    0.4511    1.2087 H   0  0  0  0  0  0  0  0  0  0  0  0
    0.4146    1.9636   -0.6229 H   0  0  0  0  0  0  0  0  0  0  0  0
   -0.0162    0.6029   -1.6891 H   0  0  0  0  0  0  0  0  0  0  0  0
   -2.0529    1.6966   -0.7328 H   0  0  0  0  0  0  0  0  0  0  0  0
   -3.8906    0.2334   -0.9438 H   0  0  0  0  0  0  0  0  0  0  0  0
   -3.6459   -1.6111   -0.7513 H   0  0  0  0  0  0  0  0  0  0  0  0
   -1.5584   -2.5112    0.2288 H   0  0  0  0  0  0  0  0  0  0  0  0
    0.7590   -2.1744    0.5937 H   0  0  0  0  0  0  0  0  0  0  0  0
   -2.3467    1.4680    1.6276 H   0  0  0  0  0  0  0  0  0  0  0  0
  1  2  1  0  0  0  0
  2  3  1  0  0  0  0
  2  4  1  0  0  0  0
  4  5  1  0  0  0  0
  5  6  1  0  0  0  0
  6  7  1  0  0  0  0
  7  8  2  0  0  0  0
  7  9  1  0  0  0  0
  9 10  2  0  0  0  0
  4 10  1  0  0  0  0
  6 11  1  0  0  0  0
  1 12  1  0  0  0  0
  1 13  1  0  0  0  0
  1 14  1  0  0  0  0
  2 15  1  0  0  0  0
  3 16  1  0  0  0  0
  3 17  1  0  0  0  0
  3 18  1  0  0  0  0
  4 19  1  0  0  0  0
  5 20  1  0  0  0  0
  5 21  1  0  0  0  0
  6 22  1  0  0  0  0
  8 23  1  0  0  0  0
  8 24  1  0  0  0  0
  9 25  1  0  0  0  0
 10 26  1  0  0  0  0
 11 27  1  0  0  0  0
M  END
$$$$
