C9H10O5
APtclcactv06281817033D 0   0.00000     0.00000
 
 24 24  0  0  0  0  0  0  0  0999 V2000
    3.8665   -0.2518    0.9567 C   0  0  0  0  0  0  0  0  0  0  0  0
    3.1479   -0.1782   -0.2763 O   0  0  0  0  0  0  0  0  0  0  0  0
    1.7964   -0.0618   -0.1966 C   0  0  0  0  0  0  0  0  0  0  0  0
    1.2094    1.1999   -0.1448 C   0  0  0  0  0  0  0  0  0  0  0  0
   -0.1649    1.3212   -0.0638 C   0  0  0  0  0  0  0  0  0  0  0  0
   -0.9657    0.1761   -0.0339 C   0  0  0  0  0  0  0  0  0  0  0  0
   -0.3738   -1.0889   -0.0860 C   0  0  0  0  0  0  0  0  0  0  0  0
    1.0007   -1.2043   -0.1727 C   0  0  0  0  0  0  0  0  0  0  0  0
    1.5774   -2.4350   -0.2239 O   0  0  0  0  0  0  0  0  0  0  0  0
   -2.4324    0.3024    0.0531 C   0  0  0  0  0  0  0  0  0  0  0  0
   -2.9458    1.4027    0.0987 O   0  0  0  0  0  0  0  0  0  0  0  0
   -3.2033   -0.8025    0.0819 O   0  0  0  0  0  0  0  0  0  0  0  0
   -4.6389   -0.6026    0.1680 C   0  0  0  0  0  0  0  0  0  0  0  0
    1.9893    2.3137   -0.1736 O   0  0  0  0  0  0  0  0  0  0  0  0
    3.6841    0.6520    1.5381 H   0  0  0  0  0  0  0  0  0  0  0  0
    3.5304   -1.1212    1.5218 H   0  0  0  0  0  0  0  0  0  0  0  0
    4.9330   -0.3423    0.7508 H   0  0  0  0  0  0  0  0  0  0  0  0
   -0.6197    2.2999   -0.0233 H   0  0  0  0  0  0  0  0  0  0  0  0
   -0.9902   -1.9755   -0.0626 H   0  0  0  0  0  0  0  0  0  0  0  0
    1.6894   -2.7798   -1.1203 H   0  0  0  0  0  0  0  0  0  0  0  0
   -4.8755   -0.0565    1.0812 H   0  0  0  0  0  0  0  0  0  0  0  0
   -4.9786   -0.0309   -0.6956 H   0  0  0  0  0  0  0  0  0  0  0  0
   -5.1402   -1.5703    0.1832 H   0  0  0  0  0  0  0  0  0  0  0  0
    2.1642    2.6485   -1.0638 H   0  0  0  0  0  0  0  0  0  0  0  0
  1  2  1  0  0  0  0
  2  3  1  0  0  0  0
  3  4  2  0  0  0  0
  4  5  1  0  0  0  0
  5  6  2  0  0  0  0
  6  7  1  0  0  0  0
  7  8  2  0  0  0  0
  3  8  1  0  0  0  0
  8  9  1  0  0  0  0
  6 10  1  0  0  0  0
 10 11  2  0  0  0  0
 10 12  1  0  0  0  0
 12 13  1  0  0  0  0
  4 14  1  0  0  0  0
  1 15  1  0  0  0  0
  1 16  1  0  0  0  0
  1 17  1  0  0  0  0
  5 18  1  0  0  0  0
  7 19  1  0  0  0  0
  9 20  1  0  0  0  0
 13 21  1  0  0  0  0
 13 22  1  0  0  0  0
 13 23  1  0  0  0  0
 14 24  1  0  0  0  0
M  END
$$$$
