C19H16O4
APtclcactv06281817033D 0   0.00000     0.00000
 
 39 42  0  0  0  0  0  0  0  0999 V2000
   -3.7074    1.7462    1.7538 C   0  0  0  0  0  0  0  0  0  0  0  0
   -3.5011    1.9800    0.2559 C   0  0  0  0  0  0  0  0  0  0  0  0
   -2.0716    2.3838    0.0084 C   0  0  0  0  0  0  0  0  0  0  0  0
   -1.1450    1.4514   -0.2151 C   0  0  0  0  0  0  0  0  0  0  0  0
   -1.5699    0.0382   -0.2232 C   0  0  0  0  0  0  0  0  0  0  0  0
   -2.9361   -0.2486   -0.3474 C   0  0  0  0  0  0  0  0  0  0  0  0
   -3.8140    0.7817   -0.4553 O   0  0  0  0  0  0  0  0  0  0  0  0
   -3.3655   -1.5618   -0.3585 C   0  0  0  0  0  0  0  0  0  0  0  0
   -2.4450   -2.5973   -0.2470 C   0  0  0  0  0  0  0  0  0  0  0  0
   -1.0914   -2.3275   -0.1240 C   0  0  0  0  0  0  0  0  0  0  0  0
   -0.6399   -1.0071   -0.1096 C   0  0  0  0  0  0  0  0  0  0  0  0
    0.8001   -0.7129    0.0208 C   0  0  0  0  0  0  0  0  0  0  0  0
    1.6204   -1.2377    0.9636 C   0  0  0  0  0  0  0  0  0  0  0  0
    2.9463   -0.6692    0.7103 C   0  0  0  0  0  0  0  0  0  0  0  0
    2.7908    0.1757   -0.4035 C   0  0  0  0  0  0  0  0  0  0  0  0
    1.4984    0.1138   -0.7836 O   0  0  0  0  0  0  0  0  0  0  0  0
    3.8924    0.8677   -0.8888 C   0  0  0  0  0  0  0  0  0  0  0  0
    5.1234    0.7191   -0.2748 C   0  0  0  0  0  0  0  0  0  0  0  0
    5.2691   -0.1196    0.8270 C   0  0  0  0  0  0  0  0  0  0  0  0
    4.1958   -0.8080    1.3177 C   0  0  0  0  0  0  0  0  0  0  0  0
    6.2001    1.3976   -0.7518 O   0  0  0  0  0  0  0  0  0  0  0  0
   -2.8764   -3.8856   -0.2583 O   0  0  0  0  0  0  0  0  0  0  0  0
   -4.4306    3.1013   -0.2125 C   0  0  0  0  0  0  0  0  0  0  0  0
   -3.4878    2.6645    2.2985 H   0  0  0  0  0  0  0  0  0  0  0  0
   -4.7414    1.4537    1.9369 H   0  0  0  0  0  0  0  0  0  0  0  0
   -3.0402    0.9540    2.0932 H   0  0  0  0  0  0  0  0  0  0  0  0
   -1.7970    3.4283    0.0116 H   0  0  0  0  0  0  0  0  0  0  0  0
   -0.1136    1.7226   -0.3857 H   0  0  0  0  0  0  0  0  0  0  0  0
   -4.4181   -1.7841   -0.4536 H   0  0  0  0  0  0  0  0  0  0  0  0
   -0.3851   -3.1401   -0.0382 H   0  0  0  0  0  0  0  0  0  0  0  0
    1.3508   -1.9338    1.7441 H   0  0  0  0  0  0  0  0  0  0  0  0
    3.7887    1.5199   -1.7434 H   0  0  0  0  0  0  0  0  0  0  0  0
    6.2359   -0.2268    1.2962 H   0  0  0  0  0  0  0  0  0  0  0  0
    4.3134   -1.4568    2.1730 H   0  0  0  0  0  0  0  0  0  0  0  0
    6.3247    2.2690   -0.3516 H   0  0  0  0  0  0  0  0  0  0  0  0
   -2.9176   -4.2788   -1.1407 H   0  0  0  0  0  0  0  0  0  0  0  0
   -4.2015    4.0157    0.3348 H   0  0  0  0  0  0  0  0  0  0  0  0
   -4.2865    3.2708   -1.2796 H   0  0  0  0  0  0  0  0  0  0  0  0
   -5.4662    2.8164   -0.0265 H   0  0  0  0  0  0  0  0  0  0  0  0
  1  2  1  0  0  0  0
  2  3  1  0  0  0  0
  3  4  2  0  0  0  0
  4  5  1  0  0  0  0
  5  6  2  0  0  0  0
  6  7  1  0  0  0  0
  2  7  1  0  0  0  0
  6  8  1  0  0  0  0
  8  9  2  0  0  0  0
  9 10  1  0  0  0  0
 10 11  2  0  0  0  0
  5 11  1  0  0  0  0
 11 12  1  0  0  0  0
 12 13  2  0  0  0  0
 13 14  1  0  0  0  0
 14 15  2  0  0  0  0
 15 16  1  0  0  0  0
 12 16  1  0  0  0  0
 15 17  1  0  0  0  0
 17 18  2  0  0  0  0
 18 19  1  0  0  0  0
 19 20  2  0  0  0  0
 14 20  1  0  0  0  0
 18 21  1  0  0  0  0
  9 22  1  0  0  0  0
  2 23  1  0  0  0  0
  1 24  1  0  0  0  0
  1 25  1  0  0  0  0
  1 26  1  0  0  0  0
  3 27  1  0  0  0  0
  4 28  1  0  0  0  0
  8 29  1  0  0  0  0
 10 30  1  0  0  0  0
 13 31  1  0  0  0  0
 17 32  1  0  0  0  0
 19 33  1  0  0  0  0
 20 34  1  0  0  0  0
 21 35  1  0  0  0  0
 22 36  1  0  0  0  0
 23 37  1  0  0  0  0
 23 38  1  0  0  0  0
 23 39  1  0  0  0  0
M  END
$$$$
