C20H16O6
APtclcactv06281817033D 0   0.00000     0.00000
 
 42 45  0  0  0  0  0  0  0  0999 V2000
    6.2727    0.2820    1.9199 C   0  0  0  0  0  0  0  0  0  0  0  0
    6.3586   -0.1678    0.4842 C   0  0  0  0  0  0  0  0  0  0  0  0
    7.5112   -0.5327   -0.0201 C   0  0  0  0  0  0  0  0  0  0  0  0
    5.1184   -0.1978   -0.3715 C   0  0  0  0  0  0  0  0  0  0  0  0
    4.1090   -1.2410    0.1633 C   0  0  0  0  0  0  0  0  0  0  0  0
    2.7823   -0.5572   -0.1047 C   0  0  0  0  0  0  0  0  0  0  0  0
    3.0572    0.7857   -0.3526 C   0  0  0  0  0  0  0  0  0  0  0  0
    4.3918    1.0370   -0.2580 O   0  0  0  0  0  0  0  0  0  0  0  0
    2.0127    1.6583   -0.6458 C   0  0  0  0  0  0  0  0  0  0  0  0
    0.7039    1.2034   -0.6855 C   0  0  0  0  0  0  0  0  0  0  0  0
    0.4389   -0.1519   -0.4169 C   0  0  0  0  0  0  0  0  0  0  0  0
    1.4890   -1.0333   -0.1323 C   0  0  0  0  0  0  0  0  0  0  0  0
    1.2360   -2.3437    0.1131 O   0  0  0  0  0  0  0  0  0  0  0  0
   -0.9620   -0.6041   -0.4381 C   0  0  0  0  0  0  0  0  0  0  0  0
   -1.2615   -1.7860   -0.4348 O   0  0  0  0  0  0  0  0  0  0  0  0
   -1.9815    0.4638   -0.4630 C   0  0  0  0  0  0  0  0  0  0  0  0
   -1.5724    1.7306   -0.7297 C   0  0  0  0  0  0  0  0  0  0  0  0
   -0.3025    2.0478   -0.9849 O   0  0  0  0  0  0  0  0  0  0  0  0
   -3.4104    0.1613   -0.2049 C   0  0  0  0  0  0  0  0  0  0  0  0
   -3.9901    0.5068    1.0199 C   0  0  0  0  0  0  0  0  0  0  0  0
   -5.3245    0.2223    1.2547 C   0  0  0  0  0  0  0  0  0  0  0  0
   -6.0828   -0.4042    0.2769 C   0  0  0  0  0  0  0  0  0  0  0  0
   -5.5077   -0.7480   -0.9393 C   0  0  0  0  0  0  0  0  0  0  0  0
   -4.1804   -0.4626   -1.1841 C   0  0  0  0  0  0  0  0  0  0  0  0
   -7.3924   -0.6828    0.5100 O   0  0  0  0  0  0  0  0  0  0  0  0
   -3.2456    1.1198    1.9771 O   0  0  0  0  0  0  0  0  0  0  0  0
    6.4306    1.3592    1.9733 H   0  0  0  0  0  0  0  0  0  0  0  0
    5.2877    0.0390    2.3185 H   0  0  0  0  0  0  0  0  0  0  0  0
    7.0377   -0.2268    2.5065 H   0  0  0  0  0  0  0  0  0  0  0  0
    8.4000   -0.5112    0.5931 H   0  0  0  0  0  0  0  0  0  0  0  0
    7.5728   -0.8551   -1.0490 H   0  0  0  0  0  0  0  0  0  0  0  0
    5.3732   -0.4048   -1.4108 H   0  0  0  0  0  0  0  0  0  0  0  0
    4.1844   -2.1763   -0.3914 H   0  0  0  0  0  0  0  0  0  0  0  0
    4.2518   -1.4100    1.2306 H   0  0  0  0  0  0  0  0  0  0  0  0
    2.2240    2.6988   -0.8438 H   0  0  0  0  0  0  0  0  0  0  0  0
    1.2471   -2.9011   -0.6770 H   0  0  0  0  0  0  0  0  0  0  0  0
   -2.3106    2.5189   -0.7359 H   0  0  0  0  0  0  0  0  0  0  0  0
   -5.7749    0.4880    2.1997 H   0  0  0  0  0  0  0  0  0  0  0  0
   -6.1023   -1.2360   -1.6974 H   0  0  0  0  0  0  0  0  0  0  0  0
   -3.7358   -0.7312   -2.1310 H   0  0  0  0  0  0  0  0  0  0  0  0
   -7.9977    0.0244    0.2482 H   0  0  0  0  0  0  0  0  0  0  0  0
   -3.2557    2.0853    1.9250 H   0  0  0  0  0  0  0  0  0  0  0  0
  1  2  1  0  0  0  0
  2  3  2  0  0  0  0
  2  4  1  0  0  0  0
  4  5  1  0  0  0  0
  5  6  1  0  0  0  0
  6  7  2  0  0  0  0
  7  8  1  0  0  0  0
  4  8  1  0  0  0  0
  7  9  1  0  0  0  0
  9 10  2  0  0  0  0
 10 11  1  0  0  0  0
 11 12  2  0  0  0  0
  6 12  1  0  0  0  0
 12 13  1  0  0  0  0
 11 14  1  0  0  0  0
 14 15  2  0  0  0  0
 14 16  1  0  0  0  0
 16 17  2  0  0  0  0
 17 18  1  0  0  0  0
 10 18  1  0  0  0  0
 16 19  1  0  0  0  0
 19 20  2  0  0  0  0
 20 21  1  0  0  0  0
 21 22  2  0  0  0  0
 22 23  1  0  0  0  0
 23 24  2  0  0  0  0
 19 24  1  0  0  0  0
 22 25  1  0  0  0  0
 20 26  1  0  0  0  0
  1 27  1  0  0  0  0
  1 28  1  0  0  0  0
  1 29  1  0  0  0  0
  3 30  1  0  0  0  0
  3 31  1  0  0  0  0
  4 32  1  0  0  0  0
  5 33  1  0  0  0  0
  5 34  1  0  0  0  0
  9 35  1  0  0  0  0
 13 36  1  0  0  0  0
 17 37  1  0  0  0  0
 21 38  1  0  0  0  0
 23 39  1  0  0  0  0
 24 40  1  0  0  0  0
 25 41  1  0  0  0  0
 26 42  1  0  0  0  0
M  END
$$$$
