C10H16O
APtclcactv06281817023D 0   0.00000     0.00000
 
 27 27  0  0  0  0  0  0  0  0999 V2000
    2.8820    0.3759   -0.7594 C   0  0  0  0  0  0  0  0  0  0  0  0
    2.0039    0.0184    0.4415 C   0  0  0  0  0  0  0  0  0  0  0  0
    1.8355    1.2493    1.3345 C   0  0  0  0  0  0  0  0  0  0  0  0
    0.6317   -0.4464   -0.0504 C   0  0  0  0  0  0  0  0  0  0  0  0
   -0.2785   -0.6818    1.1539 C   0  0  0  0  0  0  0  0  0  0  0  0
   -1.6988   -0.9868    0.6563 C   0  0  0  0  0  0  0  0  0  0  0  0
   -2.1812    0.2340   -0.1004 C   0  0  0  0  0  0  0  0  0  0  0  0
   -3.4233    0.6840    0.0407 C   0  0  0  0  0  0  0  0  0  0  0  0
   -1.2231    0.9059   -0.9991 C   0  0  0  0  0  0  0  0  0  0  0  0
    0.0604    0.5933   -0.9677 C   0  0  0  0  0  0  0  0  0  0  0  0
    0.7829   -1.6718   -0.7698 O   0  0  0  0  0  0  0  0  0  0  0  0
    3.8596    0.7070   -0.4089 H   0  0  0  0  0  0  0  0  0  0  0  0
    3.0020   -0.5011   -1.3955 H   0  0  0  0  0  0  0  0  0  0  0  0
    2.4100    1.1763   -1.3291 H   0  0  0  0  0  0  0  0  0  0  0  0
    2.4759   -0.7820    1.0113 H   0  0  0  0  0  0  0  0  0  0  0  0
    1.3635    2.0497    0.7647 H   0  0  0  0  0  0  0  0  0  0  0  0
    1.2099    0.9947    2.1900 H   0  0  0  0  0  0  0  0  0  0  0  0
    2.8130    1.5805    1.6850 H   0  0  0  0  0  0  0  0  0  0  0  0
    0.0942   -1.5267    1.7330 H   0  0  0  0  0  0  0  0  0  0  0  0
   -0.2949    0.2112    1.7786 H   0  0  0  0  0  0  0  0  0  0  0  0
   -1.6819   -1.8516   -0.0069 H   0  0  0  0  0  0  0  0  0  0  0  0
   -2.3553   -1.1811    1.5043 H   0  0  0  0  0  0  0  0  0  0  0  0
   -4.1090    0.1778    0.7040 H   0  0  0  0  0  0  0  0  0  0  0  0
   -3.7474    1.5561   -0.5079 H   0  0  0  0  0  0  0  0  0  0  0  0
   -1.5738    1.6597   -1.6885 H   0  0  0  0  0  0  0  0  0  0  0  0
    0.7315    1.1125   -1.6360 H   0  0  0  0  0  0  0  0  0  0  0  0
   -0.0465   -2.0306   -1.1143 H   0  0  0  0  0  0  0  0  0  0  0  0
  1  2  1  0  0  0  0
  2  3  1  0  0  0  0
  2  4  1  0  0  0  0
  4  5  1  0  0  0  0
  5  6  1  0  0  0  0
  6  7  1  0  0  0  0
  7  8  2  0  0  0  0
  7  9  1  0  0  0  0
  9 10  2  0  0  0  0
  4 10  1  0  0  0  0
  4 11  1  0  0  0  0
  1 12  1  0  0  0  0
  1 13  1  0  0  0  0
  1 14  1  0  0  0  0
  2 15  1  0  0  0  0
  3 16  1  0  0  0  0
  3 17  1  0  0  0  0
  3 18  1  0  0  0  0
  5 19  1  0  0  0  0
  5 20  1  0  0  0  0
  6 21  1  0  0  0  0
  6 22  1  0  0  0  0
  8 23  1  0  0  0  0
  8 24  1  0  0  0  0
  9 25  1  0  0  0  0
 10 26  1  0  0  0  0
 11 27  1  0  0  0  0
M  END
$$$$
