C16H12O5
APtclcactv06281817053D 0   0.00000     0.00000
 
 33 35  0  0  0  0  0  0  0  0999 V2000
    5.2624   -0.1205   -1.0240 C   0  0  0  0  0  0  0  0  0  0  0  0
    4.5758   -0.0983    0.2291 O   0  0  0  0  0  0  0  0  0  0  0  0
    3.2260   -0.2740    0.1975 C   0  0  0  0  0  0  0  0  0  0  0  0
    2.6891   -1.5569    0.2863 C   0  0  0  0  0  0  0  0  0  0  0  0
    1.3171   -1.7513    0.2555 C   0  0  0  0  0  0  0  0  0  0  0  0
    0.4641   -0.6655    0.1355 C   0  0  0  0  0  0  0  0  0  0  0  0
    1.0018    0.6307    0.0456 C   0  0  0  0  0  0  0  0  0  0  0  0
    2.3878    0.8235    0.0828 C   0  0  0  0  0  0  0  0  0  0  0  0
    2.9073    2.0755   -0.0036 O   0  0  0  0  0  0  0  0  0  0  0  0
    0.0750    1.7680   -0.0812 C   0  0  0  0  0  0  0  0  0  0  0  0
    0.4855    2.9143   -0.1633 O   0  0  0  0  0  0  0  0  0  0  0  0
   -1.3112    1.4794   -0.1046 C   0  0  0  0  0  0  0  0  0  0  0  0
   -1.7288    0.1895   -0.0111 C   0  0  0  0  0  0  0  0  0  0  0  0
   -0.8747   -0.8393    0.1037 O   0  0  0  0  0  0  0  0  0  0  0  0
   -3.1785   -0.0909   -0.0374 C   0  0  0  0  0  0  0  0  0  0  0  0
   -3.6665   -1.1970   -0.7366 C   0  0  0  0  0  0  0  0  0  0  0  0
   -5.0217   -1.4532   -0.7565 C   0  0  0  0  0  0  0  0  0  0  0  0
   -5.8971   -0.6173   -0.0859 C   0  0  0  0  0  0  0  0  0  0  0  0
   -5.4205    0.4806    0.6084 C   0  0  0  0  0  0  0  0  0  0  0  0
   -4.0672    0.7455    0.6416 C   0  0  0  0  0  0  0  0  0  0  0  0
    3.5179   -2.6267    0.4036 O   0  0  0  0  0  0  0  0  0  0  0  0
    6.3288    0.0309   -0.8567 H   0  0  0  0  0  0  0  0  0  0  0  0
    5.1037   -1.0841   -1.5082 H   0  0  0  0  0  0  0  0  0  0  0  0
    4.8783    0.6748   -1.6629 H   0  0  0  0  0  0  0  0  0  0  0  0
    0.9123   -2.7502    0.3248 H   0  0  0  0  0  0  0  0  0  0  0  0
    3.0237    2.5129    0.8510 H   0  0  0  0  0  0  0  0  0  0  0  0
   -2.0315    2.2788   -0.1958 H   0  0  0  0  0  0  0  0  0  0  0  0
   -2.9844   -1.8500   -1.2607 H   0  0  0  0  0  0  0  0  0  0  0  0
   -5.4005   -2.3081   -1.2971 H   0  0  0  0  0  0  0  0  0  0  0  0
   -6.9572   -0.8226   -0.1048 H   0  0  0  0  0  0  0  0  0  0  0  0
   -6.1094    1.1293    1.1291 H   0  0  0  0  0  0  0  0  0  0  0  0
   -3.6965    1.6026    1.1841 H   0  0  0  0  0  0  0  0  0  0  0  0
    3.7280   -2.8630    1.3174 H   0  0  0  0  0  0  0  0  0  0  0  0
  1  2  1  0  0  0  0
  2  3  1  0  0  0  0
  3  4  2  0  0  0  0
  4  5  1  0  0  0  0
  5  6  2  0  0  0  0
  6  7  1  0  0  0  0
  7  8  2  0  0  0  0
  3  8  1  0  0  0  0
  8  9  1  0  0  0  0
  7 10  1  0  0  0  0
 10 11  2  0  0  0  0
 10 12  1  0  0  0  0
 12 13  2  0  0  0  0
 13 14  1  0  0  0  0
  6 14  1  0  0  0  0
 13 15  1  0  0  0  0
 15 16  2  0  0  0  0
 16 17  1  0  0  0  0
 17 18  2  0  0  0  0
 18 19  1  0  0  0  0
 19 20  2  0  0  0  0
 15 20  1  0  0  0  0
  4 21  1  0  0  0  0
  1 22  1  0  0  0  0
  1 23  1  0  0  0  0
  1 24  1  0  0  0  0
  5 25  1  0  0  0  0
  9 26  1  0  0  0  0
 12 27  1  0  0  0  0
 16 28  1  0  0  0  0
 17 29  1  0  0  0  0
 18 30  1  0  0  0  0
 19 31  1  0  0  0  0
 20 32  1  0  0  0  0
 21 33  1  0  0  0  0
M  END
$$$$
