C20H18O7
APtclcactv06281817043D 0   0.00000     0.00000
 
 45 47  0  0  0  0  0  0  0  0999 V2000
   -2.6808    3.9162   -0.1579 C   0  0  0  0  0  0  0  0  0  0  0  0
   -2.1437    3.0220   -1.2456 C   0  0  0  0  0  0  0  0  0  0  0  0
   -1.5995    1.8708   -0.9379 C   0  0  0  0  0  0  0  0  0  0  0  0
   -1.6215    1.3840    0.4881 C   0  0  0  0  0  0  0  0  0  0  0  0
   -2.2373    0.0096    0.5403 C   0  0  0  0  0  0  0  0  0  0  0  0
   -1.4493   -1.1206    0.3042 C   0  0  0  0  0  0  0  0  0  0  0  0
   -2.0256   -2.3930    0.3544 C   0  0  0  0  0  0  0  0  0  0  0  0
   -3.3678   -2.5308    0.6361 C   0  0  0  0  0  0  0  0  0  0  0  0
   -4.1500   -1.4083    0.8700 C   0  0  0  0  0  0  0  0  0  0  0  0
   -3.5809   -0.1368    0.8273 C   0  0  0  0  0  0  0  0  0  0  0  0
   -4.3505    0.9606    1.0575 O   0  0  0  0  0  0  0  0  0  0  0  0
   -5.4727   -1.5498    1.1469 O   0  0  0  0  0  0  0  0  0  0  0  0
   -0.0138   -0.9708    0.0025 C   0  0  0  0  0  0  0  0  0  0  0  0
    0.4678   -1.4804   -1.1669 C   0  0  0  0  0  0  0  0  0  0  0  0
    1.8455   -1.3441   -1.4718 C   0  0  0  0  0  0  0  0  0  0  0  0
    2.3122   -1.7871   -2.5091 O   0  0  0  0  0  0  0  0  0  0  0  0
    2.6922   -0.6463   -0.4878 C   0  0  0  0  0  0  0  0  0  0  0  0
    4.0591   -0.4674   -0.7081 C   0  0  0  0  0  0  0  0  0  0  0  0
    4.8209    0.1912    0.2348 C   0  0  0  0  0  0  0  0  0  0  0  0
    4.2264    0.6756    1.4029 C   0  0  0  0  0  0  0  0  0  0  0  0
    2.8725    0.5009    1.6268 C   0  0  0  0  0  0  0  0  0  0  0  0
    2.0935   -0.1593    0.6866 C   0  0  0  0  0  0  0  0  0  0  0  0
    0.7700   -0.3326    0.8876 O   0  0  0  0  0  0  0  0  0  0  0  0
    4.9840    1.3229    2.3260 O   0  0  0  0  0  0  0  0  0  0  0  0
    6.1535    0.3688    0.0273 O   0  0  0  0  0  0  0  0  0  0  0  0
   -0.3671   -2.1150   -2.0341 O   0  0  0  0  0  0  0  0  0  0  0  0
   -2.2328    3.4521   -2.6871 C   0  0  0  0  0  0  0  0  0  0  0  0
   -1.8972    4.1072    0.5754 H   0  0  0  0  0  0  0  0  0  0  0  0
   -3.0094    4.8601   -0.5927 H   0  0  0  0  0  0  0  0  0  0  0  0
   -3.5242    3.4280    0.3305 H   0  0  0  0  0  0  0  0  0  0  0  0
   -1.1350    1.2706   -1.7063 H   0  0  0  0  0  0  0  0  0  0  0  0
   -0.6026    1.3405    0.8729 H   0  0  0  0  0  0  0  0  0  0  0  0
   -2.2108    2.0696    1.0970 H   0  0  0  0  0  0  0  0  0  0  0  0
   -1.4195   -3.2681    0.1721 H   0  0  0  0  0  0  0  0  0  0  0  0
   -3.8119   -3.5145    0.6746 H   0  0  0  0  0  0  0  0  0  0  0  0
   -4.3903    1.2252    1.9867 H   0  0  0  0  0  0  0  0  0  0  0  0
   -5.6698   -1.6410    2.0892 H   0  0  0  0  0  0  0  0  0  0  0  0
    4.5175   -0.8426   -1.6111 H   0  0  0  0  0  0  0  0  0  0  0  0
    2.4217    0.8782    2.5328 H   0  0  0  0  0  0  0  0  0  0  0  0
    5.0379    2.2788    2.1903 H   0  0  0  0  0  0  0  0  0  0  0  0
    6.3735    1.1887   -0.4359 H   0  0  0  0  0  0  0  0  0  0  0  0
    0.0811   -2.5072   -2.7959 H   0  0  0  0  0  0  0  0  0  0  0  0
   -2.7123    4.4293   -2.7458 H   0  0  0  0  0  0  0  0  0  0  0  0
   -1.2304    3.5133   -3.1107 H   0  0  0  0  0  0  0  0  0  0  0  0
   -2.8203    2.7249   -3.2476 H   0  0  0  0  0  0  0  0  0  0  0  0
  1  2  1  0  0  0  0
  2  3  2  0  0  0  0
  3  4  1  0  0  0  0
  4  5  1  0  0  0  0
  5  6  2  0  0  0  0
  6  7  1  0  0  0  0
  7  8  2  0  0  0  0
  8  9  1  0  0  0  0
  9 10  2  0  0  0  0
  5 10  1  0  0  0  0
 10 11  1  0  0  0  0
  9 12  1  0  0  0  0
  6 13  1  0  0  0  0
 13 14  2  0  0  0  0
 14 15  1  0  0  0  0
 15 16  2  0  0  0  0
 15 17  1  0  0  0  0
 17 18  2  0  0  0  0
 18 19  1  0  0  0  0
 19 20  2  0  0  0  0
 20 21  1  0  0  0  0
 21 22  2  0  0  0  0
 17 22  1  0  0  0  0
 22 23  1  0  0  0  0
 13 23  1  0  0  0  0
 20 24  1  0  0  0  0
 19 25  1  0  0  0  0
 14 26  1  0  0  0  0
  2 27  1  0  0  0  0
  1 28  1  0  0  0  0
  1 29  1  0  0  0  0
  1 30  1  0  0  0  0
  3 31  1  0  0  0  0
  4 32  1  0  0  0  0
  4 33  1  0  0  0  0
  7 34  1  0  0  0  0
  8 35  1  0  0  0  0
 11 36  1  0  0  0  0
 12 37  1  0  0  0  0
 18 38  1  0  0  0  0
 21 39  1  0  0  0  0
 24 40  1  0  0  0  0
 25 41  1  0  0  0  0
 26 42  1  0  0  0  0
 27 43  1  0  0  0  0
 27 44  1  0  0  0  0
 27 45  1  0  0  0  0
M  END
$$$$
