C19H20O4
APtclcactv06281817043D 0   0.00000     0.00000
 
 43 45  0  0  0  0  0  0  0  0999 V2000
    3.7337   -0.4010   -1.6491 C   0  0  0  0  0  0  0  0  0  0  0  0
    3.7951   -0.2260   -0.1303 C   0  0  0  0  0  0  0  0  0  0  0  0
    3.7616    1.2423    0.2034 C   0  0  0  0  0  0  0  0  0  0  0  0
    2.5937    1.8563    0.3852 C   0  0  0  0  0  0  0  0  0  0  0  0
    1.3589    1.0532    0.2615 C   0  0  0  0  0  0  0  0  0  0  0  0
    1.4637   -0.3384    0.3091 C   0  0  0  0  0  0  0  0  0  0  0  0
    2.6868   -0.8998    0.4677 O   0  0  0  0  0  0  0  0  0  0  0  0
    0.3083   -1.1231    0.1920 C   0  0  0  0  0  0  0  0  0  0  0  0
   -0.9469   -0.5051    0.0301 C   0  0  0  0  0  0  0  0  0  0  0  0
   -1.0322    0.8810   -0.0132 C   0  0  0  0  0  0  0  0  0  0  0  0
    0.1072    1.6590    0.1005 C   0  0  0  0  0  0  0  0  0  0  0  0
    0.0105    3.0116    0.0569 O   0  0  0  0  0  0  0  0  0  0  0  0
   -2.3751    1.5425   -0.1861 C   0  0  0  0  0  0  0  0  0  0  0  0
   -2.7310    2.3144    1.0861 C   0  0  0  0  0  0  0  0  0  0  0  0
   -2.3186    2.5095   -1.3704 C   0  0  0  0  0  0  0  0  0  0  0  0
   -3.4232    0.4912   -0.4456 C   0  0  0  0  0  0  0  0  0  0  0  0
   -4.4376    0.3615    0.3731 C   0  0  0  0  0  0  0  0  0  0  0  0
   -2.0669   -1.2488   -0.0843 O   0  0  0  0  0  0  0  0  0  0  0  0
   -1.9856   -2.5842   -0.0443 C   0  0  0  0  0  0  0  0  0  0  0  0
   -3.0068   -3.2398   -0.1501 O   0  0  0  0  0  0  0  0  0  0  0  0
   -0.7591   -3.2559    0.1154 C   0  0  0  0  0  0  0  0  0  0  0  0
    0.3894   -2.5395    0.2345 C   0  0  0  0  0  0  0  0  0  0  0  0
    5.0960   -0.8349    0.3967 C   0  0  0  0  0  0  0  0  0  0  0  0
    4.5885    0.0967   -2.1070 H   0  0  0  0  0  0  0  0  0  0  0  0
    3.7578   -1.4630   -1.8937 H   0  0  0  0  0  0  0  0  0  0  0  0
    2.8112    0.0384   -2.0285 H   0  0  0  0  0  0  0  0  0  0  0  0
    4.6838    1.7970    0.2948 H   0  0  0  0  0  0  0  0  0  0  0  0
    2.5501    2.9104    0.6159 H   0  0  0  0  0  0  0  0  0  0  0  0
   -0.0405    3.4306    0.9269 H   0  0  0  0  0  0  0  0  0  0  0  0
   -2.0217    3.1299    1.2266 H   0  0  0  0  0  0  0  0  0  0  0  0
   -3.7383    2.7207    0.9947 H   0  0  0  0  0  0  0  0  0  0  0  0
   -2.6866    1.6424    1.9432 H   0  0  0  0  0  0  0  0  0  0  0  0
   -2.0651    1.9596   -2.2767 H   0  0  0  0  0  0  0  0  0  0  0  0
   -3.2900    2.9879   -1.4955 H   0  0  0  0  0  0  0  0  0  0  0  0
   -1.5605    3.2699   -1.1827 H   0  0  0  0  0  0  0  0  0  0  0  0
   -3.3381   -0.1553   -1.3065 H   0  0  0  0  0  0  0  0  0  0  0  0
   -5.1888   -0.3919    0.1872 H   0  0  0  0  0  0  0  0  0  0  0  0
   -4.5228    1.0080    1.2340 H   0  0  0  0  0  0  0  0  0  0  0  0
   -0.7311   -4.3352    0.1438 H   0  0  0  0  0  0  0  0  0  0  0  0
    1.3407   -3.0357    0.3575 H   0  0  0  0  0  0  0  0  0  0  0  0
    5.9458   -0.3305   -0.0633 H   0  0  0  0  0  0  0  0  0  0  0  0
    5.1426   -0.7117    1.4787 H   0  0  0  0  0  0  0  0  0  0  0  0
    5.1264   -1.8962    0.1502 H   0  0  0  0  0  0  0  0  0  0  0  0
  1  2  1  0  0  0  0
  2  3  1  0  0  0  0
  3  4  2  0  0  0  0
  4  5  1  0  0  0  0
  5  6  2  0  0  0  0
  6  7  1  0  0  0  0
  2  7  1  0  0  0  0
  6  8  1  0  0  0  0
  8  9  2  0  0  0  0
  9 10  1  0  0  0  0
 10 11  2  0  0  0  0
  5 11  1  0  0  0  0
 11 12  1  0  0  0  0
 10 13  1  0  0  0  0
 13 14  1  0  0  0  0
 13 15  1  0  0  0  0
 13 16  1  0  0  0  0
 16 17  2  0  0  0  0
  9 18  1  0  0  0  0
 18 19  1  0  0  0  0
 19 20  2  0  0  0  0
 19 21  1  0  0  0  0
 21 22  2  0  0  0  0
  8 22  1  0  0  0  0
  2 23  1  0  0  0  0
  1 24  1  0  0  0  0
  1 25  1  0  0  0  0
  1 26  1  0  0  0  0
  3 27  1  0  0  0  0
  4 28  1  0  0  0  0
 12 29  1  0  0  0  0
 14 30  1  0  0  0  0
 14 31  1  0  0  0  0
 14 32  1  0  0  0  0
 15 33  1  0  0  0  0
 15 34  1  0  0  0  0
 15 35  1  0  0  0  0
 16 36  1  0  0  0  0
 17 37  1  0  0  0  0
 17 38  1  0  0  0  0
 21 39  1  0  0  0  0
 22 40  1  0  0  0  0
 23 41  1  0  0  0  0
 23 42  1  0  0  0  0
 23 43  1  0  0  0  0
M  END
$$$$
