C15H22O3
APtclcactv06281817043D 0   0.00000     0.00000
 
 40 40  0  0  0  0  0  0  0  0999 V2000
    0.1339    2.7321   -1.1254 C   0  0  0  0  0  0  0  0  0  0  0  0
    0.2322    1.9639    0.1940 C   0  0  0  0  0  0  0  0  0  0  0  0
   -0.1374    2.8916    1.3531 C   0  0  0  0  0  0  0  0  0  0  0  0
   -0.7163    0.7931    0.1656 C   0  0  0  0  0  0  0  0  0  0  0  0
   -2.0233    1.0932   -0.1470 C   0  0  0  0  0  0  0  0  0  0  0  0
   -3.1196    0.2184   -0.2478 C   0  0  0  0  0  0  0  0  0  0  0  0
   -4.1898    0.7335   -0.5419 O   0  0  0  0  0  0  0  0  0  0  0  0
   -3.1404   -1.1859   -0.0518 C   0  0  0  0  0  0  0  0  0  0  0  0
   -2.0892   -2.0182    0.2836 C   0  0  0  0  0  0  0  0  0  0  0  0
   -0.7569   -1.6848    0.5111 C   0  0  0  0  0  0  0  0  0  0  0  0
   -0.1512   -0.4469    0.4537 C   0  0  0  0  0  0  0  0  0  0  0  0
    1.3247   -0.4322    0.7577 C   0  0  0  0  0  0  0  0  0  0  0  0
    2.1155   -0.4654   -0.5516 C   0  0  0  0  0  0  0  0  0  0  0  0
    3.6094   -0.5822   -0.2424 C   0  0  0  0  0  0  0  0  0  0  0  0
    4.4083   -0.4901   -1.5439 C   0  0  0  0  0  0  0  0  0  0  0  0
    4.0267    0.5538    0.6937 C   0  0  0  0  0  0  0  0  0  0  0  0
    3.8686   -1.8382    0.3878 O   0  0  0  0  0  0  0  0  0  0  0  0
   -4.3433   -1.7880   -0.2134 O   0  0  0  0  0  0  0  0  0  0  0  0
    0.7555    3.6259   -1.0727 H   0  0  0  0  0  0  0  0  0  0  0  0
    0.4784    2.0975   -1.9419 H   0  0  0  0  0  0  0  0  0  0  0  0
   -0.9025    3.0203   -1.3017 H   0  0  0  0  0  0  0  0  0  0  0  0
    1.2517    1.6024    0.3288 H   0  0  0  0  0  0  0  0  0  0  0  0
   -1.1839    3.1835    1.2654 H   0  0  0  0  0  0  0  0  0  0  0  0
    0.0167    2.3712    2.2984 H   0  0  0  0  0  0  0  0  0  0  0  0
    0.4918    3.7811    1.3214 H   0  0  0  0  0  0  0  0  0  0  0  0
   -2.2337    2.1349   -0.3393 H   0  0  0  0  0  0  0  0  0  0  0  0
   -2.3338   -3.0655    0.3825 H   0  0  0  0  0  0  0  0  0  0  0  0
   -0.1072   -2.5098    0.7634 H   0  0  0  0  0  0  0  0  0  0  0  0
    1.5730    0.4746    1.3093 H   0  0  0  0  0  0  0  0  0  0  0  0
    1.5805   -1.3046    1.3589 H   0  0  0  0  0  0  0  0  0  0  0  0
    1.7993   -1.3230   -1.1454 H   0  0  0  0  0  0  0  0  0  0  0  0
    1.9309    0.4517   -1.1110 H   0  0  0  0  0  0  0  0  0  0  0  0
    4.2106    0.4680   -2.0246 H   0  0  0  0  0  0  0  0  0  0  0  0
    5.4726   -0.5733   -1.3236 H   0  0  0  0  0  0  0  0  0  0  0  0
    4.1110   -1.2994   -2.2108 H   0  0  0  0  0  0  0  0  0  0  0  0
    3.4575    0.4882    1.6210 H   0  0  0  0  0  0  0  0  0  0  0  0
    5.0909    0.4706    0.9140 H   0  0  0  0  0  0  0  0  0  0  0  0
    3.8290    1.5119    0.2130 H   0  0  0  0  0  0  0  0  0  0  0  0
    4.7981   -1.9809    0.6129 H   0  0  0  0  0  0  0  0  0  0  0  0
   -4.3263   -2.7447   -0.0735 H   0  0  0  0  0  0  0  0  0  0  0  0
  1  2  1  0  0  0  0
  2  3  1  0  0  0  0
  2  4  1  0  0  0  0
  4  5  2  0  0  0  0
  5  6  1  0  0  0  0
  6  7  2  0  0  0  0
  6  8  1  0  0  0  0
  8  9  2  0  0  0  0
  9 10  1  0  0  0  0
 10 11  2  0  0  0  0
  4 11  1  0  0  0  0
 11 12  1  0  0  0  0
 12 13  1  0  0  0  0
 13 14  1  0  0  0  0
 14 15  1  0  0  0  0
 14 16  1  0  0  0  0
 14 17  1  0  0  0  0
  8 18  1  0  0  0  0
  1 19  1  0  0  0  0
  1 20  1  0  0  0  0
  1 21  1  0  0  0  0
  2 22  1  0  0  0  0
  3 23  1  0  0  0  0
  3 24  1  0  0  0  0
  3 25  1  0  0  0  0
  5 26  1  0  0  0  0
  9 27  1  0  0  0  0
 10 28  1  0  0  0  0
 12 29  1  0  0  0  0
 12 30  1  0  0  0  0
 13 31  1  0  0  0  0
 13 32  1  0  0  0  0
 15 33  1  0  0  0  0
 15 34  1  0  0  0  0
 15 35  1  0  0  0  0
 16 36  1  0  0  0  0
 16 37  1  0  0  0  0
 16 38  1  0  0  0  0
 17 39  1  0  0  0  0
 18 40  1  0  0  0  0
M  END
$$$$
