C14H14O3
APtclcactv06281817053D 0   0.00000     0.00000
 
 31 32  0  0  0  0  0  0  0  0999 V2000
   -3.1024   -1.5015    0.7936 C   0  0  0  0  0  0  0  0  0  0  0  0
   -3.1145   -0.5007   -0.3330 C   0  0  0  0  0  0  0  0  0  0  0  0
   -2.3921    0.5888   -0.2490 C   0  0  0  0  0  0  0  0  0  0  0  0
   -1.4592    0.7863    0.9179 C   0  0  0  0  0  0  0  0  0  0  0  0
   -0.0705    1.0731    0.4079 C   0  0  0  0  0  0  0  0  0  0  0  0
    0.3262    2.3785    0.1690 C   0  0  0  0  0  0  0  0  0  0  0  0
    1.6084    2.6540   -0.3028 C   0  0  0  0  0  0  0  0  0  0  0  0
    2.4917    1.6404   -0.5361 C   0  0  0  0  0  0  0  0  0  0  0  0
    2.1078    0.3152   -0.3002 C   0  0  0  0  0  0  0  0  0  0  0  0
    0.8164    0.0312    0.1816 C   0  0  0  0  0  0  0  0  0  0  0  0
    0.4501   -1.2484    0.4088 O   0  0  0  0  0  0  0  0  0  0  0  0
    1.2931   -2.2687    0.1854 C   0  0  0  0  0  0  0  0  0  0  0  0
    0.9186   -3.4067    0.4045 O   0  0  0  0  0  0  0  0  0  0  0  0
    2.6010   -2.0568   -0.2968 C   0  0  0  0  0  0  0  0  0  0  0  0
    3.0346   -0.7927   -0.5411 C   0  0  0  0  0  0  0  0  0  0  0  0
   -0.5411    3.3978    0.3958 O   0  0  0  0  0  0  0  0  0  0  0  0
   -3.9576   -0.7534   -1.5563 C   0  0  0  0  0  0  0  0  0  0  0  0
   -3.3665   -1.0023    1.7259 H   0  0  0  0  0  0  0  0  0  0  0  0
   -3.8254   -2.2905    0.5866 H   0  0  0  0  0  0  0  0  0  0  0  0
   -2.1066   -1.9357    0.8833 H   0  0  0  0  0  0  0  0  0  0  0  0
   -2.4651    1.3456   -1.0161 H   0  0  0  0  0  0  0  0  0  0  0  0
   -1.8050    1.6254    1.5216 H   0  0  0  0  0  0  0  0  0  0  0  0
   -1.4431   -0.1174    1.5272 H   0  0  0  0  0  0  0  0  0  0  0  0
    1.9047    3.6764   -0.4853 H   0  0  0  0  0  0  0  0  0  0  0  0
    3.4838    1.8599   -0.9021 H   0  0  0  0  0  0  0  0  0  0  0  0
    3.2579   -2.8969   -0.4676 H   0  0  0  0  0  0  0  0  0  0  0  0
    4.0328   -0.6104   -0.9109 H   0  0  0  0  0  0  0  0  0  0  0  0
   -0.5005    3.7566    1.2928 H   0  0  0  0  0  0  0  0  0  0  0  0
   -4.9493   -0.3257   -1.4088 H   0  0  0  0  0  0  0  0  0  0  0  0
   -3.4874   -0.2900   -2.4237 H   0  0  0  0  0  0  0  0  0  0  0  0
   -4.0459   -1.8272   -1.7213 H   0  0  0  0  0  0  0  0  0  0  0  0
  1  2  1  0  0  0  0
  2  3  2  0  0  0  0
  3  4  1  0  0  0  0
  4  5  1  0  0  0  0
  5  6  2  0  0  0  0
  6  7  1  0  0  0  0
  7  8  2  0  0  0  0
  8  9  1  0  0  0  0
  9 10  2  0  0  0  0
  5 10  1  0  0  0  0
 10 11  1  0  0  0  0
 11 12  1  0  0  0  0
 12 13  2  0  0  0  0
 12 14  1  0  0  0  0
 14 15  2  0  0  0  0
  9 15  1  0  0  0  0
  6 16  1  0  0  0  0
  2 17  1  0  0  0  0
  1 18  1  0  0  0  0
  1 19  1  0  0  0  0
  1 20  1  0  0  0  0
  3 21  1  0  0  0  0
  4 22  1  0  0  0  0
  4 23  1  0  0  0  0
  7 24  1  0  0  0  0
  8 25  1  0  0  0  0
 14 26  1  0  0  0  0
 15 27  1  0  0  0  0
 16 28  1  0  0  0  0
 17 29  1  0  0  0  0
 17 30  1  0  0  0  0
 17 31  1  0  0  0  0
M  END
$$$$
