C16H12O4
APtclcactv06281817053D 0   0.00000     0.00000
 
 32 34  0  0  0  0  0  0  0  0999 V2000
    6.4888   -0.0542    0.5813 C   0  0  0  0  0  0  0  0  0  0  0  0
    5.6266    0.8404   -0.1247 O   0  0  0  0  0  0  0  0  0  0  0  0
    4.2996    0.5539   -0.1147 C   0  0  0  0  0  0  0  0  0  0  0  0
    3.4066    1.3837   -0.7821 C   0  0  0  0  0  0  0  0  0  0  0  0
    2.0596    1.0968   -0.7746 C   0  0  0  0  0  0  0  0  0  0  0  0
    1.5911   -0.0309   -0.0942 C   0  0  0  0  0  0  0  0  0  0  0  0
    2.4929   -0.8627    0.5757 C   0  0  0  0  0  0  0  0  0  0  0  0
    3.8388   -0.5714    0.5582 C   0  0  0  0  0  0  0  0  0  0  0  0
    0.1494   -0.3418   -0.0830 C   0  0  0  0  0  0  0  0  0  0  0  0
   -0.2409   -1.6405   -0.1987 C   0  0  0  0  0  0  0  0  0  0  0  0
   -1.6187   -1.9580   -0.1899 C   0  0  0  0  0  0  0  0  0  0  0  0
   -2.0042   -3.1113   -0.2912 O   0  0  0  0  0  0  0  0  0  0  0  0
   -2.5716   -0.8404   -0.0531 C   0  0  0  0  0  0  0  0  0  0  0  0
   -2.0615    0.4640    0.0598 C   0  0  0  0  0  0  0  0  0  0  0  0
   -0.7273    0.6663    0.0465 O   0  0  0  0  0  0  0  0  0  0  0  0
   -2.9416    1.5286    0.1893 C   0  0  0  0  0  0  0  0  0  0  0  0
   -4.3064    1.2940    0.2058 C   0  0  0  0  0  0  0  0  0  0  0  0
   -4.8033   -0.0026    0.0933 C   0  0  0  0  0  0  0  0  0  0  0  0
   -3.9490   -1.0607   -0.0353 C   0  0  0  0  0  0  0  0  0  0  0  0
   -5.1671    2.3361    0.3330 O   0  0  0  0  0  0  0  0  0  0  0  0
    6.2027   -0.0804    1.6328 H   0  0  0  0  0  0  0  0  0  0  0  0
    6.4018   -1.0540    0.1561 H   0  0  0  0  0  0  0  0  0  0  0  0
    7.5194    0.2896    0.4936 H   0  0  0  0  0  0  0  0  0  0  0  0
    3.7694    2.2549   -1.3072 H   0  0  0  0  0  0  0  0  0  0  0  0
    1.3663    1.7423   -1.2932 H   0  0  0  0  0  0  0  0  0  0  0  0
    2.1351   -1.7349    1.1026 H   0  0  0  0  0  0  0  0  0  0  0  0
    4.5363   -1.2135    1.0756 H   0  0  0  0  0  0  0  0  0  0  0  0
    0.4968   -2.4232   -0.2970 H   0  0  0  0  0  0  0  0  0  0  0  0
   -2.5637    2.5366    0.2774 H   0  0  0  0  0  0  0  0  0  0  0  0
   -5.8698   -0.1721    0.1079 H   0  0  0  0  0  0  0  0  0  0  0  0
   -4.3385   -2.0643   -0.1222 H   0  0  0  0  0  0  0  0  0  0  0  0
   -5.4419    2.7243   -0.5090 H   0  0  0  0  0  0  0  0  0  0  0  0
  1  2  1  0  0  0  0
  2  3  1  0  0  0  0
  3  4  2  0  0  0  0
  4  5  1  0  0  0  0
  5  6  2  0  0  0  0
  6  7  1  0  0  0  0
  7  8  2  0  0  0  0
  3  8  1  0  0  0  0
  6  9  1  0  0  0  0
  9 10  2  0  0  0  0
 10 11  1  0  0  0  0
 11 12  2  0  0  0  0
 11 13  1  0  0  0  0
 13 14  2  0  0  0  0
 14 15  1  0  0  0  0
  9 15  1  0  0  0  0
 14 16  1  0  0  0  0
 16 17  2  0  0  0  0
 17 18  1  0  0  0  0
 18 19  2  0  0  0  0
 13 19  1  0  0  0  0
 17 20  1  0  0  0  0
  1 21  1  0  0  0  0
  1 22  1  0  0  0  0
  1 23  1  0  0  0  0
  4 24  1  0  0  0  0
  5 25  1  0  0  0  0
  7 26  1  0  0  0  0
  8 27  1  0  0  0  0
 10 28  1  0  0  0  0
 16 29  1  0  0  0  0
 18 30  1  0  0  0  0
 19 31  1  0  0  0  0
 20 32  1  0  0  0  0
M  END
$$$$
