C20H20O8
APtclcactv06281817053D 0   0.00000     0.00000
 
 48 50  0  0  0  0  0  0  0  0999 V2000
    6.8992    0.3418   -1.4399 C   0  0  0  0  0  0  0  0  0  0  0  0
    6.1720   -0.5232   -0.5653 O   0  0  0  0  0  0  0  0  0  0  0  0
    4.8350   -0.3069   -0.4551 C   0  0  0  0  0  0  0  0  0  0  0  0
    4.0668   -1.1149    0.3811 C   0  0  0  0  0  0  0  0  0  0  0  0
    2.7071   -0.8965    0.4946 C   0  0  0  0  0  0  0  0  0  0  0  0
    2.1055    0.1360   -0.2304 C   0  0  0  0  0  0  0  0  0  0  0  0
    2.8824    0.9427   -1.0667 C   0  0  0  0  0  0  0  0  0  0  0  0
    4.2389    0.7219   -1.1711 C   0  0  0  0  0  0  0  0  0  0  0  0
    0.6549    0.3735   -0.1136 C   0  0  0  0  0  0  0  0  0  0  0  0
    0.2126    1.6466    0.0875 C   0  0  0  0  0  0  0  0  0  0  0  0
   -1.1800    1.8918    0.2020 C   0  0  0  0  0  0  0  0  0  0  0  0
   -1.6127    3.0190    0.3821 O   0  0  0  0  0  0  0  0  0  0  0  0
   -2.0828    0.7345    0.0947 C   0  0  0  0  0  0  0  0  0  0  0  0
   -3.4714    0.8853    0.1953 C   0  0  0  0  0  0  0  0  0  0  0  0
   -4.2878   -0.2290    0.0885 C   0  0  0  0  0  0  0  0  0  0  0  0
   -3.7277   -1.4884   -0.1175 C   0  0  0  0  0  0  0  0  0  0  0  0
   -2.3541   -1.6421   -0.2172 C   0  0  0  0  0  0  0  0  0  0  0  0
   -1.5217   -0.5382   -0.1133 C   0  0  0  0  0  0  0  0  0  0  0  0
   -0.1822   -0.6730   -0.2149 O   0  0  0  0  0  0  0  0  0  0  0  0
   -4.5357   -2.5755   -0.2210 O   0  0  0  0  0  0  0  0  0  0  0  0
   -3.9007   -3.8381   -0.4318 C   0  0  0  0  0  0  0  0  0  0  0  0
   -5.6391   -0.0935    0.1854 O   0  0  0  0  0  0  0  0  0  0  0  0
   -6.3558    0.1452   -1.0277 C   0  0  0  0  0  0  0  0  0  0  0  0
   -4.0136    2.1144    0.3966 O   0  0  0  0  0  0  0  0  0  0  0  0
    1.0998    2.6746    0.1783 O   0  0  0  0  0  0  0  0  0  0  0  0
    1.1977    3.3374    1.4405 C   0  0  0  0  0  0  0  0  0  0  0  0
    4.6553   -2.1187    1.0851 O   0  0  0  0  0  0  0  0  0  0  0  0
    3.8075   -2.9074    1.9225 C   0  0  0  0  0  0  0  0  0  0  0  0
    7.9524    0.0611   -1.4354 H   0  0  0  0  0  0  0  0  0  0  0  0
    6.5035    0.2518   -2.4516 H   0  0  0  0  0  0  0  0  0  0  0  0
    6.7963    1.3723   -1.0999 H   0  0  0  0  0  0  0  0  0  0  0  0
    2.1105   -1.5225    1.1417 H   0  0  0  0  0  0  0  0  0  0  0  0
    2.4204    1.7413   -1.6281 H   0  0  0  0  0  0  0  0  0  0  0  0
    4.8382    1.3461   -1.8173 H   0  0  0  0  0  0  0  0  0  0  0  0
   -1.9314   -2.6232   -0.3762 H   0  0  0  0  0  0  0  0  0  0  0  0
   -4.6579   -4.6195   -0.4961 H   0  0  0  0  0  0  0  0  0  0  0  0
   -3.3304   -3.8076   -1.3602 H   0  0  0  0  0  0  0  0  0  0  0  0
   -3.2292   -4.0505    0.4002 H   0  0  0  0  0  0  0  0  0  0  0  0
   -6.0007    1.0693   -1.4837 H   0  0  0  0  0  0  0  0  0  0  0  0
   -6.1932   -0.6850   -1.7150 H   0  0  0  0  0  0  0  0  0  0  0  0
   -7.4201    0.2332   -0.8095 H   0  0  0  0  0  0  0  0  0  0  0  0
   -4.2208    2.5911   -0.4188 H   0  0  0  0  0  0  0  0  0  0  0  0
    0.2112    3.6872    1.7447 H   0  0  0  0  0  0  0  0  0  0  0  0
    1.5830    2.6427    2.1868 H   0  0  0  0  0  0  0  0  0  0  0  0
    1.8737    4.1880    1.3527 H   0  0  0  0  0  0  0  0  0  0  0  0
    3.0404   -3.3868    1.3144 H   0  0  0  0  0  0  0  0  0  0  0  0
    4.4017   -3.6702    2.4256 H   0  0  0  0  0  0  0  0  0  0  0  0
    3.3338   -2.2667    2.6663 H   0  0  0  0  0  0  0  0  0  0  0  0
  1  2  1  0  0  0  0
  2  3  1  0  0  0  0
  3  4  2  0  0  0  0
  4  5  1  0  0  0  0
  5  6  2  0  0  0  0
  6  7  1  0  0  0  0
  7  8  2  0  0  0  0
  3  8  1  0  0  0  0
  6  9  1  0  0  0  0
  9 10  2  0  0  0  0
 10 11  1  0  0  0  0
 11 12  2  0  0  0  0
 11 13  1  0  0  0  0
 13 14  2  0  0  0  0
 14 15  1  0  0  0  0
 15 16  2  0  0  0  0
 16 17  1  0  0  0  0
 17 18  2  0  0  0  0
 13 18  1  0  0  0  0
 18 19  1  0  0  0  0
  9 19  1  0  0  0  0
 16 20  1  0  0  0  0
 20 21  1  0  0  0  0
 15 22  1  0  0  0  0
 22 23  1  0  0  0  0
 14 24  1  0  0  0  0
 10 25  1  0  0  0  0
 25 26  1  0  0  0  0
  4 27  1  0  0  0  0
 27 28  1  0  0  0  0
  1 29  1  0  0  0  0
  1 30  1  0  0  0  0
  1 31  1  0  0  0  0
  5 32  1  0  0  0  0
  7 33  1  0  0  0  0
  8 34  1  0  0  0  0
 17 35  1  0  0  0  0
 21 36  1  0  0  0  0
 21 37  1  0  0  0  0
 21 38  1  0  0  0  0
 23 39  1  0  0  0  0
 23 40  1  0  0  0  0
 23 41  1  0  0  0  0
 24 42  1  0  0  0  0
 26 43  1  0  0  0  0
 26 44  1  0  0  0  0
 26 45  1  0  0  0  0
 28 46  1  0  0  0  0
 28 47  1  0  0  0  0
 28 48  1  0  0  0  0
M  END
$$$$
