C15H14O4
APtclcactv06281817053D 0   0.00000     0.00000
 
 33 34  0  0  0  0  0  0  0  0999 V2000
    5.9313    1.7883   -0.0118 C   0  0  0  0  0  0  0  0  0  0  0  0
    5.5008    0.4257   -0.0146 O   0  0  0  0  0  0  0  0  0  0  0  0
    4.1598    0.2022   -0.0104 C   0  0  0  0  0  0  0  0  0  0  0  0
    3.6731   -1.1032   -0.0129 C   0  0  0  0  0  0  0  0  0  0  0  0
    2.3101   -1.3329   -0.0086 C   0  0  0  0  0  0  0  0  0  0  0  0
    1.4229   -0.2529   -0.0019 C   0  0  0  0  0  0  0  0  0  0  0  0
    1.9186    1.0539    0.0005 C   0  0  0  0  0  0  0  0  0  0  0  0
    3.2797    1.2746    0.0020 C   0  0  0  0  0  0  0  0  0  0  0  0
   -0.0310   -0.4914    0.0022 C   0  0  0  0  0  0  0  0  0  0  0  0
   -0.8818    0.5474    0.0087 C   0  0  0  0  0  0  0  0  0  0  0  0
   -2.3362    0.3089    0.0127 C   0  0  0  0  0  0  0  0  0  0  0  0
   -3.2233    1.3879    0.0195 C   0  0  0  0  0  0  0  0  0  0  0  0
   -4.5888    1.1586    0.0233 C   0  0  0  0  0  0  0  0  0  0  0  0
   -5.0765   -0.1406    0.0205 C   0  0  0  0  0  0  0  0  0  0  0  0
   -4.1993   -1.2159    0.0138 C   0  0  0  0  0  0  0  0  0  0  0  0
   -2.8321   -0.9969    0.0041 C   0  0  0  0  0  0  0  0  0  0  0  0
   -4.6831   -2.4859    0.0110 O   0  0  0  0  0  0  0  0  0  0  0  0
   -5.4528    2.2075    0.0303 O   0  0  0  0  0  0  0  0  0  0  0  0
    4.5392   -2.1517   -0.0199 O   0  0  0  0  0  0  0  0  0  0  0  0
    5.5476    2.2924   -0.8988 H   0  0  0  0  0  0  0  0  0  0  0  0
    5.5541    2.2867    0.8812 H   0  0  0  0  0  0  0  0  0  0  0  0
    7.0207    1.8251   -0.0157 H   0  0  0  0  0  0  0  0  0  0  0  0
    1.9316   -2.3444   -0.0109 H   0  0  0  0  0  0  0  0  0  0  0  0
    1.2358    1.8906    0.0058 H   0  0  0  0  0  0  0  0  0  0  0  0
    3.6616    2.2848    0.0042 H   0  0  0  0  0  0  0  0  0  0  0  0
   -0.4125   -1.5018   -0.0001 H   0  0  0  0  0  0  0  0  0  0  0  0
   -0.5003    1.5578    0.0109 H   0  0  0  0  0  0  0  0  0  0  0  0
   -2.8447    2.3993    0.0220 H   0  0  0  0  0  0  0  0  0  0  0  0
   -6.1422   -0.3154    0.0239 H   0  0  0  0  0  0  0  0  0  0  0  0
   -2.1503   -1.8344   -0.0011 H   0  0  0  0  0  0  0  0  0  0  0  0
   -4.8260   -2.8504   -0.8731 H   0  0  0  0  0  0  0  0  0  0  0  0
   -5.7060    2.5145   -0.8510 H   0  0  0  0  0  0  0  0  0  0  0  0
    4.7932   -2.4579    0.8615 H   0  0  0  0  0  0  0  0  0  0  0  0
  1  2  1  0  0  0  0
  2  3  1  0  0  0  0
  3  4  2  0  0  0  0
  4  5  1  0  0  0  0
  5  6  2  0  0  0  0
  6  7  1  0  0  0  0
  7  8  2  0  0  0  0
  3  8  1  0  0  0  0
  6  9  1  0  0  0  0
  9 10  2  0  0  0  0
 10 11  1  0  0  0  0
 11 12  2  0  0  0  0
 12 13  1  0  0  0  0
 13 14  2  0  0  0  0
 14 15  1  0  0  0  0
 15 16  2  0  0  0  0
 11 16  1  0  0  0  0
 15 17  1  0  0  0  0
 13 18  1  0  0  0  0
  4 19  1  0  0  0  0
  1 20  1  0  0  0  0
  1 21  1  0  0  0  0
  1 22  1  0  0  0  0
  5 23  1  0  0  0  0
  7 24  1  0  0  0  0
  8 25  1  0  0  0  0
  9 26  1  0  0  0  0
 10 27  1  0  0  0  0
 12 28  1  0  0  0  0
 14 29  1  0  0  0  0
 16 30  1  0  0  0  0
 17 31  1  0  0  0  0
 18 32  1  0  0  0  0
 19 33  1  0  0  0  0
M  END
$$$$
