C17H14O6
APtclcactv06281817053D 0   0.00000     0.00000
 
 37 39  0  0  0  0  0  0  0  0999 V2000
    7.3141   -0.2233    0.7292 C   0  0  0  0  0  0  0  0  0  0  0  0
    6.5149    0.6969   -0.0167 O   0  0  0  0  0  0  0  0  0  0  0  0
    5.1766    0.4700   -0.0434 C   0  0  0  0  0  0  0  0  0  0  0  0
    4.3425    1.3274   -0.7507 C   0  0  0  0  0  0  0  0  0  0  0  0
    2.9843    1.1010   -0.7804 C   0  0  0  0  0  0  0  0  0  0  0  0
    2.4452    0.0069   -0.0978 C   0  0  0  0  0  0  0  0  0  0  0  0
    3.2878   -0.8529    0.6123 C   0  0  0  0  0  0  0  0  0  0  0  0
    4.6455   -0.6222    0.6320 C   0  0  0  0  0  0  0  0  0  0  0  0
    0.9911   -0.2394   -0.1264 C   0  0  0  0  0  0  0  0  0  0  0  0
    0.5466   -1.5206   -0.2342 C   0  0  0  0  0  0  0  0  0  0  0  0
   -0.8446   -1.7764   -0.2627 C   0  0  0  0  0  0  0  0  0  0  0  0
   -1.2783   -2.9133   -0.3582 O   0  0  0  0  0  0  0  0  0  0  0  0
   -1.7491   -0.6176   -0.1722 C   0  0  0  0  0  0  0  0  0  0  0  0
   -3.1394   -0.7781   -0.1923 C   0  0  0  0  0  0  0  0  0  0  0  0
   -3.9562    0.3380   -0.1045 C   0  0  0  0  0  0  0  0  0  0  0  0
   -3.3937    1.6084    0.0030 C   0  0  0  0  0  0  0  0  0  0  0  0
   -2.0175    1.7713    0.0228 C   0  0  0  0  0  0  0  0  0  0  0  0
   -1.1857    0.6660   -0.0636 C   0  0  0  0  0  0  0  0  0  0  0  0
    0.1571    0.8088   -0.0395 O   0  0  0  0  0  0  0  0  0  0  0  0
   -4.2016    2.6970    0.0886 O   0  0  0  0  0  0  0  0  0  0  0  0
   -5.3098    0.1932   -0.1236 O   0  0  0  0  0  0  0  0  0  0  0  0
   -5.9615    0.0193    1.1362 C   0  0  0  0  0  0  0  0  0  0  0  0
   -3.6838   -2.0181   -0.2976 O   0  0  0  0  0  0  0  0  0  0  0  0
    6.9956   -0.2192    1.7716 H   0  0  0  0  0  0  0  0  0  0  0  0
    7.1951   -1.2252    0.3169 H   0  0  0  0  0  0  0  0  0  0  0  0
    8.3614    0.0727    0.6682 H   0  0  0  0  0  0  0  0  0  0  0  0
    4.7598    2.1728   -1.2776 H   0  0  0  0  0  0  0  0  0  0  0  0
    2.3367    1.7680   -1.3301 H   0  0  0  0  0  0  0  0  0  0  0  0
    2.8753   -1.6995    1.1412 H   0  0  0  0  0  0  0  0  0  0  0  0
    5.2973   -1.2863    1.1802 H   0  0  0  0  0  0  0  0  0  0  0  0
    1.2509   -2.3368   -0.2979 H   0  0  0  0  0  0  0  0  0  0  0  0
   -1.5927    2.7607    0.1061 H   0  0  0  0  0  0  0  0  0  0  0  0
   -4.4399    2.9397    0.9938 H   0  0  0  0  0  0  0  0  0  0  0  0
   -5.5779   -0.8772    1.6231 H   0  0  0  0  0  0  0  0  0  0  0  0
   -5.7687    0.8865    1.7678 H   0  0  0  0  0  0  0  0  0  0  0  0
   -7.0351   -0.0839    0.9787 H   0  0  0  0  0  0  0  0  0  0  0  0
   -3.8458   -2.4500    0.5523 H   0  0  0  0  0  0  0  0  0  0  0  0
  1  2  1  0  0  0  0
  2  3  1  0  0  0  0
  3  4  2  0  0  0  0
  4  5  1  0  0  0  0
  5  6  2  0  0  0  0
  6  7  1  0  0  0  0
  7  8  2  0  0  0  0
  3  8  1  0  0  0  0
  6  9  1  0  0  0  0
  9 10  2  0  0  0  0
 10 11  1  0  0  0  0
 11 12  2  0  0  0  0
 11 13  1  0  0  0  0
 13 14  2  0  0  0  0
 14 15  1  0  0  0  0
 15 16  2  0  0  0  0
 16 17  1  0  0  0  0
 17 18  2  0  0  0  0
 13 18  1  0  0  0  0
 18 19  1  0  0  0  0
  9 19  1  0  0  0  0
 16 20  1  0  0  0  0
 15 21  1  0  0  0  0
 21 22  1  0  0  0  0
 14 23  1  0  0  0  0
  1 24  1  0  0  0  0
  1 25  1  0  0  0  0
  1 26  1  0  0  0  0
  4 27  1  0  0  0  0
  5 28  1  0  0  0  0
  7 29  1  0  0  0  0
  8 30  1  0  0  0  0
 10 31  1  0  0  0  0
 17 32  1  0  0  0  0
 20 33  1  0  0  0  0
 22 34  1  0  0  0  0
 22 35  1  0  0  0  0
 22 36  1  0  0  0  0
 23 37  1  0  0  0  0
M  END
$$$$
