C16H12O7
APtclcactv06281817043D 0   0.00000     0.00000
 
 35 37  0  0  0  0  0  0  0  0999 V2000
    3.9845    2.7672    1.2361 C   0  0  0  0  0  0  0  0  0  0  0  0
    4.7672    1.7214    0.6568 O   0  0  0  0  0  0  0  0  0  0  0  0
    4.0966    0.6332    0.1923 C   0  0  0  0  0  0  0  0  0  0  0  0
    4.7983   -0.4239   -0.3849 C   0  0  0  0  0  0  0  0  0  0  0  0
    4.1172   -1.5361   -0.8600 C   0  0  0  0  0  0  0  0  0  0  0  0
    2.7439   -1.6007   -0.7629 C   0  0  0  0  0  0  0  0  0  0  0  0
    2.0340   -0.5448   -0.1849 C   0  0  0  0  0  0  0  0  0  0  0  0
    2.7203    0.5730    0.2978 C   0  0  0  0  0  0  0  0  0  0  0  0
    0.5641   -0.6118   -0.0804 C   0  0  0  0  0  0  0  0  0  0  0  0
   -0.0145   -1.7966    0.2543 C   0  0  0  0  0  0  0  0  0  0  0  0
   -1.4229   -1.8801    0.3598 C   0  0  0  0  0  0  0  0  0  0  0  0
   -1.9753   -2.9267    0.6584 O   0  0  0  0  0  0  0  0  0  0  0  0
   -2.1964   -0.6548    0.0959 C   0  0  0  0  0  0  0  0  0  0  0  0
   -3.5936   -0.6463    0.1780 C   0  0  0  0  0  0  0  0  0  0  0  0
   -4.2846    0.5276   -0.0774 C   0  0  0  0  0  0  0  0  0  0  0  0
   -3.5901    1.6879   -0.4134 C   0  0  0  0  0  0  0  0  0  0  0  0
   -2.2066    1.6832   -0.4961 C   0  0  0  0  0  0  0  0  0  0  0  0
   -1.4995    0.5183   -0.2429 C   0  0  0  0  0  0  0  0  0  0  0  0
   -0.1509    0.5000   -0.3138 O   0  0  0  0  0  0  0  0  0  0  0  0
   -4.2753    2.8341   -0.6626 O   0  0  0  0  0  0  0  0  0  0  0  0
   -5.6438    0.5470   -0.0003 O   0  0  0  0  0  0  0  0  0  0  0  0
   -4.2671   -1.7797    0.5050 O   0  0  0  0  0  0  0  0  0  0  0  0
    6.1519   -0.3652   -0.4831 O   0  0  0  0  0  0  0  0  0  0  0  0
    4.6410    3.5728    1.5650 H   0  0  0  0  0  0  0  0  0  0  0  0
    3.2834    3.1498    0.4944 H   0  0  0  0  0  0  0  0  0  0  0  0
    3.4321    2.3768    2.0908 H   0  0  0  0  0  0  0  0  0  0  0  0
    4.6646   -2.3527   -1.3072 H   0  0  0  0  0  0  0  0  0  0  0  0
    2.2165   -2.4671   -1.1337 H   0  0  0  0  0  0  0  0  0  0  0  0
    2.1755    1.3910    0.7455 H   0  0  0  0  0  0  0  0  0  0  0  0
    0.5970   -2.6677    0.4378 H   0  0  0  0  0  0  0  0  0  0  0  0
   -1.6788    2.5883   -0.7581 H   0  0  0  0  0  0  0  0  0  0  0  0
   -4.4221    3.3826    0.1201 H   0  0  0  0  0  0  0  0  0  0  0  0
   -5.9849    0.7689    0.8769 H   0  0  0  0  0  0  0  0  0  0  0  0
   -4.4105   -1.8918    1.4547 H   0  0  0  0  0  0  0  0  0  0  0  0
    6.6180   -0.7317    0.2809 H   0  0  0  0  0  0  0  0  0  0  0  0
  1  2  1  0  0  0  0
  2  3  1  0  0  0  0
  3  4  2  0  0  0  0
  4  5  1  0  0  0  0
  5  6  2  0  0  0  0
  6  7  1  0  0  0  0
  7  8  2  0  0  0  0
  3  8  1  0  0  0  0
  7  9  1  0  0  0  0
  9 10  2  0  0  0  0
 10 11  1  0  0  0  0
 11 12  2  0  0  0  0
 11 13  1  0  0  0  0
 13 14  2  0  0  0  0
 14 15  1  0  0  0  0
 15 16  2  0  0  0  0
 16 17  1  0  0  0  0
 17 18  2  0  0  0  0
 13 18  1  0  0  0  0
 18 19  1  0  0  0  0
  9 19  1  0  0  0  0
 16 20  1  0  0  0  0
 15 21  1  0  0  0  0
 14 22  1  0  0  0  0
  4 23  1  0  0  0  0
  1 24  1  0  0  0  0
  1 25  1  0  0  0  0
  1 26  1  0  0  0  0
  5 27  1  0  0  0  0
  6 28  1  0  0  0  0
  8 29  1  0  0  0  0
 10 30  1  0  0  0  0
 17 31  1  0  0  0  0
 20 32  1  0  0  0  0
 21 33  1  0  0  0  0
 22 34  1  0  0  0  0
 23 35  1  0  0  0  0
M  END
$$$$
