C17H14O7
APtclcactv06281817053D 0   0.00000     0.00000
 
 38 40  0  0  0  0  0  0  0  0999 V2000
   -6.3548   -1.9945   -0.7953 C   0  0  0  0  0  0  0  0  0  0  0  0
   -5.9046   -0.9000    0.0057 O   0  0  0  0  0  0  0  0  0  0  0  0
   -4.5737   -0.6270   -0.0147 C   0  0  0  0  0  0  0  0  0  0  0  0
   -4.0687    0.4273    0.7440 C   0  0  0  0  0  0  0  0  0  0  0  0
   -2.7156    0.7066    0.7246 C   0  0  0  0  0  0  0  0  0  0  0  0
   -1.8561   -0.0705   -0.0572 C   0  0  0  0  0  0  0  0  0  0  0  0
   -2.3697   -1.1263   -0.8155 C   0  0  0  0  0  0  0  0  0  0  0  0
   -3.7198   -1.4024   -0.7867 C   0  0  0  0  0  0  0  0  0  0  0  0
   -0.4113    0.2231   -0.0822 C   0  0  0  0  0  0  0  0  0  0  0  0
   -0.0068    1.5122   -0.2583 C   0  0  0  0  0  0  0  0  0  0  0  0
    1.3801    1.8113   -0.2842 C   0  0  0  0  0  0  0  0  0  0  0  0
    1.7795    2.9543   -0.4395 O   0  0  0  0  0  0  0  0  0  0  0  0
    2.3179    0.6898   -0.1161 C   0  0  0  0  0  0  0  0  0  0  0  0
    3.7039    0.8933   -0.1280 C   0  0  0  0  0  0  0  0  0  0  0  0
    4.5521   -0.1864    0.0336 C   0  0  0  0  0  0  0  0  0  0  0  0
    4.0314   -1.4643    0.2063 C   0  0  0  0  0  0  0  0  0  0  0  0
    2.6611   -1.6733    0.2187 C   0  0  0  0  0  0  0  0  0  0  0  0
    1.7942   -0.6033    0.0592 C   0  0  0  0  0  0  0  0  0  0  0  0
    0.4578   -0.7901    0.0750 O   0  0  0  0  0  0  0  0  0  0  0  0
    4.8735   -2.5175    0.3637 O   0  0  0  0  0  0  0  0  0  0  0  0
    6.2745   -2.2370    0.3411 C   0  0  0  0  0  0  0  0  0  0  0  0
    4.2102    2.1410   -0.2975 O   0  0  0  0  0  0  0  0  0  0  0  0
   -0.9255    2.5050   -0.4085 O   0  0  0  0  0  0  0  0  0  0  0  0
   -4.9078    1.1817    1.5032 O   0  0  0  0  0  0  0  0  0  0  0  0
   -5.8628   -2.9105   -0.4682 H   0  0  0  0  0  0  0  0  0  0  0  0
   -7.4340   -2.1034   -0.6881 H   0  0  0  0  0  0  0  0  0  0  0  0
   -6.1108   -1.8043   -1.8405 H   0  0  0  0  0  0  0  0  0  0  0  0
   -2.3230    1.5236    1.3118 H   0  0  0  0  0  0  0  0  0  0  0  0
   -1.7081   -1.7283   -1.4208 H   0  0  0  0  0  0  0  0  0  0  0  0
   -4.1154   -2.2187   -1.3728 H   0  0  0  0  0  0  0  0  0  0  0  0
    5.6217   -0.0372    0.0255 H   0  0  0  0  0  0  0  0  0  0  0  0
    2.2686   -2.6704    0.3532 H   0  0  0  0  0  0  0  0  0  0  0  0
    6.5402   -1.7903   -0.6170 H   0  0  0  0  0  0  0  0  0  0  0  0
    6.5192   -1.5436    1.1457 H   0  0  0  0  0  0  0  0  0  0  0  0
    6.8327   -3.1633    0.4774 H   0  0  0  0  0  0  0  0  0  0  0  0
    4.3464    2.6257    0.5281 H   0  0  0  0  0  0  0  0  0  0  0  0
   -0.5394    3.3835   -0.5272 H   0  0  0  0  0  0  0  0  0  0  0  0
   -5.0277    0.8509    2.4039 H   0  0  0  0  0  0  0  0  0  0  0  0
  1  2  1  0  0  0  0
  2  3  1  0  0  0  0
  3  4  2  0  0  0  0
  4  5  1  0  0  0  0
  5  6  2  0  0  0  0
  6  7  1  0  0  0  0
  7  8  2  0  0  0  0
  3  8  1  0  0  0  0
  6  9  1  0  0  0  0
  9 10  2  0  0  0  0
 10 11  1  0  0  0  0
 11 12  2  0  0  0  0
 11 13  1  0  0  0  0
 13 14  2  0  0  0  0
 14 15  1  0  0  0  0
 15 16  2  0  0  0  0
 16 17  1  0  0  0  0
 17 18  2  0  0  0  0
 13 18  1  0  0  0  0
 18 19  1  0  0  0  0
  9 19  1  0  0  0  0
 16 20  1  0  0  0  0
 20 21  1  0  0  0  0
 14 22  1  0  0  0  0
 10 23  1  0  0  0  0
  4 24  1  0  0  0  0
  1 25  1  0  0  0  0
  1 26  1  0  0  0  0
  1 27  1  0  0  0  0
  5 28  1  0  0  0  0
  7 29  1  0  0  0  0
  8 30  1  0  0  0  0
 15 31  1  0  0  0  0
 17 32  1  0  0  0  0
 21 33  1  0  0  0  0
 21 34  1  0  0  0  0
 21 35  1  0  0  0  0
 22 36  1  0  0  0  0
 23 37  1  0  0  0  0
 24 38  1  0  0  0  0
M  END
$$$$
