C19H21NO4
APtclcactv06281817043D 0   0.00000     0.00000
 
 45 48  0  0  0  0  0  0  0  0999 V2000
    5.7033   -0.2880   -0.3595 C   0  0  0  0  0  0  0  0  0  0  0  0
    4.3792   -0.8177   -0.4514 O   0  0  0  0  0  0  0  0  0  0  0  0
    3.3534    0.0348   -0.1858 C   0  0  0  0  0  0  0  0  0  0  0  0
    2.0390   -0.4139   -0.2564 C   0  0  0  0  0  0  0  0  0  0  0  0
    0.9947    0.4662    0.0182 C   0  0  0  0  0  0  0  0  0  0  0  0
    1.2707    1.7858    0.3767 C   0  0  0  0  0  0  0  0  0  0  0  0
    0.1387    2.7199    0.7084 C   0  0  0  0  0  0  0  0  0  0  0  0
   -1.0723    2.4335   -0.1765 C   0  0  0  0  0  0  0  0  0  0  0  0
   -1.4357    0.9720   -0.1283 C   0  0  0  0  0  0  0  0  0  0  0  0
   -0.4171    0.0206   -0.0452 C   0  0  0  0  0  0  0  0  0  0  0  0
   -0.7250   -1.3391   -0.0067 C   0  0  0  0  0  0  0  0  0  0  0  0
   -2.0558   -1.7385   -0.0418 C   0  0  0  0  0  0  0  0  0  0  0  0
   -3.0574   -0.7879   -0.1254 C   0  0  0  0  0  0  0  0  0  0  0  0
   -2.7518    0.5669   -0.1800 C   0  0  0  0  0  0  0  0  0  0  0  0
   -3.8864    1.5422   -0.3185 C   0  0  0  0  0  0  0  0  0  0  0  0
   -3.4019    2.9690   -0.5150 C   0  0  0  0  0  0  0  0  0  0  0  0
   -2.2122    3.2312    0.2977 N   0  0  0  0  0  0  0  0  0  0  0  0
   -2.3725   -3.0602    0.0054 O   0  0  0  0  0  0  0  0  0  0  0  0
   -3.7607   -3.3966   -0.0348 C   0  0  0  0  0  0  0  0  0  0  0  0
    0.2676   -2.2656    0.0641 O   0  0  0  0  0  0  0  0  0  0  0  0
    0.5912   -2.7718    1.3607 C   0  0  0  0  0  0  0  0  0  0  0  0
    2.5781    2.2228    0.4359 C   0  0  0  0  0  0  0  0  0  0  0  0
    3.6168    1.3510    0.1614 C   0  0  0  0  0  0  0  0  0  0  0  0
    1.7746   -1.7046   -0.5921 O   0  0  0  0  0  0  0  0  0  0  0  0
    5.8796    0.0760    0.6527 H   0  0  0  0  0  0  0  0  0  0  0  0
    6.4247   -1.0704   -0.5950 H   0  0  0  0  0  0  0  0  0  0  0  0
    5.8155    0.5343   -1.0660 H   0  0  0  0  0  0  0  0  0  0  0  0
   -0.1410    2.5885    1.7536 H   0  0  0  0  0  0  0  0  0  0  0  0
    0.4636    3.7483    0.5507 H   0  0  0  0  0  0  0  0  0  0  0  0
   -0.8438    2.7154   -1.2043 H   0  0  0  0  0  0  0  0  0  0  0  0
   -4.0902   -1.1027   -0.1489 H   0  0  0  0  0  0  0  0  0  0  0  0
   -4.4961    1.2552   -1.1752 H   0  0  0  0  0  0  0  0  0  0  0  0
   -4.5012    1.4987    0.5805 H   0  0  0  0  0  0  0  0  0  0  0  0
   -3.1592    3.1238   -1.5663 H   0  0  0  0  0  0  0  0  0  0  0  0
   -4.1937    3.6598   -0.2250 H   0  0  0  0  0  0  0  0  0  0  0  0
   -2.3954    3.0553    1.2742 H   0  0  0  0  0  0  0  0  0  0  0  0
   -3.8736   -4.4798    0.0097 H   0  0  0  0  0  0  0  0  0  0  0  0
   -4.2693   -2.9430    0.8159 H   0  0  0  0  0  0  0  0  0  0  0  0
   -4.1983   -3.0235   -0.9608 H   0  0  0  0  0  0  0  0  0  0  0  0
    1.4192   -3.4760    1.2795 H   0  0  0  0  0  0  0  0  0  0  0  0
    0.8789   -1.9462    2.0117 H   0  0  0  0  0  0  0  0  0  0  0  0
   -0.2776   -3.2793    1.7799 H   0  0  0  0  0  0  0  0  0  0  0  0
    2.7916    3.2477    0.7012 H   0  0  0  0  0  0  0  0  0  0  0  0
    4.6378    1.6997    0.2099 H   0  0  0  0  0  0  0  0  0  0  0  0
    1.7495   -1.8659   -1.5453 H   0  0  0  0  0  0  0  0  0  0  0  0
  1  2  1  0  0  0  0
  2  3  1  0  0  0  0
  3  4  2  0  0  0  0
  4  5  1  0  0  0  0
  5  6  2  0  0  0  0
  6  7  1  0  0  0  0
  7  8  1  0  0  0  0
  8  9  1  0  0  0  0
  9 10  2  0  0  0  0
  5 10  1  0  0  0  0
 10 11  1  0  0  0  0
 11 12  2  0  0  0  0
 12 13  1  0  0  0  0
 13 14  2  0  0  0  0
  9 14  1  0  0  0  0
 14 15  1  0  0  0  0
 15 16  1  0  0  0  0
 16 17  1  0  0  0  0
  8 17  1  0  0  0  0
 12 18  1  0  0  0  0
 18 19  1  0  0  0  0
 11 20  1  0  0  0  0
 20 21  1  0  0  0  0
  6 22  1  0  0  0  0
 22 23  2  0  0  0  0
  3 23  1  0  0  0  0
  4 24  1  0  0  0  0
  1 25  1  0  0  0  0
  1 26  1  0  0  0  0
  1 27  1  0  0  0  0
  7 28  1  0  0  0  0
  7 29  1  0  0  0  0
  8 30  1  0  0  0  0
 13 31  1  0  0  0  0
 15 32  1  0  0  0  0
 15 33  1  0  0  0  0
 16 34  1  0  0  0  0
 16 35  1  0  0  0  0
 17 36  1  0  0  0  0
 19 37  1  0  0  0  0
 19 38  1  0  0  0  0
 19 39  1  0  0  0  0
 21 40  1  0  0  0  0
 21 41  1  0  0  0  0
 21 42  1  0  0  0  0
 22 43  1  0  0  0  0
 23 44  1  0  0  0  0
 24 45  1  0  0  0  0
M  END
$$$$
