C11H12N2O2
APtclcactv06281817053D 0   0.00000     0.00000
 
 27 28  0  0  0  0  0  0  0  0999 V2000
   -3.9556   -0.6146    0.4932 C   0  0  0  0  0  0  0  0  0  0  0  0
   -3.4080   -1.8688    0.2387 C   0  0  0  0  0  0  0  0  0  0  0  0
   -2.0959   -2.0064   -0.1046 C   0  0  0  0  0  0  0  0  0  0  0  0
   -1.2836   -0.8688   -0.2035 C   0  0  0  0  0  0  0  0  0  0  0  0
   -1.8428    0.4070    0.0559 C   0  0  0  0  0  0  0  0  0  0  0  0
   -3.1938    0.5133    0.4061 C   0  0  0  0  0  0  0  0  0  0  0  0
   -1.0019    1.5392   -0.0502 C   0  0  0  0  0  0  0  0  0  0  0  0
    0.2644    1.3491   -0.3864 N   0  0  0  0  0  0  0  0  0  0  0  0
    0.7444    0.1373   -0.6199 C   0  0  0  0  0  0  0  0  0  0  0  0
    0.0127   -0.9480   -0.5369 N   0  0  0  0  0  0  0  0  0  0  0  0
    2.1966   -0.0010   -0.9980 C   0  0  0  0  0  0  0  0  0  0  0  0
    3.0385   -0.1776    0.2672 C   0  0  0  0  0  0  0  0  0  0  0  0
    4.5129   -0.3180   -0.1167 C   0  0  0  0  0  0  0  0  0  0  0  0
    5.2992   -0.4829    1.0651 O   0  0  0  0  0  0  0  0  0  0  0  0
   -1.4789    2.7831    0.1851 O   0  0  0  0  0  0  0  0  0  0  0  0
   -4.9993   -0.5331    0.7589 H   0  0  0  0  0  0  0  0  0  0  0  0
   -4.0324   -2.7467    0.3148 H   0  0  0  0  0  0  0  0  0  0  0  0
   -1.6849   -2.9861   -0.2988 H   0  0  0  0  0  0  0  0  0  0  0  0
   -3.6298    1.4811    0.6055 H   0  0  0  0  0  0  0  0  0  0  0  0
    2.3229   -0.8708   -1.6428 H   0  0  0  0  0  0  0  0  0  0  0  0
    2.5209    0.8944   -1.5282 H   0  0  0  0  0  0  0  0  0  0  0  0
    2.9122    0.6922    0.9120 H   0  0  0  0  0  0  0  0  0  0  0  0
    2.7142   -1.0730    0.7974 H   0  0  0  0  0  0  0  0  0  0  0  0
    4.6392   -1.1877   -0.7614 H   0  0  0  0  0  0  0  0  0  0  0  0
    4.8372    0.5775   -0.6468 H   0  0  0  0  0  0  0  0  0  0  0  0
    6.2467   -0.5782    0.8970 H   0  0  0  0  0  0  0  0  0  0  0  0
   -1.4032    3.0655    1.1069 H   0  0  0  0  0  0  0  0  0  0  0  0
  1  2  2  0  0  0  0
  2  3  1  0  0  0  0
  3  4  2  0  0  0  0
  4  5  1  0  0  0  0
  5  6  2  0  0  0  0
  1  6  1  0  0  0  0
  5  7  1  0  0  0  0
  7  8  2  0  0  0  0
  8  9  1  0  0  0  0
  9 10  2  0  0  0  0
  4 10  1  0  0  0  0
  9 11  1  0  0  0  0
 11 12  1  0  0  0  0
 12 13  1  0  0  0  0
 13 14  1  0  0  0  0
  7 15  1  0  0  0  0
  1 16  1  0  0  0  0
  2 17  1  0  0  0  0
  3 18  1  0  0  0  0
  6 19  1  0  0  0  0
 11 20  1  0  0  0  0
 11 21  1  0  0  0  0
 12 22  1  0  0  0  0
 12 23  1  0  0  0  0
 13 24  1  0  0  0  0
 13 25  1  0  0  0  0
 14 26  1  0  0  0  0
 15 27  1  0  0  0  0
M  END
$$$$
