C17H14O6
APtclcactv06281817053D 0   0.00000     0.00000
 
 37 39  0  0  0  0  0  0  0  0999 V2000
   -6.8463    0.6284    0.0099 C   0  0  0  0  0  0  0  0  0  0  0  0
   -5.9861   -0.5127    0.0143 O   0  0  0  0  0  0  0  0  0  0  0  0
   -4.6483   -0.2765    0.0103 C   0  0  0  0  0  0  0  0  0  0  0  0
   -3.7536   -1.3453    0.0142 C   0  0  0  0  0  0  0  0  0  0  0  0
   -2.3927   -1.1070    0.0097 C   0  0  0  0  0  0  0  0  0  0  0  0
   -1.9167    0.2070    0.0012 C   0  0  0  0  0  0  0  0  0  0  0  0
   -2.8195    1.2738   -0.0027 C   0  0  0  0  0  0  0  0  0  0  0  0
   -4.1757    1.0286   -0.0035 C   0  0  0  0  0  0  0  0  0  0  0  0
   -0.4647    0.4673   -0.0032 C   0  0  0  0  0  0  0  0  0  0  0  0
   -0.0314    1.7566   -0.0114 C   0  0  0  0  0  0  0  0  0  0  0  0
    1.3578    2.0257   -0.0152 C   0  0  0  0  0  0  0  0  0  0  0  0
    1.7819    3.1701   -0.0222 O   0  0  0  0  0  0  0  0  0  0  0  0
    2.2719    0.8710   -0.0098 C   0  0  0  0  0  0  0  0  0  0  0  0
    3.6614    1.0435   -0.0125 C   0  0  0  0  0  0  0  0  0  0  0  0
    4.4856   -0.0670   -0.0068 C   0  0  0  0  0  0  0  0  0  0  0  0
    3.9365   -1.3443    0.0015 C   0  0  0  0  0  0  0  0  0  0  0  0
    2.5614   -1.5223    0.0038 C   0  0  0  0  0  0  0  0  0  0  0  0
    1.7194   -0.4216   -0.0014 C   0  0  0  0  0  0  0  0  0  0  0  0
    0.3784   -0.5774    0.0067 O   0  0  0  0  0  0  0  0  0  0  0  0
    4.7545   -2.4276    0.0070 O   0  0  0  0  0  0  0  0  0  0  0  0
    6.1616   -2.1781    0.0039 C   0  0  0  0  0  0  0  0  0  0  0  0
    4.1954    2.2911   -0.0211 O   0  0  0  0  0  0  0  0  0  0  0  0
   -4.2202   -2.6227    0.0229 O   0  0  0  0  0  0  0  0  0  0  0  0
   -6.6566    1.2230   -0.8836 H   0  0  0  0  0  0  0  0  0  0  0  0
   -7.8857    0.2999    0.0138 H   0  0  0  0  0  0  0  0  0  0  0  0
   -6.6530    1.2326    0.8963 H   0  0  0  0  0  0  0  0  0  0  0  0
   -1.6984   -1.9343    0.0131 H   0  0  0  0  0  0  0  0  0  0  0  0
   -2.4544    2.2902   -0.0089 H   0  0  0  0  0  0  0  0  0  0  0  0
   -4.8723    1.8538   -0.0068 H   0  0  0  0  0  0  0  0  0  0  0  0
   -0.7426    2.5693   -0.0154 H   0  0  0  0  0  0  0  0  0  0  0  0
    5.5583    0.0582   -0.0092 H   0  0  0  0  0  0  0  0  0  0  0  0
    2.1463   -2.5193    0.0099 H   0  0  0  0  0  0  0  0  0  0  0  0
    6.6988   -3.1265    0.0089 H   0  0  0  0  0  0  0  0  0  0  0  0
    6.4285   -1.6140   -0.8898 H   0  0  0  0  0  0  0  0  0  0  0  0
    6.4307   -1.6033    0.8901 H   0  0  0  0  0  0  0  0  0  0  0  0
    4.3512    2.6584    0.8598 H   0  0  0  0  0  0  0  0  0  0  0  0
   -4.3575   -2.9973   -0.8579 H   0  0  0  0  0  0  0  0  0  0  0  0
  1  2  1  0  0  0  0
  2  3  1  0  0  0  0
  3  4  2  0  0  0  0
  4  5  1  0  0  0  0
  5  6  2  0  0  0  0
  6  7  1  0  0  0  0
  7  8  2  0  0  0  0
  3  8  1  0  0  0  0
  6  9  1  0  0  0  0
  9 10  2  0  0  0  0
 10 11  1  0  0  0  0
 11 12  2  0  0  0  0
 11 13  1  0  0  0  0
 13 14  2  0  0  0  0
 14 15  1  0  0  0  0
 15 16  2  0  0  0  0
 16 17  1  0  0  0  0
 17 18  2  0  0  0  0
 13 18  1  0  0  0  0
 18 19  1  0  0  0  0
  9 19  1  0  0  0  0
 16 20  1  0  0  0  0
 20 21  1  0  0  0  0
 14 22  1  0  0  0  0
  4 23  1  0  0  0  0
  1 24  1  0  0  0  0
  1 25  1  0  0  0  0
  1 26  1  0  0  0  0
  5 27  1  0  0  0  0
  7 28  1  0  0  0  0
  8 29  1  0  0  0  0
 10 30  1  0  0  0  0
 15 31  1  0  0  0  0
 17 32  1  0  0  0  0
 21 33  1  0  0  0  0
 21 34  1  0  0  0  0
 21 35  1  0  0  0  0
 22 36  1  0  0  0  0
 23 37  1  0  0  0  0
M  END
$$$$
