C15H12O6
APtclcactv06281817053D 0   0.00000     0.00000
 
 33 34  0  0  0  0  0  0  0  0999 V2000
    3.8410   -1.8653   -0.0087 C   0  0  0  0  0  0  0  0  0  0  0  0
    2.7011   -1.0957   -0.0056 C   0  0  0  0  0  0  0  0  0  0  0  0
    2.8002    0.2995   -0.0121 C   0  0  0  0  0  0  0  0  0  0  0  0
    4.0650    0.9073   -0.0217 C   0  0  0  0  0  0  0  0  0  0  0  0
    5.2048    0.1218   -0.0247 C   0  0  0  0  0  0  0  0  0  0  0  0
    5.0950   -1.2609   -0.0182 C   0  0  0  0  0  0  0  0  0  0  0  0
    6.2148   -2.0278   -0.0207 O   0  0  0  0  0  0  0  0  0  0  0  0
    4.1704    2.2599   -0.0285 O   0  0  0  0  0  0  0  0  0  0  0  0
    1.5808    1.1281   -0.0093 C   0  0  0  0  0  0  0  0  0  0  0  0
    1.6700    2.3430   -0.0150 O   0  0  0  0  0  0  0  0  0  0  0  0
    0.2648    0.4918    0.0002 C   0  0  0  0  0  0  0  0  0  0  0  0
   -0.8531    1.2515    0.0027 C   0  0  0  0  0  0  0  0  0  0  0  0
   -2.1758    0.6120    0.0123 C   0  0  0  0  0  0  0  0  0  0  0  0
   -3.3348    1.3972    0.0149 C   0  0  0  0  0  0  0  0  0  0  0  0
   -4.5769    0.7922    0.0234 C   0  0  0  0  0  0  0  0  0  0  0  0
   -4.6768   -0.5971    0.0299 C   0  0  0  0  0  0  0  0  0  0  0  0
   -3.5259   -1.3817    0.0277 C   0  0  0  0  0  0  0  0  0  0  0  0
   -2.2803   -0.7840    0.0129 C   0  0  0  0  0  0  0  0  0  0  0  0
   -3.6284   -2.7378    0.0345 O   0  0  0  0  0  0  0  0  0  0  0  0
   -5.9004   -1.1886    0.0387 O   0  0  0  0  0  0  0  0  0  0  0  0
   -5.7034    1.5541    0.0260 O   0  0  0  0  0  0  0  0  0  0  0  0
    3.7630   -2.9425    0.0009 H   0  0  0  0  0  0  0  0  0  0  0  0
    1.7300   -1.5683    0.0014 H   0  0  0  0  0  0  0  0  0  0  0  0
    6.1800    0.5858   -0.0324 H   0  0  0  0  0  0  0  0  0  0  0  0
    6.5438   -2.2462    0.8619 H   0  0  0  0  0  0  0  0  0  0  0  0
    4.2056    2.6561    0.8529 H   0  0  0  0  0  0  0  0  0  0  0  0
    0.1857   -0.5853    0.0052 H   0  0  0  0  0  0  0  0  0  0  0  0
   -0.7740    2.3286   -0.0023 H   0  0  0  0  0  0  0  0  0  0  0  0
   -3.2581    2.4744    0.0106 H   0  0  0  0  0  0  0  0  0  0  0  0
   -1.3884   -1.3930    0.0110 H   0  0  0  0  0  0  0  0  0  0  0  0
   -3.6625   -3.1340   -0.8469 H   0  0  0  0  0  0  0  0  0  0  0  0
   -6.2590   -1.3636   -0.8421 H   0  0  0  0  0  0  0  0  0  0  0  0
   -6.0335    1.7710   -0.8567 H   0  0  0  0  0  0  0  0  0  0  0  0
  1  2  2  0  0  0  0
  2  3  1  0  0  0  0
  3  4  2  0  0  0  0
  4  5  1  0  0  0  0
  5  6  2  0  0  0  0
  1  6  1  0  0  0  0
  6  7  1  0  0  0  0
  4  8  1  0  0  0  0
  3  9  1  0  0  0  0
  9 10  2  0  0  0  0
  9 11  1  0  0  0  0
 11 12  2  0  0  0  0
 12 13  1  0  0  0  0
 13 14  2  0  0  0  0
 14 15  1  0  0  0  0
 15 16  2  0  0  0  0
 16 17  1  0  0  0  0
 17 18  2  0  0  0  0
 13 18  1  0  0  0  0
 17 19  1  0  0  0  0
 16 20  1  0  0  0  0
 15 21  1  0  0  0  0
  1 22  1  0  0  0  0
  2 23  1  0  0  0  0
  5 24  1  0  0  0  0
  7 25  1  0  0  0  0
  8 26  1  0  0  0  0
 11 27  1  0  0  0  0
 12 28  1  0  0  0  0
 14 29  1  0  0  0  0
 18 30  1  0  0  0  0
 19 31  1  0  0  0  0
 20 32  1  0  0  0  0
 21 33  1  0  0  0  0
M  END
$$$$
