C15H10O6
APtclcactv06281817063D 0   0.00000     0.00000
 
 31 33  0  0  0  0  0  0  0  0999 V2000
    4.2786    1.6252   -0.1464 C   0  0  0  0  0  0  0  0  0  0  0  0
    2.9025    1.6919   -0.1309 C   0  0  0  0  0  0  0  0  0  0  0  0
    2.1470    0.5201   -0.0251 C   0  0  0  0  0  0  0  0  0  0  0  0
    2.7962   -0.7172    0.0647 C   0  0  0  0  0  0  0  0  0  0  0  0
    4.1861   -0.7683    0.0478 C   0  0  0  0  0  0  0  0  0  0  0  0
    4.9208    0.4011   -0.0574 C   0  0  0  0  0  0  0  0  0  0  0  0
    4.8238   -1.9664    0.1352 O   0  0  0  0  0  0  0  0  0  0  0  0
    2.0725   -1.8617    0.1683 O   0  0  0  0  0  0  0  0  0  0  0  0
    0.6740    0.5871   -0.0078 C   0  0  0  0  0  0  0  0  0  0  0  0
    0.0751    1.8080    0.0306 C   0  0  0  0  0  0  0  0  0  0  0  0
   -1.3372    1.8920    0.0477 C   0  0  0  0  0  0  0  0  0  0  0  0
   -1.9079    2.9703    0.0817 O   0  0  0  0  0  0  0  0  0  0  0  0
   -2.0918    0.6274    0.0225 C   0  0  0  0  0  0  0  0  0  0  0  0
   -3.4919    0.6157    0.0364 C   0  0  0  0  0  0  0  0  0  0  0  0
   -4.1631   -0.5931    0.0113 C   0  0  0  0  0  0  0  0  0  0  0  0
   -3.4511   -1.7867   -0.0271 C   0  0  0  0  0  0  0  0  0  0  0  0
   -2.0646   -1.7823   -0.0406 C   0  0  0  0  0  0  0  0  0  0  0  0
   -1.3744   -0.5808   -0.0168 C   0  0  0  0  0  0  0  0  0  0  0  0
   -0.0247   -0.5588   -0.0359 O   0  0  0  0  0  0  0  0  0  0  0  0
   -4.1199   -2.9678   -0.0510 O   0  0  0  0  0  0  0  0  0  0  0  0
   -4.1849    1.7819    0.0747 O   0  0  0  0  0  0  0  0  0  0  0  0
    4.8595    2.5316   -0.2327 H   0  0  0  0  0  0  0  0  0  0  0  0
    2.4074    2.6493   -0.2002 H   0  0  0  0  0  0  0  0  0  0  0  0
    5.9998    0.3583   -0.0706 H   0  0  0  0  0  0  0  0  0  0  0  0
    4.9948   -2.3841   -0.7200 H   0  0  0  0  0  0  0  0  0  0  0  0
    1.8493   -2.2642   -0.6821 H   0  0  0  0  0  0  0  0  0  0  0  0
    0.6735    2.7069    0.0483 H   0  0  0  0  0  0  0  0  0  0  0  0
   -5.2429   -0.6100    0.0218 H   0  0  0  0  0  0  0  0  0  0  0  0
   -1.5223   -2.7158   -0.0701 H   0  0  0  0  0  0  0  0  0  0  0  0
   -4.3226   -3.2870   -0.9410 H   0  0  0  0  0  0  0  0  0  0  0  0
   -4.3948    2.1436   -0.7972 H   0  0  0  0  0  0  0  0  0  0  0  0
  1  2  2  0  0  0  0
  2  3  1  0  0  0  0
  3  4  2  0  0  0  0
  4  5  1  0  0  0  0
  5  6  2  0  0  0  0
  1  6  1  0  0  0  0
  5  7  1  0  0  0  0
  4  8  1  0  0  0  0
  3  9  1  0  0  0  0
  9 10  2  0  0  0  0
 10 11  1  0  0  0  0
 11 12  2  0  0  0  0
 11 13  1  0  0  0  0
 13 14  2  0  0  0  0
 14 15  1  0  0  0  0
 15 16  2  0  0  0  0
 16 17  1  0  0  0  0
 17 18  2  0  0  0  0
 13 18  1  0  0  0  0
 18 19  1  0  0  0  0
  9 19  1  0  0  0  0
 16 20  1  0  0  0  0
 14 21  1  0  0  0  0
  1 22  1  0  0  0  0
  2 23  1  0  0  0  0
  6 24  1  0  0  0  0
  7 25  1  0  0  0  0
  8 26  1  0  0  0  0
 10 27  1  0  0  0  0
 15 28  1  0  0  0  0
 17 29  1  0  0  0  0
 20 30  1  0  0  0  0
 21 31  1  0  0  0  0
M  END
$$$$
