C18H17NO5
APtclcactv06281817063D 0   0.00000     0.00000
 
 41 42  0  0  0  0  0  0  0  0999 V2000
    7.0766    2.4597   -0.0023 C   0  0  0  0  0  0  0  0  0  0  0  0
    7.2701    1.0439   -0.0044 O   0  0  0  0  0  0  0  0  0  0  0  0
    6.1531    0.2681   -0.0048 C   0  0  0  0  0  0  0  0  0  0  0  0
    6.2695   -1.1214   -0.0068 C   0  0  0  0  0  0  0  0  0  0  0  0
    5.1318   -1.9175   -0.0077 C   0  0  0  0  0  0  0  0  0  0  0  0
    3.8818   -1.3388   -0.0066 C   0  0  0  0  0  0  0  0  0  0  0  0
    3.7566    0.0551   -0.0041 C   0  0  0  0  0  0  0  0  0  0  0  0
    4.9039    0.8567    0.0025 C   0  0  0  0  0  0  0  0  0  0  0  0
    2.4239    0.6755   -0.0034 C   0  0  0  0  0  0  0  0  0  0  0  0
    1.3187   -0.0995   -0.0052 C   0  0  0  0  0  0  0  0  0  0  0  0
   -0.0073    0.5178   -0.0045 C   0  0  0  0  0  0  0  0  0  0  0  0
   -0.1141    1.7303   -0.0023 O   0  0  0  0  0  0  0  0  0  0  0  0
   -1.1108   -0.2560   -0.0062 N   0  0  0  0  0  0  0  0  0  0  0  0
   -2.4389    0.3623   -0.0055 C   0  0  0  0  0  0  0  0  0  0  0  0
   -3.4939   -0.7138   -0.0079 C   0  0  0  0  0  0  0  0  0  0  0  0
   -3.1684   -1.8823   -0.0099 O   0  0  0  0  0  0  0  0  0  0  0  0
   -4.9162   -0.3478   -0.0077 C   0  0  0  0  0  0  0  0  0  0  0  0
   -5.8985   -1.3458   -0.0098 C   0  0  0  0  0  0  0  0  0  0  0  0
   -7.2251   -0.9987   -0.0091 C   0  0  0  0  0  0  0  0  0  0  0  0
   -7.5956    0.3419   -0.0063 C   0  0  0  0  0  0  0  0  0  0  0  0
   -6.6239    1.3369   -0.0042 C   0  0  0  0  0  0  0  0  0  0  0  0
   -5.2947    1.0005    0.0005 C   0  0  0  0  0  0  0  0  0  0  0  0
   -8.9094    0.6800   -0.0061 O   0  0  0  0  0  0  0  0  0  0  0  0
    7.4994   -1.6978   -0.0084 O   0  0  0  0  0  0  0  0  0  0  0  0
    6.5178    2.7514   -0.8915 H   0  0  0  0  0  0  0  0  0  0  0  0
    6.5189    2.7489    0.8885 H   0  0  0  0  0  0  0  0  0  0  0  0
    8.0456    2.9588   -0.0021 H   0  0  0  0  0  0  0  0  0  0  0  0
    5.2272   -2.9933   -0.0097 H   0  0  0  0  0  0  0  0  0  0  0  0
    2.9987   -1.9605   -0.0080 H   0  0  0  0  0  0  0  0  0  0  0  0
    4.8125    1.9329    0.0045 H   0  0  0  0  0  0  0  0  0  0  0  0
    2.3290    1.7513   -0.0015 H   0  0  0  0  0  0  0  0  0  0  0  0
    1.4135   -1.1753   -0.0071 H   0  0  0  0  0  0  0  0  0  0  0  0
   -1.0256   -1.2222   -0.0080 H   0  0  0  0  0  0  0  0  0  0  0  0
   -2.5518    0.9798    0.8855 H   0  0  0  0  0  0  0  0  0  0  0  0
   -2.5512    0.9831   -0.8944 H   0  0  0  0  0  0  0  0  0  0  0  0
   -5.6119   -2.3870   -0.0123 H   0  0  0  0  0  0  0  0  0  0  0  0
   -7.9835   -1.7676   -0.0111 H   0  0  0  0  0  0  0  0  0  0  0  0
   -6.9169    2.3764   -0.0023 H   0  0  0  0  0  0  0  0  0  0  0  0
   -4.5409    1.7739    0.0022 H   0  0  0  0  0  0  0  0  0  0  0  0
   -9.2907    0.7761    0.8774 H   0  0  0  0  0  0  0  0  0  0  0  0
    7.8560   -1.8660    0.8746 H   0  0  0  0  0  0  0  0  0  0  0  0
  1  2  1  0  0  0  0
  2  3  1  0  0  0  0
  3  4  2  0  0  0  0
  4  5  1  0  0  0  0
  5  6  2  0  0  0  0
  6  7  1  0  0  0  0
  7  8  2  0  0  0  0
  3  8  1  0  0  0  0
  7  9  1  0  0  0  0
  9 10  2  0  0  0  0
 10 11  1  0  0  0  0
 11 12  2  0  0  0  0
 11 13  1  0  0  0  0
 13 14  1  0  0  0  0
 14 15  1  0  0  0  0
 15 16  2  0  0  0  0
 15 17  1  0  0  0  0
 17 18  2  0  0  0  0
 18 19  1  0  0  0  0
 19 20  2  0  0  0  0
 20 21  1  0  0  0  0
 21 22  2  0  0  0  0
 17 22  1  0  0  0  0
 20 23  1  0  0  0  0
  4 24  1  0  0  0  0
  1 25  1  0  0  0  0
  1 26  1  0  0  0  0
  1 27  1  0  0  0  0
  5 28  1  0  0  0  0
  6 29  1  0  0  0  0
  8 30  1  0  0  0  0
  9 31  1  0  0  0  0
 10 32  1  0  0  0  0
 13 33  1  0  0  0  0
 14 34  1  0  0  0  0
 14 35  1  0  0  0  0
 18 36  1  0  0  0  0
 19 37  1  0  0  0  0
 21 38  1  0  0  0  0
 22 39  1  0  0  0  0
 23 40  1  0  0  0  0
 24 41  1  0  0  0  0
M  END
$$$$
