C15H10O5
APtclcactv06281813573D 0   0.00000     0.00000
 
 30 32  0  0  0  0  0  0  0  0999 V2000
    4.2452   -1.9584   -0.5317 C   0  0  0  0  0  0  0  0  0  0  0  0
    2.8812   -2.1563   -0.4682 C   0  0  0  0  0  0  0  0  0  0  0  0
    2.0453   -1.0809   -0.1797 C   0  0  0  0  0  0  0  0  0  0  0  0
    2.6042    0.2046    0.0414 C   0  0  0  0  0  0  0  0  0  0  0  0
    3.9865    0.3835   -0.0232 C   0  0  0  0  0  0  0  0  0  0  0  0
    4.7957   -0.7050   -0.3112 C   0  0  0  0  0  0  0  0  0  0  0  0
    4.5318    1.6067    0.1935 O   0  0  0  0  0  0  0  0  0  0  0  0
    1.6669    1.2969    0.3283 C   0  0  0  0  0  0  0  0  0  0  0  0
    2.0118    2.2863    0.9473 O   0  0  0  0  0  0  0  0  0  0  0  0
    0.4003    1.1524   -0.1286 O   0  0  0  0  0  0  0  0  0  0  0  0
   -0.1601   -0.0745   -0.0522 C   0  0  0  0  0  0  0  0  0  0  0  0
    0.5906   -1.2064   -0.0867 C   0  0  0  0  0  0  0  0  0  0  0  0
   -1.6268   -0.1883    0.0719 C   0  0  0  0  0  0  0  0  0  0  0  0
   -2.4593    0.6617   -0.6599 C   0  0  0  0  0  0  0  0  0  0  0  0
   -3.8319    0.5508   -0.5405 C   0  0  0  0  0  0  0  0  0  0  0  0
   -4.3821   -0.4073    0.3084 C   0  0  0  0  0  0  0  0  0  0  0  0
   -3.5552   -1.2514    1.0356 C   0  0  0  0  0  0  0  0  0  0  0  0
   -2.1853   -1.1501    0.9169 C   0  0  0  0  0  0  0  0  0  0  0  0
   -5.7320   -0.5151    0.4246 O   0  0  0  0  0  0  0  0  0  0  0  0
   -4.6453    1.3771   -1.2511 O   0  0  0  0  0  0  0  0  0  0  0  0
    4.8941   -2.7931   -0.7520 H   0  0  0  0  0  0  0  0  0  0  0  0
    2.4651   -3.1378   -0.6414 H   0  0  0  0  0  0  0  0  0  0  0  0
    5.8666   -0.5753   -0.3642 H   0  0  0  0  0  0  0  0  0  0  0  0
    4.7537    1.7802    1.1186 H   0  0  0  0  0  0  0  0  0  0  0  0
    0.1230   -2.1790   -0.0465 H   0  0  0  0  0  0  0  0  0  0  0  0
   -2.0315    1.4042   -1.3172 H   0  0  0  0  0  0  0  0  0  0  0  0
   -3.9857   -1.9923    1.6931 H   0  0  0  0  0  0  0  0  0  0  0  0
   -1.5439   -1.8086    1.4839 H   0  0  0  0  0  0  0  0  0  0  0  0
   -6.1334   -1.1286   -0.2060 H   0  0  0  0  0  0  0  0  0  0  0  0
   -4.8913    1.0340   -2.1211 H   0  0  0  0  0  0  0  0  0  0  0  0
  1  2  2  0  0  0  0
  2  3  1  0  0  0  0
  3  4  2  0  0  0  0
  4  5  1  0  0  0  0
  5  6  2  0  0  0  0
  1  6  1  0  0  0  0
  5  7  1  0  0  0  0
  4  8  1  0  0  0  0
  8  9  2  0  0  0  0
  8 10  1  0  0  0  0
 10 11  1  0  0  0  0
 11 12  2  0  0  0  0
  3 12  1  0  0  0  0
 11 13  1  0  0  0  0
 13 14  2  0  0  0  0
 14 15  1  0  0  0  0
 15 16  2  0  0  0  0
 16 17  1  0  0  0  0
 17 18  2  0  0  0  0
 13 18  1  0  0  0  0
 16 19  1  0  0  0  0
 15 20  1  0  0  0  0
  1 21  1  0  0  0  0
  2 22  1  0  0  0  0
  6 23  1  0  0  0  0
  7 24  1  0  0  0  0
 12 25  1  0  0  0  0
 14 26  1  0  0  0  0
 17 27  1  0  0  0  0
 18 28  1  0  0  0  0
 19 29  1  0  0  0  0
 20 30  1  0  0  0  0
M  END
$$$$
