C15H10O6
APtclcactv06281817063D 0   0.00000     0.00000
 
 31 33  0  0  0  0  0  0  0  0999 V2000
   -5.0332    0.5474   -0.1251 C   0  0  0  0  0  0  0  0  0  0  0  0
   -4.2817    1.1071    0.8917 C   0  0  0  0  0  0  0  0  0  0  0  0
   -2.9180    0.8745    0.9603 C   0  0  0  0  0  0  0  0  0  0  0  0
   -2.2998    0.0680   -0.0064 C   0  0  0  0  0  0  0  0  0  0  0  0
   -3.0715   -0.4947   -1.0335 C   0  0  0  0  0  0  0  0  0  0  0  0
   -4.4338   -0.2491   -1.0833 C   0  0  0  0  0  0  0  0  0  0  0  0
   -2.4855   -1.2766   -1.9753 O   0  0  0  0  0  0  0  0  0  0  0  0
   -0.8509   -0.1857    0.0563 C   0  0  0  0  0  0  0  0  0  0  0  0
   -0.4180   -1.4346    0.3845 C   0  0  0  0  0  0  0  0  0  0  0  0
    0.9694   -1.6967    0.4495 C   0  0  0  0  0  0  0  0  0  0  0  0
    1.3924   -2.8042    0.7401 O   0  0  0  0  0  0  0  0  0  0  0  0
    1.8850   -0.5816    0.1526 C   0  0  0  0  0  0  0  0  0  0  0  0
    3.2742   -0.7516    0.1927 C   0  0  0  0  0  0  0  0  0  0  0  0
    4.1001    0.3203   -0.0930 C   0  0  0  0  0  0  0  0  0  0  0  0
    3.5530    1.5566   -0.4170 C   0  0  0  0  0  0  0  0  0  0  0  0
    2.1781    1.7318   -0.4582 C   0  0  0  0  0  0  0  0  0  0  0  0
    1.3346    0.6692   -0.1758 C   0  0  0  0  0  0  0  0  0  0  0  0
   -0.0063    0.8215   -0.2176 O   0  0  0  0  0  0  0  0  0  0  0  0
    4.3726    2.6023   -0.6954 O   0  0  0  0  0  0  0  0  0  0  0  0
    3.8063   -1.9591    0.5101 O   0  0  0  0  0  0  0  0  0  0  0  0
   -2.1825    1.4254    1.9591 O   0  0  0  0  0  0  0  0  0  0  0  0
   -6.0967    0.7302   -0.1687 H   0  0  0  0  0  0  0  0  0  0  0  0
   -4.7597    1.7281    1.6349 H   0  0  0  0  0  0  0  0  0  0  0  0
   -5.0300   -0.6817   -1.8731 H   0  0  0  0  0  0  0  0  0  0  0  0
   -2.4622   -2.2161   -1.7476 H   0  0  0  0  0  0  0  0  0  0  0  0
   -1.1299   -2.2193    0.5940 H   0  0  0  0  0  0  0  0  0  0  0  0
    5.1726    0.1967   -0.0640 H   0  0  0  0  0  0  0  0  0  0  0  0
    1.7644    2.6969   -0.7108 H   0  0  0  0  0  0  0  0  0  0  0  0
    4.6072    2.6802   -1.6303 H   0  0  0  0  0  0  0  0  0  0  0  0
    3.9575   -2.5348   -0.2519 H   0  0  0  0  0  0  0  0  0  0  0  0
   -2.1161    0.8724    2.7496 H   0  0  0  0  0  0  0  0  0  0  0  0
  1  2  2  0  0  0  0
  2  3  1  0  0  0  0
  3  4  2  0  0  0  0
  4  5  1  0  0  0  0
  5  6  2  0  0  0  0
  1  6  1  0  0  0  0
  5  7  1  0  0  0  0
  4  8  1  0  0  0  0
  8  9  2  0  0  0  0
  9 10  1  0  0  0  0
 10 11  2  0  0  0  0
 10 12  1  0  0  0  0
 12 13  2  0  0  0  0
 13 14  1  0  0  0  0
 14 15  2  0  0  0  0
 15 16  1  0  0  0  0
 16 17  2  0  0  0  0
 12 17  1  0  0  0  0
 17 18  1  0  0  0  0
  8 18  1  0  0  0  0
 15 19  1  0  0  0  0
 13 20  1  0  0  0  0
  3 21  1  0  0  0  0
  1 22  1  0  0  0  0
  2 23  1  0  0  0  0
  6 24  1  0  0  0  0
  7 25  1  0  0  0  0
  9 26  1  0  0  0  0
 14 27  1  0  0  0  0
 16 28  1  0  0  0  0
 19 29  1  0  0  0  0
 20 30  1  0  0  0  0
 21 31  1  0  0  0  0
M  END
$$$$
