C16H12O6
APtclcactv06281817063D 0   0.00000     0.00000
 
 34 36  0  0  0  0  0  0  0  0999 V2000
   -1.6610   -3.3855   -0.6558 C   0  0  0  0  0  0  0  0  0  0  0  0
   -1.7663   -2.5507    0.4992 O   0  0  0  0  0  0  0  0  0  0  0  0
   -2.1118   -1.2500    0.2925 C   0  0  0  0  0  0  0  0  0  0  0  0
   -3.4500   -0.8780    0.2919 C   0  0  0  0  0  0  0  0  0  0  0  0
   -3.8162    0.4467    0.0825 C   0  0  0  0  0  0  0  0  0  0  0  0
   -2.8483    1.4110   -0.1282 C   0  0  0  0  0  0  0  0  0  0  0  0
   -1.4968    1.0450   -0.1293 C   0  0  0  0  0  0  0  0  0  0  0  0
   -1.1257   -0.2930    0.0876 C   0  0  0  0  0  0  0  0  0  0  0  0
    0.1809   -0.6357    0.0855 O   0  0  0  0  0  0  0  0  0  0  0  0
    1.1570    0.2629   -0.1185 C   0  0  0  0  0  0  0  0  0  0  0  0
    0.9029    1.5816   -0.3371 C   0  0  0  0  0  0  0  0  0  0  0  0
   -0.4349    2.0417   -0.3494 C   0  0  0  0  0  0  0  0  0  0  0  0
   -0.6991    3.2174   -0.5429 O   0  0  0  0  0  0  0  0  0  0  0  0
    2.5581   -0.1965   -0.1046 C   0  0  0  0  0  0  0  0  0  0  0  0
    2.9042   -1.4135   -0.6965 C   0  0  0  0  0  0  0  0  0  0  0  0
    4.2161   -1.8370   -0.6804 C   0  0  0  0  0  0  0  0  0  0  0  0
    5.1932   -1.0614   -0.0794 C   0  0  0  0  0  0  0  0  0  0  0  0
    4.8645    0.1443    0.5097 C   0  0  0  0  0  0  0  0  0  0  0  0
    3.5517    0.5884    0.4978 C   0  0  0  0  0  0  0  0  0  0  0  0
    3.2275    1.7726    1.0761 O   0  0  0  0  0  0  0  0  0  0  0  0
   -3.2060    2.7049   -0.3333 O   0  0  0  0  0  0  0  0  0  0  0  0
   -4.4098   -1.8173    0.4975 O   0  0  0  0  0  0  0  0  0  0  0  0
   -0.9013   -2.9838   -1.3264 H   0  0  0  0  0  0  0  0  0  0  0  0
   -1.3802   -4.3937   -0.3511 H   0  0  0  0  0  0  0  0  0  0  0  0
   -2.6211   -3.4158   -1.1710 H   0  0  0  0  0  0  0  0  0  0  0  0
   -4.8602    0.7233    0.0840 H   0  0  0  0  0  0  0  0  0  0  0  0
    1.7171    2.2730   -0.4967 H   0  0  0  0  0  0  0  0  0  0  0  0
    2.1452   -2.0220   -1.1657 H   0  0  0  0  0  0  0  0  0  0  0  0
    4.4828   -2.7781   -1.1382 H   0  0  0  0  0  0  0  0  0  0  0  0
    6.2183   -1.4012   -0.0707 H   0  0  0  0  0  0  0  0  0  0  0  0
    5.6322    0.7434    0.9767 H   0  0  0  0  0  0  0  0  0  0  0  0
    3.2806    2.5302    0.4776 H   0  0  0  0  0  0  0  0  0  0  0  0
   -3.2688    3.2287    0.4771 H   0  0  0  0  0  0  0  0  0  0  0  0
   -4.6467   -1.9407    1.4268 H   0  0  0  0  0  0  0  0  0  0  0  0
  1  2  1  0  0  0  0
  2  3  1  0  0  0  0
  3  4  2  0  0  0  0
  4  5  1  0  0  0  0
  5  6  2  0  0  0  0
  6  7  1  0  0  0  0
  7  8  2  0  0  0  0
  3  8  1  0  0  0  0
  8  9  1  0  0  0  0
  9 10  1  0  0  0  0
 10 11  2  0  0  0  0
 11 12  1  0  0  0  0
  7 12  1  0  0  0  0
 12 13  2  0  0  0  0
 10 14  1  0  0  0  0
 14 15  2  0  0  0  0
 15 16  1  0  0  0  0
 16 17  2  0  0  0  0
 17 18  1  0  0  0  0
 18 19  2  0  0  0  0
 14 19  1  0  0  0  0
 19 20  1  0  0  0  0
  6 21  1  0  0  0  0
  4 22  1  0  0  0  0
  1 23  1  0  0  0  0
  1 24  1  0  0  0  0
  1 25  1  0  0  0  0
  5 26  1  0  0  0  0
 11 27  1  0  0  0  0
 15 28  1  0  0  0  0
 16 29  1  0  0  0  0
 17 30  1  0  0  0  0
 18 31  1  0  0  0  0
 20 32  1  0  0  0  0
 21 33  1  0  0  0  0
 22 34  1  0  0  0  0
M  END
$$$$
