C24H28N2O6
APtclcactv06281817063D 0   0.00000     0.00000
 
 60 61  0  0  0  0  0  0  0  0999 V2000
   11.4139    2.2771   -0.0045 C   0  0  0  0  0  0  0  0  0  0  0  0
   11.5335    0.8532   -0.0042 O   0  0  0  0  0  0  0  0  0  0  0  0
   10.3777    0.1365   -0.0045 C   0  0  0  0  0  0  0  0  0  0  0  0
   10.4218   -1.2572   -0.0043 C   0  0  0  0  0  0  0  0  0  0  0  0
    9.2443   -1.9931   -0.0041 C   0  0  0  0  0  0  0  0  0  0  0  0
    8.0260   -1.3502   -0.0042 C   0  0  0  0  0  0  0  0  0  0  0  0
    7.9734    0.0483   -0.0044 C   0  0  0  0  0  0  0  0  0  0  0  0
    9.1608    0.7892    0.0007 C   0  0  0  0  0  0  0  0  0  0  0  0
    6.6748    0.7371   -0.0045 C   0  0  0  0  0  0  0  0  0  0  0  0
    5.5308    0.0206   -0.0044 C   0  0  0  0  0  0  0  0  0  0  0  0
    4.2387    0.7059   -0.0045 C   0  0  0  0  0  0  0  0  0  0  0  0
    4.1950    1.9223   -0.0047 O   0  0  0  0  0  0  0  0  0  0  0  0
    3.0965   -0.0095   -0.0043 N   0  0  0  0  0  0  0  0  0  0  0  0
    1.8023    0.6769   -0.0044 C   0  0  0  0  0  0  0  0  0  0  0  0
    0.6758   -0.3584   -0.0042 C   0  0  0  0  0  0  0  0  0  0  0  0
   -0.6758    0.3584   -0.0043 C   0  0  0  0  0  0  0  0  0  0  0  0
   -1.8023   -0.6769   -0.0041 C   0  0  0  0  0  0  0  0  0  0  0  0
   -3.0965    0.0095   -0.0042 N   0  0  0  0  0  0  0  0  0  0  0  0
   -4.2387   -0.7059   -0.0041 C   0  0  0  0  0  0  0  0  0  0  0  0
   -4.1950   -1.9223   -0.0039 O   0  0  0  0  0  0  0  0  0  0  0  0
   -5.5308   -0.0206   -0.0042 C   0  0  0  0  0  0  0  0  0  0  0  0
   -6.6748   -0.7371   -0.0040 C   0  0  0  0  0  0  0  0  0  0  0  0
   -7.9734   -0.0483   -0.0041 C   0  0  0  0  0  0  0  0  0  0  0  0
   -9.1608   -0.7892   -0.0040 C   0  0  0  0  0  0  0  0  0  0  0  0
  -10.3777   -0.1365   -0.0041 C   0  0  0  0  0  0  0  0  0  0  0  0
  -10.4218    1.2572   -0.0049 C   0  0  0  0  0  0  0  0  0  0  0  0
   -9.2443    1.9931   -0.0055 C   0  0  0  0  0  0  0  0  0  0  0  0
   -8.0260    1.3502    0.0014 C   0  0  0  0  0  0  0  0  0  0  0  0
  -11.6201    1.8968   -0.0055 O   0  0  0  0  0  0  0  0  0  0  0  0
  -11.5335   -0.8532   -0.0040 O   0  0  0  0  0  0  0  0  0  0  0  0
  -11.4139   -2.2771   -0.0037 C   0  0  0  0  0  0  0  0  0  0  0  0
   11.6201   -1.8968   -0.0046 O   0  0  0  0  0  0  0  0  0  0  0  0
   10.8718    2.5960   -0.8947 H   0  0  0  0  0  0  0  0  0  0  0  0
   10.8712    2.5963    0.8852 H   0  0  0  0  0  0  0  0  0  0  0  0
   12.4076    2.7252   -0.0042 H   0  0  0  0  0  0  0  0  0  0  0  0
    9.2837   -3.0724   -0.0042 H   0  0  0  0  0  0  0  0  0  0  0  0
    7.1118   -1.9252   -0.0044 H   0  0  0  0  0  0  0  0  0  0  0  0
    9.1255    1.8686    0.0005 H   0  0  0  0  0  0  0  0  0  0  0  0
    6.6360    1.8164   -0.0047 H   0  0  0  0  0  0  0  0  0  0  0  0
    5.5696   -1.0587   -0.0042 H   0  0  0  0  0  0  0  0  0  0  0  0
    3.1314   -0.9789   -0.0042 H   0  0  0  0  0  0  0  0  0  0  0  0
    1.7221    1.3013    0.8854 H   0  0  0  0  0  0  0  0  0  0  0  0
    1.7220    1.3010   -0.8945 H   0  0  0  0  0  0  0  0  0  0  0  0
    0.7560   -0.9828   -0.8941 H   0  0  0  0  0  0  0  0  0  0  0  0
    0.7561   -0.9825    0.8859 H   0  0  0  0  0  0  0  0  0  0  0  0
   -0.7560    0.9828    0.8855 H   0  0  0  0  0  0  0  0  0  0  0  0
   -0.7561    0.9825   -0.8944 H   0  0  0  0  0  0  0  0  0  0  0  0
   -1.7221   -1.3013   -0.8940 H   0  0  0  0  0  0  0  0  0  0  0  0
   -1.7220   -1.3010    0.8860 H   0  0  0  0  0  0  0  0  0  0  0  0
   -3.1314    0.9789   -0.0044 H   0  0  0  0  0  0  0  0  0  0  0  0
   -5.5696    1.0587   -0.0044 H   0  0  0  0  0  0  0  0  0  0  0  0
   -6.6360   -1.8164   -0.0038 H   0  0  0  0  0  0  0  0  0  0  0  0
   -9.1254   -1.8686   -0.0041 H   0  0  0  0  0  0  0  0  0  0  0  0
   -9.2837    3.0724   -0.0068 H   0  0  0  0  0  0  0  0  0  0  0  0
   -7.1118    1.9252    0.0009 H   0  0  0  0  0  0  0  0  0  0  0  0
  -11.9672    2.0824    0.8777 H   0  0  0  0  0  0  0  0  0  0  0  0
  -10.8715   -2.5964   -0.8936 H   0  0  0  0  0  0  0  0  0  0  0  0
  -10.8715   -2.5960    0.8864 H   0  0  0  0  0  0  0  0  0  0  0  0
  -12.4076   -2.7252   -0.0036 H   0  0  0  0  0  0  0  0  0  0  0  0
   11.9674   -2.0818    0.8787 H   0  0  0  0  0  0  0  0  0  0  0  0
  1  2  1  0  0  0  0
  2  3  1  0  0  0  0
  3  4  2  0  0  0  0
  4  5  1  0  0  0  0
  5  6  2  0  0  0  0
  6  7  1  0  0  0  0
  7  8  2  0  0  0  0
  3  8  1  0  0  0  0
  7  9  1  0  0  0  0
  9 10  2  0  0  0  0
 10 11  1  0  0  0  0
 11 12  2  0  0  0  0
 11 13  1  0  0  0  0
 13 14  1  0  0  0  0
 14 15  1  0  0  0  0
 15 16  1  0  0  0  0
 16 17  1  0  0  0  0
 17 18  1  0  0  0  0
 18 19  1  0  0  0  0
 19 20  2  0  0  0  0
 19 21  1  0  0  0  0
 21 22  2  0  0  0  0
 22 23  1  0  0  0  0
 23 24  2  0  0  0  0
 24 25  1  0  0  0  0
 25 26  2  0  0  0  0
 26 27  1  0  0  0  0
 27 28  2  0  0  0  0
 23 28  1  0  0  0  0
 26 29  1  0  0  0  0
 25 30  1  0  0  0  0
 30 31  1  0  0  0  0
  4 32  1  0  0  0  0
  1 33  1  0  0  0  0
  1 34  1  0  0  0  0
  1 35  1  0  0  0  0
  5 36  1  0  0  0  0
  6 37  1  0  0  0  0
  8 38  1  0  0  0  0
  9 39  1  0  0  0  0
 10 40  1  0  0  0  0
 13 41  1  0  0  0  0
 14 42  1  0  0  0  0
 14 43  1  0  0  0  0
 15 44  1  0  0  0  0
 15 45  1  0  0  0  0
 16 46  1  0  0  0  0
 16 47  1  0  0  0  0
 17 48  1  0  0  0  0
 17 49  1  0  0  0  0
 18 50  1  0  0  0  0
 21 51  1  0  0  0  0
 22 52  1  0  0  0  0
 24 53  1  0  0  0  0
 27 54  1  0  0  0  0
 28 55  1  0  0  0  0
 29 56  1  0  0  0  0
 31 57  1  0  0  0  0
 31 58  1  0  0  0  0
 31 59  1  0  0  0  0
 32 60  1  0  0  0  0
M  END
$$$$
