C22H23NO6
APtclcactv06281817063D 0   0.00000     0.00000
 
 52 54  0  0  0  0  0  0  0  0999 V2000
    0.1114    1.6939   -1.9560 C   0  0  0  0  0  0  0  0  0  0  0  0
   -0.0717    1.2908   -0.5595 N   0  0  0  0  0  0  0  0  0  0  0  0
    0.2406    2.1452    0.4350 C   0  0  0  0  0  0  0  0  0  0  0  0
    0.6733    3.2478    0.1738 O   0  0  0  0  0  0  0  0  0  0  0  0
   -0.5695    0.0223   -0.2590 C   0  0  0  0  0  0  0  0  0  0  0  0
    0.2983   -1.0493   -0.0864 C   0  0  0  0  0  0  0  0  0  0  0  0
   -0.1992   -2.3260    0.2163 C   0  0  0  0  0  0  0  0  0  0  0  0
   -1.5340   -2.5427    0.3469 C   0  0  0  0  0  0  0  0  0  0  0  0
   -2.4423   -1.4812    0.1785 C   0  0  0  0  0  0  0  0  0  0  0  0
   -3.8260   -1.6870    0.3090 C   0  0  0  0  0  0  0  0  0  0  0  0
   -4.6853   -0.6401    0.1403 C   0  0  0  0  0  0  0  0  0  0  0  0
   -4.2050    0.6419   -0.1628 C   0  0  0  0  0  0  0  0  0  0  0  0
   -2.8665    0.8727   -0.2957 C   0  0  0  0  0  0  0  0  0  0  0  0
   -1.9571   -0.1836   -0.1217 C   0  0  0  0  0  0  0  0  0  0  0  0
   -5.0830    1.6670   -0.3265 O   0  0  0  0  0  0  0  0  0  0  0  0
   -4.5330    2.9495   -0.6341 C   0  0  0  0  0  0  0  0  0  0  0  0
   -6.0234   -0.8429    0.2672 O   0  0  0  0  0  0  0  0  0  0  0  0
   -6.4519   -2.1707    0.5763 C   0  0  0  0  0  0  0  0  0  0  0  0
    1.7595   -0.8424   -0.2235 C   0  0  0  0  0  0  0  0  0  0  0  0
    2.4390   -0.0221    0.6817 C   0  0  0  0  0  0  0  0  0  0  0  0
    3.8073    0.1674    0.5474 C   0  0  0  0  0  0  0  0  0  0  0  0
    4.4967   -0.4583   -0.4853 C   0  0  0  0  0  0  0  0  0  0  0  0
    3.8199   -1.2723   -1.3828 C   0  0  0  0  0  0  0  0  0  0  0  0
    2.4607   -1.4700   -1.2523 C   0  0  0  0  0  0  0  0  0  0  0  0
    5.8373   -0.2719   -0.6165 O   0  0  0  0  0  0  0  0  0  0  0  0
    6.4829   -0.9445   -1.6995 C   0  0  0  0  0  0  0  0  0  0  0  0
    4.4738    0.9654    1.4257 O   0  0  0  0  0  0  0  0  0  0  0  0
    5.0044    0.3405    2.5962 C   0  0  0  0  0  0  0  0  0  0  0  0
    1.7616    0.5886    1.6901 O   0  0  0  0  0  0  0  0  0  0  0  0
    1.1148    1.4223   -2.2839 H   0  0  0  0  0  0  0  0  0  0  0  0
   -0.6245    1.1869   -2.5800 H   0  0  0  0  0  0  0  0  0  0  0  0
   -0.0198    2.7725   -2.0430 H   0  0  0  0  0  0  0  0  0  0  0  0
    0.1056    1.8480    1.4645 H   0  0  0  0  0  0  0  0  0  0  0  0
    0.4888   -3.1482    0.3469 H   0  0  0  0  0  0  0  0  0  0  0  0
   -1.8988   -3.5320    0.5802 H   0  0  0  0  0  0  0  0  0  0  0  0
   -4.2082   -2.6700    0.5415 H   0  0  0  0  0  0  0  0  0  0  0  0
   -2.5078    1.8642   -0.5293 H   0  0  0  0  0  0  0  0  0  0  0  0
   -3.9740    2.8907   -1.5680 H   0  0  0  0  0  0  0  0  0  0  0  0
   -5.3395    3.6753   -0.7385 H   0  0  0  0  0  0  0  0  0  0  0  0
   -3.8658    3.2609    0.1697 H   0  0  0  0  0  0  0  0  0  0  0  0
   -6.1261   -2.8502   -0.2113 H   0  0  0  0  0  0  0  0  0  0  0  0
   -6.0173   -2.4808    1.5265 H   0  0  0  0  0  0  0  0  0  0  0  0
   -7.5392   -2.1938    0.6493 H   0  0  0  0  0  0  0  0  0  0  0  0
    4.3598   -1.7562   -2.1833 H   0  0  0  0  0  0  0  0  0  0  0  0
    1.9381   -2.1046   -1.9528 H   0  0  0  0  0  0  0  0  0  0  0  0
    6.0477   -0.6150   -2.6429 H   0  0  0  0  0  0  0  0  0  0  0  0
    7.5476   -0.7109   -1.6893 H   0  0  0  0  0  0  0  0  0  0  0  0
    6.3460   -2.0205   -1.5922 H   0  0  0  0  0  0  0  0  0  0  0  0
    5.5096    1.0869    3.2092 H   0  0  0  0  0  0  0  0  0  0  0  0
    4.1926   -0.1097    3.1674 H   0  0  0  0  0  0  0  0  0  0  0  0
    5.7157   -0.4323    2.3047 H   0  0  0  0  0  0  0  0  0  0  0  0
    1.7131    0.0676    2.5033 H   0  0  0  0  0  0  0  0  0  0  0  0
  1  2  1  0  0  0  0
  2  3  1  0  0  0  0
  3  4  2  0  0  0  0
  2  5  1  0  0  0  0
  5  6  2  0  0  0  0
  6  7  1  0  0  0  0
  7  8  2  0  0  0  0
  8  9  1  0  0  0  0
  9 10  2  0  0  0  0
 10 11  1  0  0  0  0
 11 12  2  0  0  0  0
 12 13  1  0  0  0  0
 13 14  2  0  0  0  0
  9 14  1  0  0  0  0
  5 14  1  0  0  0  0
 12 15  1  0  0  0  0
 15 16  1  0  0  0  0
 11 17  1  0  0  0  0
 17 18  1  0  0  0  0
  6 19  1  0  0  0  0
 19 20  2  0  0  0  0
 20 21  1  0  0  0  0
 21 22  2  0  0  0  0
 22 23  1  0  0  0  0
 23 24  2  0  0  0  0
 19 24  1  0  0  0  0
 22 25  1  0  0  0  0
 25 26  1  0  0  0  0
 21 27  1  0  0  0  0
 27 28  1  0  0  0  0
 20 29  1  0  0  0  0
  1 30  1  0  0  0  0
  1 31  1  0  0  0  0
  1 32  1  0  0  0  0
  3 33  1  0  0  0  0
  7 34  1  0  0  0  0
  8 35  1  0  0  0  0
 10 36  1  0  0  0  0
 13 37  1  0  0  0  0
 16 38  1  0  0  0  0
 16 39  1  0  0  0  0
 16 40  1  0  0  0  0
 18 41  1  0  0  0  0
 18 42  1  0  0  0  0
 18 43  1  0  0  0  0
 23 44  1  0  0  0  0
 24 45  1  0  0  0  0
 26 46  1  0  0  0  0
 26 47  1  0  0  0  0
 26 48  1  0  0  0  0
 28 49  1  0  0  0  0
 28 50  1  0  0  0  0
 28 51  1  0  0  0  0
 29 52  1  0  0  0  0
M  END
$$$$
