C17H14O7
APtclcactv06281817063D 0   0.00000     0.00000
 
 38 40  0  0  0  0  0  0  0  0999 V2000
   -7.1339   -0.3492    0.7342 C   0  0  0  0  0  0  0  0  0  0  0  0
   -6.2797   -1.0767   -0.1507 O   0  0  0  0  0  0  0  0  0  0  0  0
   -4.9598   -0.7580   -0.1340 C   0  0  0  0  0  0  0  0  0  0  0  0
   -4.0749   -1.4277   -0.9702 C   0  0  0  0  0  0  0  0  0  0  0  0
   -2.7352   -1.1074   -0.9569 C   0  0  0  0  0  0  0  0  0  0  0  0
   -2.2664   -0.1070   -0.1005 C   0  0  0  0  0  0  0  0  0  0  0  0
   -3.1603    0.5640    0.7390 C   0  0  0  0  0  0  0  0  0  0  0  0
   -4.4991    0.2408    0.7152 C   0  0  0  0  0  0  0  0  0  0  0  0
   -0.8331    0.2390   -0.0823 C   0  0  0  0  0  0  0  0  0  0  0  0
   -0.4746    1.5526   -0.1361 C   0  0  0  0  0  0  0  0  0  0  0  0
    0.9002    1.9022   -0.1195 C   0  0  0  0  0  0  0  0  0  0  0  0
    1.2586    3.0683   -0.1659 O   0  0  0  0  0  0  0  0  0  0  0  0
    1.8775    0.8045   -0.0436 C   0  0  0  0  0  0  0  0  0  0  0  0
    3.2544    1.0588   -0.0219 C   0  0  0  0  0  0  0  0  0  0  0  0
    4.1427   -0.0020    0.0505 C   0  0  0  0  0  0  0  0  0  0  0  0
    3.6657   -1.3106    0.1006 C   0  0  0  0  0  0  0  0  0  0  0  0
    2.3040   -1.5666    0.0789 C   0  0  0  0  0  0  0  0  0  0  0  0
    1.4004   -0.5174    0.0076 C   0  0  0  0  0  0  0  0  0  0  0  0
    0.0709   -0.7525   -0.0079 O   0  0  0  0  0  0  0  0  0  0  0  0
    4.5437   -2.3447    0.1710 O   0  0  0  0  0  0  0  0  0  0  0  0
    3.9921   -3.6620    0.2197 C   0  0  0  0  0  0  0  0  0  0  0  0
    5.4834    0.2342    0.0722 O   0  0  0  0  0  0  0  0  0  0  0  0
    3.7156    2.3355   -0.0719 O   0  0  0  0  0  0  0  0  0  0  0  0
   -1.4279    2.5214   -0.2057 O   0  0  0  0  0  0  0  0  0  0  0  0
   -7.0860    0.7129    0.4941 H   0  0  0  0  0  0  0  0  0  0  0  0
   -8.1592   -0.7015    0.6208 H   0  0  0  0  0  0  0  0  0  0  0  0
   -6.8082   -0.5042    1.7628 H   0  0  0  0  0  0  0  0  0  0  0  0
   -4.4379   -2.2007   -1.6312 H   0  0  0  0  0  0  0  0  0  0  0  0
   -2.0481   -1.6287   -1.6069 H   0  0  0  0  0  0  0  0  0  0  0  0
   -2.8024    1.3376    1.4023 H   0  0  0  0  0  0  0  0  0  0  0  0
   -5.1905    0.7589    1.3631 H   0  0  0  0  0  0  0  0  0  0  0  0
    1.9460   -2.5848    0.1175 H   0  0  0  0  0  0  0  0  0  0  0  0
    3.3562   -3.7573    1.0999 H   0  0  0  0  0  0  0  0  0  0  0  0
    3.3998   -3.8413   -0.6776 H   0  0  0  0  0  0  0  0  0  0  0  0
    4.7995   -4.3922    0.2740 H   0  0  0  0  0  0  0  0  0  0  0  0
    5.8490    0.3444    0.9606 H   0  0  0  0  0  0  0  0  0  0  0  0
    3.8273    2.7475    0.7958 H   0  0  0  0  0  0  0  0  0  0  0  0
   -1.0733    3.4204   -0.2398 H   0  0  0  0  0  0  0  0  0  0  0  0
  1  2  1  0  0  0  0
  2  3  1  0  0  0  0
  3  4  2  0  0  0  0
  4  5  1  0  0  0  0
  5  6  2  0  0  0  0
  6  7  1  0  0  0  0
  7  8  2  0  0  0  0
  3  8  1  0  0  0  0
  6  9  1  0  0  0  0
  9 10  2  0  0  0  0
 10 11  1  0  0  0  0
 11 12  2  0  0  0  0
 11 13  1  0  0  0  0
 13 14  2  0  0  0  0
 14 15  1  0  0  0  0
 15 16  2  0  0  0  0
 16 17  1  0  0  0  0
 17 18  2  0  0  0  0
 13 18  1  0  0  0  0
 18 19  1  0  0  0  0
  9 19  1  0  0  0  0
 16 20  1  0  0  0  0
 20 21  1  0  0  0  0
 15 22  1  0  0  0  0
 14 23  1  0  0  0  0
 10 24  1  0  0  0  0
  1 25  1  0  0  0  0
  1 26  1  0  0  0  0
  1 27  1  0  0  0  0
  4 28  1  0  0  0  0
  5 29  1  0  0  0  0
  7 30  1  0  0  0  0
  8 31  1  0  0  0  0
 17 32  1  0  0  0  0
 21 33  1  0  0  0  0
 21 34  1  0  0  0  0
 21 35  1  0  0  0  0
 22 36  1  0  0  0  0
 23 37  1  0  0  0  0
 24 38  1  0  0  0  0
M  END
$$$$
