C16H12O6
APtclcactv06281817063D 0   0.00000     0.00000
 
 34 36  0  0  0  0  0  0  0  0999 V2000
    5.4815    0.0845    0.9690 C   0  0  0  0  0  0  0  0  0  0  0  0
    4.7663    0.0055   -0.2656 O   0  0  0  0  0  0  0  0  0  0  0  0
    3.4249    0.2338   -0.2185 C   0  0  0  0  0  0  0  0  0  0  0  0
    2.9330    1.5273   -0.3821 C   0  0  0  0  0  0  0  0  0  0  0  0
    1.5701    1.7749   -0.3362 C   0  0  0  0  0  0  0  0  0  0  0  0
    0.6812    0.7324   -0.1261 C   0  0  0  0  0  0  0  0  0  0  0  0
    1.1733   -0.5743    0.0389 C   0  0  0  0  0  0  0  0  0  0  0  0
    2.5500   -0.8213   -0.0137 C   0  0  0  0  0  0  0  0  0  0  0  0
    3.0255   -2.0837    0.1452 O   0  0  0  0  0  0  0  0  0  0  0  0
    0.2091   -1.6654    0.2609 C   0  0  0  0  0  0  0  0  0  0  0  0
    0.5801   -2.8184    0.4108 O   0  0  0  0  0  0  0  0  0  0  0  0
   -1.1634   -1.3248    0.2940 C   0  0  0  0  0  0  0  0  0  0  0  0
   -1.5373   -0.0278    0.1232 C   0  0  0  0  0  0  0  0  0  0  0  0
   -0.6494    0.9586   -0.0780 O   0  0  0  0  0  0  0  0  0  0  0  0
   -2.9728    0.3072    0.1610 C   0  0  0  0  0  0  0  0  0  0  0  0
   -3.4053    1.4746    0.7947 C   0  0  0  0  0  0  0  0  0  0  0  0
   -4.7488    1.7821    0.8260 C   0  0  0  0  0  0  0  0  0  0  0  0
   -5.6726    0.9388    0.2319 C   0  0  0  0  0  0  0  0  0  0  0  0
   -5.2582   -0.2189   -0.3982 C   0  0  0  0  0  0  0  0  0  0  0  0
   -3.9111   -0.5412   -0.4440 C   0  0  0  0  0  0  0  0  0  0  0  0
   -3.5028   -1.6778   -1.0630 O   0  0  0  0  0  0  0  0  0  0  0  0
    3.7972    2.5549   -0.5879 O   0  0  0  0  0  0  0  0  0  0  0  0
    5.3690    1.0833    1.3908 H   0  0  0  0  0  0  0  0  0  0  0  0
    5.0834   -0.6517    1.6673 H   0  0  0  0  0  0  0  0  0  0  0  0
    6.5376   -0.1178    0.7907 H   0  0  0  0  0  0  0  0  0  0  0  0
    1.2002    2.7815   -0.4639 H   0  0  0  0  0  0  0  0  0  0  0  0
    3.1063   -2.5805   -0.6805 H   0  0  0  0  0  0  0  0  0  0  0  0
   -1.9096   -2.0892    0.4535 H   0  0  0  0  0  0  0  0  0  0  0  0
   -2.6883    2.1350    1.2597 H   0  0  0  0  0  0  0  0  0  0  0  0
   -5.0824    2.6847    1.3165 H   0  0  0  0  0  0  0  0  0  0  0  0
   -6.7232    1.1873    0.2615 H   0  0  0  0  0  0  0  0  0  0  0  0
   -5.9848   -0.8717   -0.8590 H   0  0  0  0  0  0  0  0  0  0  0  0
   -3.3044   -1.5645   -2.0026 H   0  0  0  0  0  0  0  0  0  0  0  0
    3.9946    2.7221   -1.5197 H   0  0  0  0  0  0  0  0  0  0  0  0
  1  2  1  0  0  0  0
  2  3  1  0  0  0  0
  3  4  2  0  0  0  0
  4  5  1  0  0  0  0
  5  6  2  0  0  0  0
  6  7  1  0  0  0  0
  7  8  2  0  0  0  0
  3  8  1  0  0  0  0
  8  9  1  0  0  0  0
  7 10  1  0  0  0  0
 10 11  2  0  0  0  0
 10 12  1  0  0  0  0
 12 13  2  0  0  0  0
 13 14  1  0  0  0  0
  6 14  1  0  0  0  0
 13 15  1  0  0  0  0
 15 16  2  0  0  0  0
 16 17  1  0  0  0  0
 17 18  2  0  0  0  0
 18 19  1  0  0  0  0
 19 20  2  0  0  0  0
 15 20  1  0  0  0  0
 20 21  1  0  0  0  0
  4 22  1  0  0  0  0
  1 23  1  0  0  0  0
  1 24  1  0  0  0  0
  1 25  1  0  0  0  0
  5 26  1  0  0  0  0
  9 27  1  0  0  0  0
 12 28  1  0  0  0  0
 16 29  1  0  0  0  0
 17 30  1  0  0  0  0
 18 31  1  0  0  0  0
 19 32  1  0  0  0  0
 21 33  1  0  0  0  0
 22 34  1  0  0  0  0
M  END
$$$$
