C15H10O5
APtclcactv06281817063D 0   0.00000     0.00000
 
 30 32  0  0  0  0  0  0  0  0999 V2000
   -2.4827   -1.2586   -0.7401 C   0  0  0  0  0  0  0  0  0  0  0  0
   -3.8450   -1.0667   -0.8191 C   0  0  0  0  0  0  0  0  0  0  0  0
   -4.4229    0.0669   -0.2641 C   0  0  0  0  0  0  0  0  0  0  0  0
   -3.6280    1.0162    0.3762 C   0  0  0  0  0  0  0  0  0  0  0  0
   -2.2615    0.8303    0.4592 C   0  0  0  0  0  0  0  0  0  0  0  0
   -1.6795   -0.3110   -0.0996 C   0  0  0  0  0  0  0  0  0  0  0  0
   -0.2213   -0.5148   -0.0136 C   0  0  0  0  0  0  0  0  0  0  0  0
    0.2511   -1.7676    0.2304 C   0  0  0  0  0  0  0  0  0  0  0  0
    1.6460   -1.9826    0.3159 C   0  0  0  0  0  0  0  0  0  0  0  0
    2.1045   -3.0924    0.5329 O   0  0  0  0  0  0  0  0  0  0  0  0
    2.5253   -0.8125    0.1318 C   0  0  0  0  0  0  0  0  0  0  0  0
    1.9330    0.4373   -0.1157 C   0  0  0  0  0  0  0  0  0  0  0  0
    0.5893    0.5414   -0.1844 O   0  0  0  0  0  0  0  0  0  0  0  0
    2.7429    1.5499   -0.2916 C   0  0  0  0  0  0  0  0  0  0  0  0
    4.1196    1.4158   -0.2214 C   0  0  0  0  0  0  0  0  0  0  0  0
    4.6982    0.1726    0.0244 C   0  0  0  0  0  0  0  0  0  0  0  0
    3.9135   -0.9316    0.2001 C   0  0  0  0  0  0  0  0  0  0  0  0
    4.9117    2.5047   -0.3940 O   0  0  0  0  0  0  0  0  0  0  0  0
   -4.1975    2.1255    0.9189 O   0  0  0  0  0  0  0  0  0  0  0  0
   -5.7662    0.2517   -0.3455 O   0  0  0  0  0  0  0  0  0  0  0  0
   -2.0362   -2.1435   -1.1692 H   0  0  0  0  0  0  0  0  0  0  0  0
   -4.4646   -1.7997   -1.3143 H   0  0  0  0  0  0  0  0  0  0  0  0
   -1.6444    1.5654    0.9544 H   0  0  0  0  0  0  0  0  0  0  0  0
   -0.4348   -2.5920    0.3583 H   0  0  0  0  0  0  0  0  0  0  0  0
    2.3016    2.5169   -0.4828 H   0  0  0  0  0  0  0  0  0  0  0  0
    5.7731    0.0815    0.0768 H   0  0  0  0  0  0  0  0  0  0  0  0
    4.3663   -1.8935    0.3908 H   0  0  0  0  0  0  0  0  0  0  0  0
    5.1124    2.9788    0.4246 H   0  0  0  0  0  0  0  0  0  0  0  0
   -4.4672    2.0180    1.8413 H   0  0  0  0  0  0  0  0  0  0  0  0
   -6.2605   -0.1232    0.3963 H   0  0  0  0  0  0  0  0  0  0  0  0
  1  2  2  0  0  0  0
  2  3  1  0  0  0  0
  3  4  2  0  0  0  0
  4  5  1  0  0  0  0
  5  6  2  0  0  0  0
  1  6  1  0  0  0  0
  6  7  1  0  0  0  0
  7  8  2  0  0  0  0
  8  9  1  0  0  0  0
  9 10  2  0  0  0  0
  9 11  1  0  0  0  0
 11 12  2  0  0  0  0
 12 13  1  0  0  0  0
  7 13  1  0  0  0  0
 12 14  1  0  0  0  0
 14 15  2  0  0  0  0
 15 16  1  0  0  0  0
 16 17  2  0  0  0  0
 11 17  1  0  0  0  0
 15 18  1  0  0  0  0
  4 19  1  0  0  0  0
  3 20  1  0  0  0  0
  1 21  1  0  0  0  0
  2 22  1  0  0  0  0
  5 23  1  0  0  0  0
  8 24  1  0  0  0  0
 14 25  1  0  0  0  0
 16 26  1  0  0  0  0
 17 27  1  0  0  0  0
 18 28  1  0  0  0  0
 19 29  1  0  0  0  0
 20 30  1  0  0  0  0
M  END
$$$$
