C15H8O6
APtclcactv06281817063D 0   0.00000     0.00000
 
 29 32  0  0  0  0  0  0  0  0999 V2000
    4.2342   -1.2335    0.1330 C   0  0  0  0  0  0  0  0  0  0  0  0
    2.8720   -1.4599    0.0345 C   0  0  0  0  0  0  0  0  0  0  0  0
    2.0476   -0.3390   -0.0457 C   0  0  0  0  0  0  0  0  0  0  0  0
    2.5798    0.9740   -0.0269 C   0  0  0  0  0  0  0  0  0  0  0  0
    3.9516    1.1788    0.0721 C   0  0  0  0  0  0  0  0  0  0  0  0
    4.7597    0.0507    0.1509 C   0  0  0  0  0  0  0  0  0  0  0  0
    6.1062    0.2102    0.2492 O   0  0  0  0  0  0  0  0  0  0  0  0
    1.5626    1.8435   -0.1161 O   0  0  0  0  0  0  0  0  0  0  0  0
    0.3833    1.2130   -0.1976 C   0  0  0  0  0  0  0  0  0  0  0  0
    0.6134   -0.1646   -0.1565 C   0  0  0  0  0  0  0  0  0  0  0  0
   -0.5039   -1.1098   -0.2207 C   0  0  0  0  0  0  0  0  0  0  0  0
   -0.3533   -2.3118   -0.3619 O   0  0  0  0  0  0  0  0  0  0  0  0
   -1.8343   -0.4687   -0.0979 C   0  0  0  0  0  0  0  0  0  0  0  0
   -2.9815   -1.2574    0.0580 C   0  0  0  0  0  0  0  0  0  0  0  0
   -4.2164   -0.6489    0.1847 C   0  0  0  0  0  0  0  0  0  0  0  0
   -4.3119    0.7377    0.1546 C   0  0  0  0  0  0  0  0  0  0  0  0
   -3.1819    1.5213   -0.0059 C   0  0  0  0  0  0  0  0  0  0  0  0
   -1.9285    0.9317   -0.1382 C   0  0  0  0  0  0  0  0  0  0  0  0
   -0.8516    1.7330   -0.3088 O   0  0  0  0  0  0  0  0  0  0  0  0
   -5.5266    1.3299    0.2836 O   0  0  0  0  0  0  0  0  0  0  0  0
   -2.8814   -2.6104    0.0841 O   0  0  0  0  0  0  0  0  0  0  0  0
    4.9044   -2.0775    0.2021 H   0  0  0  0  0  0  0  0  0  0  0  0
    2.4662   -2.4606    0.0201 H   0  0  0  0  0  0  0  0  0  0  0  0
    4.3720    2.1736    0.0863 H   0  0  0  0  0  0  0  0  0  0  0  0
    6.4297    0.2707    1.1584 H   0  0  0  0  0  0  0  0  0  0  0  0
   -5.1056   -1.2498    0.3064 H   0  0  0  0  0  0  0  0  0  0  0  0
   -3.2738    2.5972   -0.0285 H   0  0  0  0  0  0  0  0  0  0  0  0
   -5.7726    1.5277    1.1976 H   0  0  0  0  0  0  0  0  0  0  0  0
   -2.7499   -2.9781    0.9688 H   0  0  0  0  0  0  0  0  0  0  0  0
  1  2  2  0  0  0  0
  2  3  1  0  0  0  0
  3  4  2  0  0  0  0
  4  5  1  0  0  0  0
  5  6  2  0  0  0  0
  1  6  1  0  0  0  0
  6  7  1  0  0  0  0
  4  8  1  0  0  0  0
  8  9  1  0  0  0  0
  9 10  2  0  0  0  0
  3 10  1  0  0  0  0
 10 11  1  0  0  0  0
 11 12  2  0  0  0  0
 11 13  1  0  0  0  0
 13 14  2  0  0  0  0
 14 15  1  0  0  0  0
 15 16  2  0  0  0  0
 16 17  1  0  0  0  0
 17 18  2  0  0  0  0
 13 18  1  0  0  0  0
 18 19  1  0  0  0  0
  9 19  1  0  0  0  0
 16 20  1  0  0  0  0
 14 21  1  0  0  0  0
  1 22  1  0  0  0  0
  2 23  1  0  0  0  0
  5 24  1  0  0  0  0
  7 25  1  0  0  0  0
 15 26  1  0  0  0  0
 17 27  1  0  0  0  0
 20 28  1  0  0  0  0
 21 29  1  0  0  0  0
M  END
$$$$
