C23H20O6
APtclcactv06281817063D 0   0.00000     0.00000
 
 49 53  0  0  0  0  0  0  0  0999 V2000
    5.6761   -0.7182   -1.8285 C   0  0  0  0  0  0  0  0  0  0  0  0
    5.8865   -0.3446   -0.3599 C   0  0  0  0  0  0  0  0  0  0  0  0
    5.7728    1.1492   -0.2076 C   0  0  0  0  0  0  0  0  0  0  0  0
    4.5920    1.7079    0.0439 C   0  0  0  0  0  0  0  0  0  0  0  0
    3.4192    0.8242    0.2035 C   0  0  0  0  0  0  0  0  0  0  0  0
    3.6339   -0.5534    0.3786 C   0  0  0  0  0  0  0  0  0  0  0  0
    4.9103   -1.0118    0.4387 O   0  0  0  0  0  0  0  0  0  0  0  0
    2.5631   -1.4177    0.5051 C   0  0  0  0  0  0  0  0  0  0  0  0
    1.2616   -0.9304    0.4775 C   0  0  0  0  0  0  0  0  0  0  0  0
    1.0441    0.4498    0.3113 C   0  0  0  0  0  0  0  0  0  0  0  0
    2.1228    1.3319    0.1787 C   0  0  0  0  0  0  0  0  0  0  0  0
    1.9083    2.6623    0.0280 O   0  0  0  0  0  0  0  0  0  0  0  0
   -0.3454    0.9424    0.2713 C   0  0  0  0  0  0  0  0  0  0  0  0
   -0.6130    2.1280    0.3569 O   0  0  0  0  0  0  0  0  0  0  0  0
   -1.3911   -0.0859    0.1221 C   0  0  0  0  0  0  0  0  0  0  0  0
   -2.7137    0.2598   -0.1939 C   0  0  0  0  0  0  0  0  0  0  0  0
   -3.1250    1.6640   -0.3875 C   0  0  0  0  0  0  0  0  0  0  0  0
   -4.4271    1.9476   -0.3558 C   0  0  0  0  0  0  0  0  0  0  0  0
   -5.4299    0.8501   -0.1142 C   0  0  0  0  0  0  0  0  0  0  0  0
   -4.9520   -0.3885   -0.6406 O   0  0  0  0  0  0  0  0  0  0  0  0
   -3.6765   -0.7421   -0.3335 C   0  0  0  0  0  0  0  0  0  0  0  0
   -3.3164   -2.0745   -0.1582 C   0  0  0  0  0  0  0  0  0  0  0  0
   -2.0104   -2.4150    0.1566 C   0  0  0  0  0  0  0  0  0  0  0  0
   -1.0368   -1.4333    0.3015 C   0  0  0  0  0  0  0  0  0  0  0  0
    0.2266   -1.7832    0.6193 O   0  0  0  0  0  0  0  0  0  0  0  0
   -4.2522   -3.0492   -0.2962 O   0  0  0  0  0  0  0  0  0  0  0  0
   -5.6657    0.7029    1.3903 C   0  0  0  0  0  0  0  0  0  0  0  0
   -6.7508    1.2131   -0.7956 C   0  0  0  0  0  0  0  0  0  0  0  0
    7.2833   -0.7902    0.0776 C   0  0  0  0  0  0  0  0  0  0  0  0
    6.4346   -0.2295   -2.4401 H   0  0  0  0  0  0  0  0  0  0  0  0
    5.7575   -1.7991   -1.9437 H   0  0  0  0  0  0  0  0  0  0  0  0
    4.6863   -0.3923   -2.1481 H   0  0  0  0  0  0  0  0  0  0  0  0
    6.6524    1.7686   -0.3025 H   0  0  0  0  0  0  0  0  0  0  0  0
    4.4935    2.7800    0.1296 H   0  0  0  0  0  0  0  0  0  0  0  0
    2.7383   -2.4765    0.6257 H   0  0  0  0  0  0  0  0  0  0  0  0
    1.8697    3.1513    0.8614 H   0  0  0  0  0  0  0  0  0  0  0  0
   -2.3916    2.4400   -0.5499 H   0  0  0  0  0  0  0  0  0  0  0  0
   -4.7626    2.9636   -0.5029 H   0  0  0  0  0  0  0  0  0  0  0  0
   -1.7461   -3.4536    0.2901 H   0  0  0  0  0  0  0  0  0  0  0  0
   -4.3322   -3.3929   -1.1965 H   0  0  0  0  0  0  0  0  0  0  0  0
   -6.0481    1.6413    1.7917 H   0  0  0  0  0  0  0  0  0  0  0  0
   -6.3912   -0.0909    1.5683 H   0  0  0  0  0  0  0  0  0  0  0  0
   -4.7259    0.4532    1.8827 H   0  0  0  0  0  0  0  0  0  0  0  0
   -6.5872    1.3286   -1.8671 H   0  0  0  0  0  0  0  0  0  0  0  0
   -7.4787    0.4205   -0.6225 H   0  0  0  0  0  0  0  0  0  0  0  0
   -7.1275    2.1489   -0.3827 H   0  0  0  0  0  0  0  0  0  0  0  0
    8.0328   -0.2922   -0.5375 H   0  0  0  0  0  0  0  0  0  0  0  0
    7.4379   -0.5260    1.1237 H   0  0  0  0  0  0  0  0  0  0  0  0
    7.3742   -1.8698   -0.0418 H   0  0  0  0  0  0  0  0  0  0  0  0
  1  2  1  0  0  0  0
  2  3  1  0  0  0  0
  3  4  2  0  0  0  0
  4  5  1  0  0  0  0
  5  6  2  0  0  0  0
  6  7  1  0  0  0  0
  2  7  1  0  0  0  0
  6  8  1  0  0  0  0
  8  9  2  0  0  0  0
  9 10  1  0  0  0  0
 10 11  2  0  0  0  0
  5 11  1  0  0  0  0
 11 12  1  0  0  0  0
 10 13  1  0  0  0  0
 13 14  2  0  0  0  0
 13 15  1  0  0  0  0
 15 16  2  0  0  0  0
 16 17  1  0  0  0  0
 17 18  2  0  0  0  0
 18 19  1  0  0  0  0
 19 20  1  0  0  0  0
 20 21  1  0  0  0  0
 16 21  1  0  0  0  0
 21 22  2  0  0  0  0
 22 23  1  0  0  0  0
 23 24  2  0  0  0  0
 15 24  1  0  0  0  0
 24 25  1  0  0  0  0
  9 25  1  0  0  0  0
 22 26  1  0  0  0  0
 19 27  1  0  0  0  0
 19 28  1  0  0  0  0
  2 29  1  0  0  0  0
  1 30  1  0  0  0  0
  1 31  1  0  0  0  0
  1 32  1  0  0  0  0
  3 33  1  0  0  0  0
  4 34  1  0  0  0  0
  8 35  1  0  0  0  0
 12 36  1  0  0  0  0
 17 37  1  0  0  0  0
 18 38  1  0  0  0  0
 23 39  1  0  0  0  0
 26 40  1  0  0  0  0
 27 41  1  0  0  0  0
 27 42  1  0  0  0  0
 27 43  1  0  0  0  0
 28 44  1  0  0  0  0
 28 45  1  0  0  0  0
 28 46  1  0  0  0  0
 29 47  1  0  0  0  0
 29 48  1  0  0  0  0
 29 49  1  0  0  0  0
M  END
$$$$
