C25H26O5
APtclcactv06281817063D 0   0.00000     0.00000
 
 56 58  0  0  0  0  0  0  0  0999 V2000
    5.1525   -2.3142   -2.0632 C   0  0  0  0  0  0  0  0  0  0  0  0
    5.5374   -2.3305   -0.6062 C   0  0  0  0  0  0  0  0  0  0  0  0
    5.6264   -1.2063    0.0604 C   0  0  0  0  0  0  0  0  0  0  0  0
    5.2769    0.0971   -0.6103 C   0  0  0  0  0  0  0  0  0  0  0  0
    4.1471    0.7589    0.1358 C   0  0  0  0  0  0  0  0  0  0  0  0
    4.4221    1.6348    1.1756 C   0  0  0  0  0  0  0  0  0  0  0  0
    3.3843    2.2477    1.8661 C   0  0  0  0  0  0  0  0  0  0  0  0
    2.0743    1.9888    1.5220 C   0  0  0  0  0  0  0  0  0  0  0  0
    1.7890    1.1096    0.4781 C   0  0  0  0  0  0  0  0  0  0  0  0
    2.8354    0.4967   -0.2204 C   0  0  0  0  0  0  0  0  0  0  0  0
    2.5645   -0.3606   -1.2388 O   0  0  0  0  0  0  0  0  0  0  0  0
    0.3829    0.8294    0.1060 C   0  0  0  0  0  0  0  0  0  0  0  0
   -0.3671    1.7467   -0.5881 C   0  0  0  0  0  0  0  0  0  0  0  0
   -1.7176    1.4207   -0.8811 C   0  0  0  0  0  0  0  0  0  0  0  0
   -2.3057    0.2842   -0.2957 C   0  0  0  0  0  0  0  0  0  0  0  0
   -3.6082   -0.0583   -0.6242 C   0  0  0  0  0  0  0  0  0  0  0  0
   -4.3264    0.7324   -1.5065 C   0  0  0  0  0  0  0  0  0  0  0  0
   -3.7499    1.8724   -2.0637 C   0  0  0  0  0  0  0  0  0  0  0  0
   -2.4671    2.2196   -1.7567 C   0  0  0  0  0  0  0  0  0  0  0  0
   -5.6005    0.3941   -1.8310 O   0  0  0  0  0  0  0  0  0  0  0  0
   -4.2409   -1.2872   -0.0238 C   0  0  0  0  0  0  0  0  0  0  0  0
   -4.9308   -0.9186    1.2643 C   0  0  0  0  0  0  0  0  0  0  0  0
   -6.1936   -1.2194    1.4403 C   0  0  0  0  0  0  0  0  0  0  0  0
   -6.9925   -1.8101    0.3073 C   0  0  0  0  0  0  0  0  0  0  0  0
   -6.8474   -0.9746    2.7759 C   0  0  0  0  0  0  0  0  0  0  0  0
   -1.6089   -0.4564    0.5999 O   0  0  0  0  0  0  0  0  0  0  0  0
   -0.2619   -0.4456    0.4609 C   0  0  0  0  0  0  0  0  0  0  0  0
    0.3941   -1.4567    0.6318 O   0  0  0  0  0  0  0  0  0  0  0  0
    5.7108    1.8939    1.5200 O   0  0  0  0  0  0  0  0  0  0  0  0
    5.8197   -3.6401    0.0839 C   0  0  0  0  0  0  0  0  0  0  0  0
    5.8298   -1.6585   -2.6105 H   0  0  0  0  0  0  0  0  0  0  0  0
    5.2185   -3.3241   -2.4678 H   0  0  0  0  0  0  0  0  0  0  0  0
    4.1310   -1.9480   -2.1650 H   0  0  0  0  0  0  0  0  0  0  0  0
    5.9504   -1.2137    1.0906 H   0  0  0  0  0  0  0  0  0  0  0  0
    6.1478    0.7526   -0.6068 H   0  0  0  0  0  0  0  0  0  0  0  0
    4.9703   -0.0942   -1.6387 H   0  0  0  0  0  0  0  0  0  0  0  0
    3.6040    2.9286    2.6751 H   0  0  0  0  0  0  0  0  0  0  0  0
    1.2696    2.4666    2.0610 H   0  0  0  0  0  0  0  0  0  0  0  0
    2.4996    0.0651   -2.1047 H   0  0  0  0  0  0  0  0  0  0  0  0
    0.0578    2.6888   -0.9016 H   0  0  0  0  0  0  0  0  0  0  0  0
   -4.3232    2.4855   -2.7432 H   0  0  0  0  0  0  0  0  0  0  0  0
   -2.0294    3.1082   -2.1871 H   0  0  0  0  0  0  0  0  0  0  0  0
   -6.2700    0.7783   -1.2484 H   0  0  0  0  0  0  0  0  0  0  0  0
   -4.9702   -1.6983   -0.7218 H   0  0  0  0  0  0  0  0  0  0  0  0
   -3.4703   -2.0315    0.1768 H   0  0  0  0  0  0  0  0  0  0  0  0
   -4.3842   -0.4066    2.0424 H   0  0  0  0  0  0  0  0  0  0  0  0
   -6.8342   -2.8881    0.2744 H   0  0  0  0  0  0  0  0  0  0  0  0
   -8.0513   -1.6030    0.4626 H   0  0  0  0  0  0  0  0  0  0  0  0
   -6.6699   -1.3666   -0.6347 H   0  0  0  0  0  0  0  0  0  0  0  0
   -6.7934    0.0869    3.0178 H   0  0  0  0  0  0  0  0  0  0  0  0
   -7.8916   -1.2844    2.7315 H   0  0  0  0  0  0  0  0  0  0  0  0
   -6.3303   -1.5492    3.5443 H   0  0  0  0  0  0  0  0  0  0  0  0
    6.1012    2.6421    1.0479 H   0  0  0  0  0  0  0  0  0  0  0  0
    6.8789   -3.8797   -0.0107 H   0  0  0  0  0  0  0  0  0  0  0  0
    5.5584   -3.5586    1.1390 H   0  0  0  0  0  0  0  0  0  0  0  0
    5.2261   -4.4294   -0.3775 H   0  0  0  0  0  0  0  0  0  0  0  0
  1  2  1  0  0  0  0
  2  3  2  0  0  0  0
  3  4  1  0  0  0  0
  4  5  1  0  0  0  0
  5  6  2  0  0  0  0
  6  7  1  0  0  0  0
  7  8  2  0  0  0  0
  8  9  1  0  0  0  0
  9 10  2  0  0  0  0
  5 10  1  0  0  0  0
 10 11  1  0  0  0  0
  9 12  1  0  0  0  0
 12 13  2  0  0  0  0
 13 14  1  0  0  0  0
 14 15  2  0  0  0  0
 15 16  1  0  0  0  0
 16 17  2  0  0  0  0
 17 18  1  0  0  0  0
 18 19  2  0  0  0  0
 14 19  1  0  0  0  0
 17 20  1  0  0  0  0
 16 21  1  0  0  0  0
 21 22  1  0  0  0  0
 22 23  2  0  0  0  0
 23 24  1  0  0  0  0
 23 25  1  0  0  0  0
 15 26  1  0  0  0  0
 26 27  1  0  0  0  0
 12 27  1  0  0  0  0
 27 28  2  0  0  0  0
  6 29  1  0  0  0  0
  2 30  1  0  0  0  0
  1 31  1  0  0  0  0
  1 32  1  0  0  0  0
  1 33  1  0  0  0  0
  3 34  1  0  0  0  0
  4 35  1  0  0  0  0
  4 36  1  0  0  0  0
  7 37  1  0  0  0  0
  8 38  1  0  0  0  0
 11 39  1  0  0  0  0
 13 40  1  0  0  0  0
 18 41  1  0  0  0  0
 19 42  1  0  0  0  0
 20 43  1  0  0  0  0
 21 44  1  0  0  0  0
 21 45  1  0  0  0  0
 22 46  1  0  0  0  0
 24 47  1  0  0  0  0
 24 48  1  0  0  0  0
 24 49  1  0  0  0  0
 25 50  1  0  0  0  0
 25 51  1  0  0  0  0
 25 52  1  0  0  0  0
 29 53  1  0  0  0  0
 30 54  1  0  0  0  0
 30 55  1  0  0  0  0
 30 56  1  0  0  0  0
M  END
$$$$
