C19H16O4
APtclcactv06281817063D 0   0.00000     0.00000
 
 39 40  0  0  0  0  0  0  0  0999 V2000
   -4.8835   -1.1799    0.0550 C   0  0  0  0  0  0  0  0  0  0  0  0
   -6.0748   -1.8696    0.0385 C   0  0  0  0  0  0  0  0  0  0  0  0
   -7.2782   -1.1811   -0.0637 C   0  0  0  0  0  0  0  0  0  0  0  0
   -7.2857    0.2064   -0.1497 C   0  0  0  0  0  0  0  0  0  0  0  0
   -6.1002    0.9059   -0.1341 C   0  0  0  0  0  0  0  0  0  0  0  0
   -4.8854    0.2175   -0.0313 C   0  0  0  0  0  0  0  0  0  0  0  0
   -3.6169    0.9590   -0.0137 C   0  0  0  0  0  0  0  0  0  0  0  0
   -2.4451    0.2918    0.0856 C   0  0  0  0  0  0  0  0  0  0  0  0
   -1.2227    1.0063    0.1026 C   0  0  0  0  0  0  0  0  0  0  0  0
   -0.0284    0.3263    0.2038 C   0  0  0  0  0  0  0  0  0  0  0  0
    1.1912    1.0261    0.1081 C   0  0  0  0  0  0  0  0  0  0  0  0
    1.1920    2.2453    0.0435 O   0  0  0  0  0  0  0  0  0  0  0  0
    2.4587    0.2900    0.0861 C   0  0  0  0  0  0  0  0  0  0  0  0
    3.6261    0.9598   -0.0054 C   0  0  0  0  0  0  0  0  0  0  0  0
    4.8975    0.2215   -0.0275 C   0  0  0  0  0  0  0  0  0  0  0  0
    6.1101    0.9140   -0.1224 C   0  0  0  0  0  0  0  0  0  0  0  0
    7.2978    0.2180   -0.1422 C   0  0  0  0  0  0  0  0  0  0  0  0
    7.2941   -1.1701   -0.0681 C   0  0  0  0  0  0  0  0  0  0  0  0
    6.0925   -1.8627    0.0259 C   0  0  0  0  0  0  0  0  0  0  0  0
    4.8995   -1.1759    0.0523 C   0  0  0  0  0  0  0  0  0  0  0  0
    8.4680   -1.8517   -0.0879 O   0  0  0  0  0  0  0  0  0  0  0  0
   -1.2273    2.3575    0.0195 O   0  0  0  0  0  0  0  0  0  0  0  0
   -8.4501   -1.8662   -0.0800 O   0  0  0  0  0  0  0  0  0  0  0  0
   -3.9494   -1.7155    0.1389 H   0  0  0  0  0  0  0  0  0  0  0  0
   -6.0745   -2.9476    0.1046 H   0  0  0  0  0  0  0  0  0  0  0  0
   -8.2234    0.7364   -0.2293 H   0  0  0  0  0  0  0  0  0  0  0  0
   -6.1072    1.9838   -0.2013 H   0  0  0  0  0  0  0  0  0  0  0  0
   -3.6206    2.0370   -0.0800 H   0  0  0  0  0  0  0  0  0  0  0  0
   -2.4414   -0.7862    0.1519 H   0  0  0  0  0  0  0  0  0  0  0  0
   -0.0271   -0.7428    0.3564 H   0  0  0  0  0  0  0  0  0  0  0  0
    2.4580   -0.7885    0.1433 H   0  0  0  0  0  0  0  0  0  0  0  0
    3.6269    2.0382   -0.0625 H   0  0  0  0  0  0  0  0  0  0  0  0
    6.1140    1.9924   -0.1804 H   0  0  0  0  0  0  0  0  0  0  0  0
    8.2340    0.7514   -0.2158 H   0  0  0  0  0  0  0  0  0  0  0  0
    6.0949   -2.9412    0.0825 H   0  0  0  0  0  0  0  0  0  0  0  0
    3.9665   -1.7149    0.1253 H   0  0  0  0  0  0  0  0  0  0  0  0
    8.8502   -2.0023    0.7874 H   0  0  0  0  0  0  0  0  0  0  0  0
   -0.3464    2.7503   -0.0489 H   0  0  0  0  0  0  0  0  0  0  0  0
   -8.8335   -2.0107    0.7959 H   0  0  0  0  0  0  0  0  0  0  0  0
  1  2  2  0  0  0  0
  2  3  1  0  0  0  0
  3  4  2  0  0  0  0
  4  5  1  0  0  0  0
  5  6  2  0  0  0  0
  1  6  1  0  0  0  0
  6  7  1  0  0  0  0
  7  8  2  0  0  0  0
  8  9  1  0  0  0  0
  9 10  2  0  0  0  0
 10 11  1  0  0  0  0
 11 12  2  0  0  0  0
 11 13  1  0  0  0  0
 13 14  2  0  0  0  0
 14 15  1  0  0  0  0
 15 16  2  0  0  0  0
 16 17  1  0  0  0  0
 17 18  2  0  0  0  0
 18 19  1  0  0  0  0
 19 20  2  0  0  0  0
 15 20  1  0  0  0  0
 18 21  1  0  0  0  0
  9 22  1  0  0  0  0
  3 23  1  0  0  0  0
  1 24  1  0  0  0  0
  2 25  1  0  0  0  0
  4 26  1  0  0  0  0
  5 27  1  0  0  0  0
  7 28  1  0  0  0  0
  8 29  1  0  0  0  0
 10 30  1  0  0  0  0
 13 31  1  0  0  0  0
 14 32  1  0  0  0  0
 16 33  1  0  0  0  0
 17 34  1  0  0  0  0
 19 35  1  0  0  0  0
 20 36  1  0  0  0  0
 21 37  1  0  0  0  0
 22 38  1  0  0  0  0
 23 39  1  0  0  0  0
M  END
$$$$
