C15H14O3
APtclcactv06291802533D 0   0.00000     0.00000
 
 32 34  0  0  0  0  0  0  0  0999 V2000
    5.0678    1.1346    0.0836 C   0  0  0  0  0  0  0  0  0  0  0  0
    4.4043   -0.1196   -0.0858 O   0  0  0  0  0  0  0  0  0  0  0  0
    3.0459   -0.1068   -0.0639 C   0  0  0  0  0  0  0  0  0  0  0  0
    2.3697    1.0904    0.1172 C   0  0  0  0  0  0  0  0  0  0  0  0
    0.9846    1.1039    0.1497 C   0  0  0  0  0  0  0  0  0  0  0  0
    0.2771   -0.0890   -0.0003 C   0  0  0  0  0  0  0  0  0  0  0  0
    0.9618   -1.2875   -0.2023 C   0  0  0  0  0  0  0  0  0  0  0  0
    2.3404   -1.2922   -0.2286 C   0  0  0  0  0  0  0  0  0  0  0  0
    0.1949   -2.5632   -0.4262 C   0  0  0  0  0  0  0  0  0  0  0  0
   -1.0754   -2.5851    0.4182 C   0  0  0  0  0  0  0  0  0  0  0  0
   -1.8663   -1.3192    0.2212 C   0  0  0  0  0  0  0  0  0  0  0  0
   -1.2041   -0.1068    0.0351 C   0  0  0  0  0  0  0  0  0  0  0  0
   -1.9316    1.0681   -0.1258 C   0  0  0  0  0  0  0  0  0  0  0  0
   -3.3166    1.0241   -0.1139 C   0  0  0  0  0  0  0  0  0  0  0  0
   -3.9706   -0.1884    0.0589 C   0  0  0  0  0  0  0  0  0  0  0  0
   -3.2465   -1.3539    0.2265 C   0  0  0  0  0  0  0  0  0  0  0  0
   -4.0344    2.1674   -0.2710 O   0  0  0  0  0  0  0  0  0  0  0  0
    0.3181    2.2741    0.3273 O   0  0  0  0  0  0  0  0  0  0  0  0
    4.7684    1.8146   -0.7139 H   0  0  0  0  0  0  0  0  0  0  0  0
    4.7944    1.5629    1.0480 H   0  0  0  0  0  0  0  0  0  0  0  0
    6.1465    0.9830    0.0460 H   0  0  0  0  0  0  0  0  0  0  0  0
    2.9221    2.0112    0.2331 H   0  0  0  0  0  0  0  0  0  0  0  0
    2.8733   -2.2211   -0.3688 H   0  0  0  0  0  0  0  0  0  0  0  0
   -0.0731   -2.6406   -1.4799 H   0  0  0  0  0  0  0  0  0  0  0  0
    0.8222   -3.4117   -0.1528 H   0  0  0  0  0  0  0  0  0  0  0  0
   -1.6862   -3.4393    0.1260 H   0  0  0  0  0  0  0  0  0  0  0  0
   -0.8059   -2.6802    1.4701 H   0  0  0  0  0  0  0  0  0  0  0  0
   -1.4196    2.0096   -0.2589 H   0  0  0  0  0  0  0  0  0  0  0  0
   -5.0501   -0.2210    0.0628 H   0  0  0  0  0  0  0  0  0  0  0  0
   -3.7615   -2.2935    0.3618 H   0  0  0  0  0  0  0  0  0  0  0  0
   -4.2458    2.3758   -1.1913 H   0  0  0  0  0  0  0  0  0  0  0  0
    0.1058    2.7347   -0.4960 H   0  0  0  0  0  0  0  0  0  0  0  0
  1  2  1  0  0  0  0
  2  3  1  0  0  0  0
  3  4  2  0  0  0  0
  4  5  1  0  0  0  0
  5  6  2  0  0  0  0
  6  7  1  0  0  0  0
  7  8  2  0  0  0  0
  3  8  1  0  0  0  0
  7  9  1  0  0  0  0
  9 10  1  0  0  0  0
 10 11  1  0  0  0  0
 11 12  2  0  0  0  0
  6 12  1  0  0  0  0
 12 13  1  0  0  0  0
 13 14  2  0  0  0  0
 14 15  1  0  0  0  0
 15 16  2  0  0  0  0
 11 16  1  0  0  0  0
 14 17  1  0  0  0  0
  5 18  1  0  0  0  0
  1 19  1  0  0  0  0
  1 20  1  0  0  0  0
  1 21  1  0  0  0  0
  4 22  1  0  0  0  0
  8 23  1  0  0  0  0
  9 24  1  0  0  0  0
  9 25  1  0  0  0  0
 10 26  1  0  0  0  0
 10 27  1  0  0  0  0
 13 28  1  0  0  0  0
 15 29  1  0  0  0  0
 16 30  1  0  0  0  0
 17 31  1  0  0  0  0
 18 32  1  0  0  0  0
M  END
$$$$
