C21H26O4
APtclcactv06291802533D 0   0.00000     0.00000
 
 51 52  0  0  0  0  0  0  0  0999 V2000
   -3.0620   -3.7420   -0.6851 C   0  0  0  0  0  0  0  0  0  0  0  0
   -2.4348   -3.3439    0.6260 C   0  0  0  0  0  0  0  0  0  0  0  0
   -1.7486   -2.2314    0.7129 C   0  0  0  0  0  0  0  0  0  0  0  0
   -1.5866   -1.3495   -0.4983 C   0  0  0  0  0  0  0  0  0  0  0  0
   -2.0599    0.0436   -0.1723 C   0  0  0  0  0  0  0  0  0  0  0  0
   -1.1727    0.9736    0.3367 C   0  0  0  0  0  0  0  0  0  0  0  0
   -1.6036    2.2525    0.6369 C   0  0  0  0  0  0  0  0  0  0  0  0
   -2.9236    2.6070    0.4292 C   0  0  0  0  0  0  0  0  0  0  0  0
   -3.8179    1.6799   -0.0812 C   0  0  0  0  0  0  0  0  0  0  0  0
   -3.3830    0.3942   -0.3882 C   0  0  0  0  0  0  0  0  0  0  0  0
   -4.2569   -0.5194   -0.8894 O   0  0  0  0  0  0  0  0  0  0  0  0
   -5.1167    2.0270   -0.2861 O   0  0  0  0  0  0  0  0  0  0  0  0
   -5.4908    3.3653    0.0471 C   0  0  0  0  0  0  0  0  0  0  0  0
    0.2672    0.5923    0.5655 C   0  0  0  0  0  0  0  0  0  0  0  0
    1.0544    0.7692   -0.7345 C   0  0  0  0  0  0  0  0  0  0  0  0
    2.4943    0.3879   -0.5057 C   0  0  0  0  0  0  0  0  0  0  0  0
    2.9025   -0.9165   -0.7065 C   0  0  0  0  0  0  0  0  0  0  0  0
    4.2280   -1.2703   -0.4961 C   0  0  0  0  0  0  0  0  0  0  0  0
    5.1425   -0.3134   -0.0844 C   0  0  0  0  0  0  0  0  0  0  0  0
    4.7304    0.9952    0.1161 C   0  0  0  0  0  0  0  0  0  0  0  0
    3.4053    1.3449   -0.1007 C   0  0  0  0  0  0  0  0  0  0  0  0
    5.6246    1.9354    0.5201 O   0  0  0  0  0  0  0  0  0  0  0  0
    6.9728    1.5055    0.7191 C   0  0  0  0  0  0  0  0  0  0  0  0
    4.6288   -2.5538   -0.6930 O   0  0  0  0  0  0  0  0  0  0  0  0
   -2.5968   -4.2258    1.8373 C   0  0  0  0  0  0  0  0  0  0  0  0
   -2.2846   -3.8523   -1.4412 H   0  0  0  0  0  0  0  0  0  0  0  0
   -3.5878   -4.6890   -0.5637 H   0  0  0  0  0  0  0  0  0  0  0  0
   -3.7674   -2.9724   -0.9989 H   0  0  0  0  0  0  0  0  0  0  0  0
   -1.2991   -1.9461    1.6526 H   0  0  0  0  0  0  0  0  0  0  0  0
   -0.5360   -1.3181   -0.7870 H   0  0  0  0  0  0  0  0  0  0  0  0
   -2.1778   -1.7507   -1.3216 H   0  0  0  0  0  0  0  0  0  0  0  0
   -0.9075    2.9761    1.0347 H   0  0  0  0  0  0  0  0  0  0  0  0
   -3.2578    3.6066    0.6651 H   0  0  0  0  0  0  0  0  0  0  0  0
   -4.3133   -0.5213   -1.8548 H   0  0  0  0  0  0  0  0  0  0  0  0
   -6.5504    3.5096   -0.1641 H   0  0  0  0  0  0  0  0  0  0  0  0
   -5.3041    3.5418    1.1063 H   0  0  0  0  0  0  0  0  0  0  0  0
   -4.9034    4.0654   -0.5470 H   0  0  0  0  0  0  0  0  0  0  0  0
    0.6939    1.2315    1.3385 H   0  0  0  0  0  0  0  0  0  0  0  0
    0.3212   -0.4487    0.8842 H   0  0  0  0  0  0  0  0  0  0  0  0
    0.6277    0.1301   -1.5074 H   0  0  0  0  0  0  0  0  0  0  0  0
    1.0004    1.8102   -1.0531 H   0  0  0  0  0  0  0  0  0  0  0  0
    2.1896   -1.6617   -1.0273 H   0  0  0  0  0  0  0  0  0  0  0  0
    6.1743   -0.5868    0.0802 H   0  0  0  0  0  0  0  0  0  0  0  0
    3.0838    2.3641    0.0553 H   0  0  0  0  0  0  0  0  0  0  0  0
    7.5805    2.3517    1.0396 H   0  0  0  0  0  0  0  0  0  0  0  0
    6.9976    0.7298    1.4844 H   0  0  0  0  0  0  0  0  0  0  0  0
    7.3687    1.1070   -0.2151 H   0  0  0  0  0  0  0  0  0  0  0  0
    4.9286   -2.7385   -1.5936 H   0  0  0  0  0  0  0  0  0  0  0  0
   -1.7798   -4.9464    1.8740 H   0  0  0  0  0  0  0  0  0  0  0  0
   -2.5809   -3.6123    2.7381 H   0  0  0  0  0  0  0  0  0  0  0  0
   -3.5468   -4.7565    1.7758 H   0  0  0  0  0  0  0  0  0  0  0  0
  1  2  1  0  0  0  0
  2  3  2  0  0  0  0
  3  4  1  0  0  0  0
  4  5  1  0  0  0  0
  5  6  2  0  0  0  0
  6  7  1  0  0  0  0
  7  8  2  0  0  0  0
  8  9  1  0  0  0  0
  9 10  2  0  0  0  0
  5 10  1  0  0  0  0
 10 11  1  0  0  0  0
  9 12  1  0  0  0  0
 12 13  1  0  0  0  0
  6 14  1  0  0  0  0
 14 15  1  0  0  0  0
 15 16  1  0  0  0  0
 16 17  2  0  0  0  0
 17 18  1  0  0  0  0
 18 19  2  0  0  0  0
 19 20  1  0  0  0  0
 20 21  2  0  0  0  0
 16 21  1  0  0  0  0
 20 22  1  0  0  0  0
 22 23  1  0  0  0  0
 18 24  1  0  0  0  0
  2 25  1  0  0  0  0
  1 26  1  0  0  0  0
  1 27  1  0  0  0  0
  1 28  1  0  0  0  0
  3 29  1  0  0  0  0
  4 30  1  0  0  0  0
  4 31  1  0  0  0  0
  7 32  1  0  0  0  0
  8 33  1  0  0  0  0
 11 34  1  0  0  0  0
 13 35  1  0  0  0  0
 13 36  1  0  0  0  0
 13 37  1  0  0  0  0
 14 38  1  0  0  0  0
 14 39  1  0  0  0  0
 15 40  1  0  0  0  0
 15 41  1  0  0  0  0
 17 42  1  0  0  0  0
 19 43  1  0  0  0  0
 21 44  1  0  0  0  0
 23 45  1  0  0  0  0
 23 46  1  0  0  0  0
 23 47  1  0  0  0  0
 24 48  1  0  0  0  0
 25 49  1  0  0  0  0
 25 50  1  0  0  0  0
 25 51  1  0  0  0  0
M  END
$$$$
