C22H42O2
APtclcactv06291802533D 0   0.00000     0.00000
 
 66 65  0  0  0  0  0  0  0  0999 V2000
  -12.0419    3.7915   -0.3444 C   0  0  0  0  0  0  0  0  0  0  0  0
  -11.6500    2.4388    0.2534 C   0  0  0  0  0  0  0  0  0  0  0  0
  -10.3136    1.9872   -0.3391 C   0  0  0  0  0  0  0  0  0  0  0  0
   -9.9216    0.6345    0.2587 C   0  0  0  0  0  0  0  0  0  0  0  0
   -8.5853    0.1830   -0.3339 C   0  0  0  0  0  0  0  0  0  0  0  0
   -8.1933   -1.1697    0.2640 C   0  0  0  0  0  0  0  0  0  0  0  0
   -6.8771   -1.6145   -0.3197 C   0  0  0  0  0  0  0  0  0  0  0  0
   -5.8779   -1.9159    0.4721 C   0  0  0  0  0  0  0  0  0  0  0  0
   -4.5616   -2.3606   -0.1116 C   0  0  0  0  0  0  0  0  0  0  0  0
   -3.4397   -1.4666    0.4204 C   0  0  0  0  0  0  0  0  0  0  0  0
   -2.1034   -1.9181   -0.1722 C   0  0  0  0  0  0  0  0  0  0  0  0
   -0.9815   -1.0241    0.3599 C   0  0  0  0  0  0  0  0  0  0  0  0
    0.3549   -1.4757   -0.2327 C   0  0  0  0  0  0  0  0  0  0  0  0
    1.4767   -0.5816    0.2993 C   0  0  0  0  0  0  0  0  0  0  0  0
    2.8131   -1.0332   -0.2933 C   0  0  0  0  0  0  0  0  0  0  0  0
    3.9350   -0.1392    0.2387 C   0  0  0  0  0  0  0  0  0  0  0  0
    5.2713   -0.5907   -0.3539 C   0  0  0  0  0  0  0  0  0  0  0  0
    6.3932    0.3033    0.1782 C   0  0  0  0  0  0  0  0  0  0  0  0
    7.7296   -0.1482   -0.4144 C   0  0  0  0  0  0  0  0  0  0  0  0
    8.8514    0.7458    0.1176 C   0  0  0  0  0  0  0  0  0  0  0  0
   10.1878    0.2943   -0.4750 C   0  0  0  0  0  0  0  0  0  0  0  0
   11.2928    1.1749    0.0490 C   0  0  0  0  0  0  0  0  0  0  0  0
   11.0377    2.0716    0.8176 O   0  0  0  0  0  0  0  0  0  0  0  0
   12.5605    0.9630   -0.3380 O   0  0  0  0  0  0  0  0  0  0  0  0
  -11.2734    4.5283   -0.1109 H   0  0  0  0  0  0  0  0  0  0  0  0
  -12.1376    3.6967   -1.4261 H   0  0  0  0  0  0  0  0  0  0  0  0
  -12.9940    4.1132    0.0778 H   0  0  0  0  0  0  0  0  0  0  0  0
  -11.5543    2.5336    1.3351 H   0  0  0  0  0  0  0  0  0  0  0  0
  -12.4185    1.7019    0.0199 H   0  0  0  0  0  0  0  0  0  0  0  0
  -10.4093    1.8924   -1.4208 H   0  0  0  0  0  0  0  0  0  0  0  0
   -9.5451    2.7241   -0.1056 H   0  0  0  0  0  0  0  0  0  0  0  0
   -9.8260    0.7293    1.3403 H   0  0  0  0  0  0  0  0  0  0  0  0
  -10.6902   -0.1023    0.0251 H   0  0  0  0  0  0  0  0  0  0  0  0
   -8.6810    0.0882   -1.4155 H   0  0  0  0  0  0  0  0  0  0  0  0
   -7.8168    0.9198   -0.1003 H   0  0  0  0  0  0  0  0  0  0  0  0
   -8.0977   -1.0749    1.3456 H   0  0  0  0  0  0  0  0  0  0  0  0
   -8.9618   -1.9066    0.0304 H   0  0  0  0  0  0  0  0  0  0  0  0
   -6.7575   -1.6847   -1.3908 H   0  0  0  0  0  0  0  0  0  0  0  0
   -5.9975   -1.8457    1.5431 H   0  0  0  0  0  0  0  0  0  0  0  0
   -4.3685   -3.3947    0.1739 H   0  0  0  0  0  0  0  0  0  0  0  0
   -4.6020   -2.2852   -1.1982 H   0  0  0  0  0  0  0  0  0  0  0  0
   -3.6329   -0.4325    0.1350 H   0  0  0  0  0  0  0  0  0  0  0  0
   -3.3994   -1.5421    1.5071 H   0  0  0  0  0  0  0  0  0  0  0  0
   -1.9102   -2.9522    0.1133 H   0  0  0  0  0  0  0  0  0  0  0  0
   -2.1437   -1.8427   -1.2588 H   0  0  0  0  0  0  0  0  0  0  0  0
   -1.1747    0.0099    0.0744 H   0  0  0  0  0  0  0  0  0  0  0  0
   -0.9412   -1.0996    1.4465 H   0  0  0  0  0  0  0  0  0  0  0  0
    0.5480   -2.5097    0.0527 H   0  0  0  0  0  0  0  0  0  0  0  0
    0.3145   -1.4002   -1.3194 H   0  0  0  0  0  0  0  0  0  0  0  0
    1.2836    0.4524    0.0138 H   0  0  0  0  0  0  0  0  0  0  0  0
    1.5171   -0.6571    1.3859 H   0  0  0  0  0  0  0  0  0  0  0  0
    3.0063   -2.0672   -0.0078 H   0  0  0  0  0  0  0  0  0  0  0  0
    2.7727   -0.9577   -1.3799 H   0  0  0  0  0  0  0  0  0  0  0  0
    3.7418    0.8949   -0.0467 H   0  0  0  0  0  0  0  0  0  0  0  0
    3.9753   -0.2146    1.3254 H   0  0  0  0  0  0  0  0  0  0  0  0
    5.4645   -1.6248   -0.0684 H   0  0  0  0  0  0  0  0  0  0  0  0
    5.2310   -0.5152   -1.4405 H   0  0  0  0  0  0  0  0  0  0  0  0
    6.2000    1.3374   -0.1073 H   0  0  0  0  0  0  0  0  0  0  0  0
    6.4336    0.2278    1.2648 H   0  0  0  0  0  0  0  0  0  0  0  0
    7.9227   -1.1823   -0.1290 H   0  0  0  0  0  0  0  0  0  0  0  0
    7.6892   -0.0727   -1.5011 H   0  0  0  0  0  0  0  0  0  0  0  0
    8.6583    1.7799   -0.1679 H   0  0  0  0  0  0  0  0  0  0  0  0
    8.8918    0.6703    1.2042 H   0  0  0  0  0  0  0  0  0  0  0  0
   10.3810   -0.7398   -0.1895 H   0  0  0  0  0  0  0  0  0  0  0  0
   10.1474    0.3698   -1.5616 H   0  0  0  0  0  0  0  0  0  0  0  0
   13.2348    1.5536    0.0248 H   0  0  0  0  0  0  0  0  0  0  0  0
  1  2  1  0  0  0  0
  2  3  1  0  0  0  0
  3  4  1  0  0  0  0
  4  5  1  0  0  0  0
  5  6  1  0  0  0  0
  6  7  1  0  0  0  0
  7  8  2  0  0  0  0
  8  9  1  0  0  0  0
  9 10  1  0  0  0  0
 10 11  1  0  0  0  0
 11 12  1  0  0  0  0
 12 13  1  0  0  0  0
 13 14  1  0  0  0  0
 14 15  1  0  0  0  0
 15 16  1  0  0  0  0
 16 17  1  0  0  0  0
 17 18  1  0  0  0  0
 18 19  1  0  0  0  0
 19 20  1  0  0  0  0
 20 21  1  0  0  0  0
 21 22  1  0  0  0  0
 22 23  2  0  0  0  0
 22 24  1  0  0  0  0
  1 25  1  0  0  0  0
  1 26  1  0  0  0  0
  1 27  1  0  0  0  0
  2 28  1  0  0  0  0
  2 29  1  0  0  0  0
  3 30  1  0  0  0  0
  3 31  1  0  0  0  0
  4 32  1  0  0  0  0
  4 33  1  0  0  0  0
  5 34  1  0  0  0  0
  5 35  1  0  0  0  0
  6 36  1  0  0  0  0
  6 37  1  0  0  0  0
  7 38  1  0  0  0  0
  8 39  1  0  0  0  0
  9 40  1  0  0  0  0
  9 41  1  0  0  0  0
 10 42  1  0  0  0  0
 10 43  1  0  0  0  0
 11 44  1  0  0  0  0
 11 45  1  0  0  0  0
 12 46  1  0  0  0  0
 12 47  1  0  0  0  0
 13 48  1  0  0  0  0
 13 49  1  0  0  0  0
 14 50  1  0  0  0  0
 14 51  1  0  0  0  0
 15 52  1  0  0  0  0
 15 53  1  0  0  0  0
 16 54  1  0  0  0  0
 16 55  1  0  0  0  0
 17 56  1  0  0  0  0
 17 57  1  0  0  0  0
 18 58  1  0  0  0  0
 18 59  1  0  0  0  0
 19 60  1  0  0  0  0
 19 61  1  0  0  0  0
 20 62  1  0  0  0  0
 20 63  1  0  0  0  0
 21 64  1  0  0  0  0
 21 65  1  0  0  0  0
 24 66  1  0  0  0  0
M  END
$$$$
