C14H13NO2
APtclcactv06291802533D 0   0.00000     0.00000
 
 30 32  0  0  0  0  0  0  0  0999 V2000
    5.0953    0.7910    0.2113 C   0  0  0  0  0  0  0  0  0  0  0  0
    3.7043    1.1132    0.1554 O   0  0  0  0  0  0  0  0  0  0  0  0
    2.8332    0.0736    0.0580 C   0  0  0  0  0  0  0  0  0  0  0  0
    3.3071   -1.2243    0.0171 C   0  0  0  0  0  0  0  0  0  0  0  0
    2.4280   -2.2919   -0.0822 C   0  0  0  0  0  0  0  0  0  0  0  0
    1.0697   -2.0700   -0.1414 C   0  0  0  0  0  0  0  0  0  0  0  0
    0.5764   -0.7664   -0.1013 C   0  0  0  0  0  0  0  0  0  0  0  0
    1.4594    0.3159    0.0048 C   0  0  0  0  0  0  0  0  0  0  0  0
    0.7171    1.4854    0.0239 N   0  0  0  0  0  0  0  0  0  0  0  0
   -0.6324    1.1970   -0.0672 C   0  0  0  0  0  0  0  0  0  0  0  0
   -0.7825   -0.1956   -0.1430 C   0  0  0  0  0  0  0  0  0  0  0  0
   -2.0540   -0.7560   -0.2423 C   0  0  0  0  0  0  0  0  0  0  0  0
   -3.1626    0.0622   -0.2658 C   0  0  0  0  0  0  0  0  0  0  0  0
   -3.0162    1.4391   -0.1913 C   0  0  0  0  0  0  0  0  0  0  0  0
   -1.7646    2.0064   -0.0883 C   0  0  0  0  0  0  0  0  0  0  0  0
   -4.5392   -0.5416   -0.3732 C   0  0  0  0  0  0  0  0  0  0  0  0
   -5.0506   -0.7974    0.9364 O   0  0  0  0  0  0  0  0  0  0  0  0
    5.6781    1.7090    0.2877 H   0  0  0  0  0  0  0  0  0  0  0  0
    5.2885    0.1645    1.0820 H   0  0  0  0  0  0  0  0  0  0  0  0
    5.3805    0.2539   -0.6933 H   0  0  0  0  0  0  0  0  0  0  0  0
    4.3704   -1.4082    0.0626 H   0  0  0  0  0  0  0  0  0  0  0  0
    2.8098   -3.3017   -0.1136 H   0  0  0  0  0  0  0  0  0  0  0  0
    0.3881   -2.9041   -0.2191 H   0  0  0  0  0  0  0  0  0  0  0  0
    1.0901    2.3782    0.0919 H   0  0  0  0  0  0  0  0  0  0  0  0
   -2.1705   -1.8281   -0.3011 H   0  0  0  0  0  0  0  0  0  0  0  0
   -3.8908    2.0723   -0.2112 H   0  0  0  0  0  0  0  0  0  0  0  0
   -1.6617    3.0799   -0.0311 H   0  0  0  0  0  0  0  0  0  0  0  0
   -5.2006    0.1518   -0.8925 H   0  0  0  0  0  0  0  0  0  0  0  0
   -4.4833   -1.4767   -0.9304 H   0  0  0  0  0  0  0  0  0  0  0  0
   -5.9355   -1.1874    0.9439 H   0  0  0  0  0  0  0  0  0  0  0  0
  1  2  1  0  0  0  0
  2  3  1  0  0  0  0
  3  4  2  0  0  0  0
  4  5  1  0  0  0  0
  5  6  2  0  0  0  0
  6  7  1  0  0  0  0
  7  8  2  0  0  0  0
  3  8  1  0  0  0  0
  8  9  1  0  0  0  0
  9 10  1  0  0  0  0
 10 11  2  0  0  0  0
  7 11  1  0  0  0  0
 11 12  1  0  0  0  0
 12 13  2  0  0  0  0
 13 14  1  0  0  0  0
 14 15  2  0  0  0  0
 10 15  1  0  0  0  0
 13 16  1  0  0  0  0
 16 17  1  0  0  0  0
  1 18  1  0  0  0  0
  1 19  1  0  0  0  0
  1 20  1  0  0  0  0
  4 21  1  0  0  0  0
  5 22  1  0  0  0  0
  6 23  1  0  0  0  0
  9 24  1  0  0  0  0
 12 25  1  0  0  0  0
 14 26  1  0  0  0  0
 15 27  1  0  0  0  0
 16 28  1  0  0  0  0
 16 29  1  0  0  0  0
 17 30  1  0  0  0  0
M  END
$$$$
