C17H14O6
APtclcactv06281817063D 0   0.00000     0.00000
 
 37 39  0  0  0  0  0  0  0  0999 V2000
    6.3129    1.3869   -0.0117 C   0  0  0  0  0  0  0  0  0  0  0  0
    5.5800    0.1602   -0.0078 O   0  0  0  0  0  0  0  0  0  0  0  0
    4.2246    0.2516   -0.0046 C   0  0  0  0  0  0  0  0  0  0  0  0
    3.4496   -0.9070   -0.0007 C   0  0  0  0  0  0  0  0  0  0  0  0
    2.0710   -0.8160    0.0030 C   0  0  0  0  0  0  0  0  0  0  0  0
    1.4568    0.4394    0.0027 C   0  0  0  0  0  0  0  0  0  0  0  0
    2.2400    1.5968   -0.0012 C   0  0  0  0  0  0  0  0  0  0  0  0
    3.6147    1.4985    0.0005 C   0  0  0  0  0  0  0  0  0  0  0  0
   -0.0146    0.5426    0.0061 C   0  0  0  0  0  0  0  0  0  0  0  0
   -0.5838    1.7780    0.0058 C   0  0  0  0  0  0  0  0  0  0  0  0
   -1.9938    1.8966    0.0085 C   0  0  0  0  0  0  0  0  0  0  0  0
   -2.5382    2.9889    0.0079 O   0  0  0  0  0  0  0  0  0  0  0  0
   -2.7788    0.6505    0.0116 C   0  0  0  0  0  0  0  0  0  0  0  0
   -4.1788    0.6731    0.0139 C   0  0  0  0  0  0  0  0  0  0  0  0
   -4.8792   -0.5194    0.0163 C   0  0  0  0  0  0  0  0  0  0  0  0
   -4.1962   -1.7305    0.0164 C   0  0  0  0  0  0  0  0  0  0  0  0
   -2.8100   -1.7601    0.0146 C   0  0  0  0  0  0  0  0  0  0  0  0
   -2.0909   -0.5754    0.0117 C   0  0  0  0  0  0  0  0  0  0  0  0
   -0.7410   -0.5865    0.0039 O   0  0  0  0  0  0  0  0  0  0  0  0
   -4.8934   -2.8953    0.0188 O   0  0  0  0  0  0  0  0  0  0  0  0
   -4.8435    1.8563    0.0142 O   0  0  0  0  0  0  0  0  0  0  0  0
    4.0505   -2.1270   -0.0009 O   0  0  0  0  0  0  0  0  0  0  0  0
    3.1950   -3.2716    0.0033 C   0  0  0  0  0  0  0  0  0  0  0  0
    7.3814    1.1717   -0.0139 H   0  0  0  0  0  0  0  0  0  0  0  0
    6.0560    1.9608   -0.9021 H   0  0  0  0  0  0  0  0  0  0  0  0
    6.0603    1.9639    0.8779 H   0  0  0  0  0  0  0  0  0  0  0  0
    1.4694   -1.7129    0.0057 H   0  0  0  0  0  0  0  0  0  0  0  0
    1.7681    2.5683   -0.0018 H   0  0  0  0  0  0  0  0  0  0  0  0
    4.2188    2.3937   -0.0022 H   0  0  0  0  0  0  0  0  0  0  0  0
    0.0363    2.6623    0.0038 H   0  0  0  0  0  0  0  0  0  0  0  0
   -5.9591   -0.5099    0.0184 H   0  0  0  0  0  0  0  0  0  0  0  0
   -2.2904   -2.7068    0.0151 H   0  0  0  0  0  0  0  0  0  0  0  0
   -5.0969   -3.2337   -0.8639 H   0  0  0  0  0  0  0  0  0  0  0  0
   -5.0376    2.1986   -0.8691 H   0  0  0  0  0  0  0  0  0  0  0  0
    2.5686   -3.2538    0.8952 H   0  0  0  0  0  0  0  0  0  0  0  0
    2.5631   -3.2562   -0.8848 H   0  0  0  0  0  0  0  0  0  0  0  0
    3.8005   -4.1779    0.0026 H   0  0  0  0  0  0  0  0  0  0  0  0
  1  2  1  0  0  0  0
  2  3  1  0  0  0  0
  3  4  2  0  0  0  0
  4  5  1  0  0  0  0
  5  6  2  0  0  0  0
  6  7  1  0  0  0  0
  7  8  2  0  0  0  0
  3  8  1  0  0  0  0
  6  9  1  0  0  0  0
  9 10  2  0  0  0  0
 10 11  1  0  0  0  0
 11 12  2  0  0  0  0
 11 13  1  0  0  0  0
 13 14  2  0  0  0  0
 14 15  1  0  0  0  0
 15 16  2  0  0  0  0
 16 17  1  0  0  0  0
 17 18  2  0  0  0  0
 13 18  1  0  0  0  0
 18 19  1  0  0  0  0
  9 19  1  0  0  0  0
 16 20  1  0  0  0  0
 14 21  1  0  0  0  0
  4 22  1  0  0  0  0
 22 23  1  0  0  0  0
  1 24  1  0  0  0  0
  1 25  1  0  0  0  0
  1 26  1  0  0  0  0
  5 27  1  0  0  0  0
  7 28  1  0  0  0  0
  8 29  1  0  0  0  0
 10 30  1  0  0  0  0
 15 31  1  0  0  0  0
 17 32  1  0  0  0  0
 20 33  1  0  0  0  0
 21 34  1  0  0  0  0
 23 35  1  0  0  0  0
 23 36  1  0  0  0  0
 23 37  1  0  0  0  0
M  END
$$$$
