C20H23IN4O
APtclcactv06281817073D 0   0.00000     0.00000
 
 49 52  0  0  0  0  0  0  0  0999 V2000
   -0.5808   -4.1125    1.0547 C   0  0  0  0  0  0  0  0  0  0  0  0
   -1.1835   -4.2878   -0.2793 N   0  0  0  0  0  0  0  0  0  0  0  0
   -0.1400   -4.1974   -1.3167 C   0  0  0  0  0  0  0  0  0  0  0  0
    0.4759   -2.8606   -1.2379 N   0  0  0  0  0  0  0  0  0  0  0  0
    1.0944   -2.6687    0.0862 C   0  0  0  0  0  0  0  0  0  0  0  0
    0.0394   -2.7766    1.1100 N   0  0  0  0  0  0  0  0  0  0  0  0
   -0.9817   -1.7383    0.8884 C   0  0  0  0  0  0  0  0  0  0  0  0
   -1.5843   -1.9289   -0.4382 N   0  3  0  0  0  0  0  0  0  0  0  0
   -2.2101   -3.2566   -0.5070 C   0  0  0  0  0  0  0  0  0  0  0  0
   -0.5433   -1.8226   -1.4698 C   0  0  0  0  0  0  0  0  0  0  0  0
   -2.6033   -0.8955   -0.6656 C   0  0  0  0  0  0  0  0  0  0  0  0
   -3.7028   -1.0411    0.3546 C   0  0  0  0  0  0  0  0  0  0  0  0
   -3.5955   -1.8516    1.2503 O   0  0  0  0  0  0  0  0  0  0  0  0
   -4.9054   -0.2007    0.2641 C   0  0  0  0  0  0  0  0  0  0  0  0
   -5.9276   -0.3351    1.2113 C   0  0  0  0  0  0  0  0  0  0  0  0
   -7.0481    0.4502    1.1251 C   0  0  0  0  0  0  0  0  0  0  0  0
   -7.1705    1.3826    0.0938 C   0  0  0  0  0  0  0  0  0  0  0  0
   -6.1530    1.5180   -0.8519 C   0  0  0  0  0  0  0  0  0  0  0  0
   -5.0279    0.7394   -0.7661 C   0  0  0  0  0  0  0  0  0  0  0  0
   -8.3833    2.2301    0.0026 C   0  0  0  0  0  0  0  0  0  0  0  0
   -8.2734    3.5727   -0.3570 C   0  0  0  0  0  0  0  0  0  0  0  0
   -9.4059    4.3566   -0.4408 C   0  0  0  0  0  0  0  0  0  0  0  0
  -10.6485    3.8129   -0.1684 C   0  0  0  0  0  0  0  0  0  0  0  0
  -10.7637    2.4815    0.1893 C   0  0  0  0  0  0  0  0  0  0  0  0
   -9.6389    1.6863    0.2703 C   0  0  0  0  0  0  0  0  0  0  0  0
   11.1319    1.4963    0.0673 I   0  5  0  0  0  0  0  0  0  0  0  0
   -1.3529   -4.1911    1.8200 H   0  0  0  0  0  0  0  0  0  0  0  0
    0.1786   -4.8772    1.2182 H   0  0  0  0  0  0  0  0  0  0  0  0
    0.6176   -4.9617   -1.1435 H   0  0  0  0  0  0  0  0  0  0  0  0
   -0.5869   -4.3386   -2.3008 H   0  0  0  0  0  0  0  0  0  0  0  0
    1.8491   -3.4371    0.2540 H   0  0  0  0  0  0  0  0  0  0  0  0
    1.5559   -1.6825    0.1367 H   0  0  0  0  0  0  0  0  0  0  0  0
   -1.7536   -1.8173    1.6538 H   0  0  0  0  0  0  0  0  0  0  0  0
   -0.5168   -0.7537    0.9391 H   0  0  0  0  0  0  0  0  0  0  0  0
   -2.6566   -3.3983   -1.4913 H   0  0  0  0  0  0  0  0  0  0  0  0
   -2.9819   -3.3356    0.2587 H   0  0  0  0  0  0  0  0  0  0  0  0
   -0.0786   -0.8380   -1.4182 H   0  0  0  0  0  0  0  0  0  0  0  0
   -0.9900   -1.9643   -2.4540 H   0  0  0  0  0  0  0  0  0  0  0  0
   -2.1482    0.0905   -0.5712 H   0  0  0  0  0  0  0  0  0  0  0  0
   -3.0191   -1.0093   -1.6667 H   0  0  0  0  0  0  0  0  0  0  0  0
   -5.8336   -1.0570    2.0091 H   0  0  0  0  0  0  0  0  0  0  0  0
   -7.8368    0.3469    1.8556 H   0  0  0  0  0  0  0  0  0  0  0  0
   -6.2503    2.2397   -1.6494 H   0  0  0  0  0  0  0  0  0  0  0  0
   -4.2409    0.8445   -1.4982 H   0  0  0  0  0  0  0  0  0  0  0  0
   -7.3038    3.9984   -0.5692 H   0  0  0  0  0  0  0  0  0  0  0  0
   -9.3221    5.3967   -0.7192 H   0  0  0  0  0  0  0  0  0  0  0  0
  -11.5321    4.4304   -0.2349 H   0  0  0  0  0  0  0  0  0  0  0  0
  -11.7363    2.0627    0.4015 H   0  0  0  0  0  0  0  0  0  0  0  0
   -9.7300    0.6470    0.5497 H   0  0  0  0  0  0  0  0  0  0  0  0
  1  2  1  0  0  0  0
  2  3  1  0  0  0  0
  3  4  1  0  0  0  0
  4  5  1  0  0  0  0
  5  6  1  0  0  0  0
  1  6  1  0  0  0  0
  6  7  1  0  0  0  0
  7  8  1  0  0  0  0
  8  9  1  0  0  0  0
  2  9  1  0  0  0  0
  8 10  1  0  0  0  0
  4 10  1  0  0  0  0
  8 11  1  0  0  0  0
 11 12  1  0  0  0  0
 12 13  2  0  0  0  0
 12 14  1  0  0  0  0
 14 15  2  0  0  0  0
 15 16  1  0  0  0  0
 16 17  2  0  0  0  0
 17 18  1  0  0  0  0
 18 19  2  0  0  0  0
 14 19  1  0  0  0  0
 17 20  1  0  0  0  0
 20 21  2  0  0  0  0
 21 22  1  0  0  0  0
 22 23  2  0  0  0  0
 23 24  1  0  0  0  0
 24 25  2  0  0  0  0
 20 25  1  0  0  0  0
  1 27  1  0  0  0  0
  1 28  1  0  0  0  0
  3 29  1  0  0  0  0
  3 30  1  0  0  0  0
  5 31  1  0  0  0  0
  5 32  1  0  0  0  0
  7 33  1  0  0  0  0
  7 34  1  0  0  0  0
  9 35  1  0  0  0  0
  9 36  1  0  0  0  0
 10 37  1  0  0  0  0
 10 38  1  0  0  0  0
 11 39  1  0  0  0  0
 11 40  1  0  0  0  0
 15 41  1  0  0  0  0
 16 42  1  0  0  0  0
 18 43  1  0  0  0  0
 19 44  1  0  0  0  0
 21 45  1  0  0  0  0
 22 46  1  0  0  0  0
 23 47  1  0  0  0  0
 24 48  1  0  0  0  0
 25 49  1  0  0  0  0
M  CHG  2   8   1  26  -1
M  END
$$$$
