C15H16O9
APtclcactv06281817073D 0   0.00000     0.00000
 
 40 42  0  0  0  0  0  0  0  0999 V2000
   -3.1149   -1.3377   -1.2042 C   0  0  0  0  0  0  0  0  0  0  0  0
   -4.4524   -1.4906   -1.0206 C   0  0  0  0  0  0  0  0  0  0  0  0
   -5.1614   -0.5656   -0.2274 C   0  0  0  0  0  0  0  0  0  0  0  0
   -6.3600   -0.7146   -0.0704 O   0  0  0  0  0  0  0  0  0  0  0  0
   -4.5495    0.4745    0.3595 O   0  0  0  0  0  0  0  0  0  0  0  0
   -3.2224    0.6844    0.2175 C   0  0  0  0  0  0  0  0  0  0  0  0
   -2.6085    1.7658    0.8318 C   0  0  0  0  0  0  0  0  0  0  0  0
   -1.2484    1.9689    0.6774 C   0  0  0  0  0  0  0  0  0  0  0  0
   -0.4830    1.0911   -0.0957 C   0  0  0  0  0  0  0  0  0  0  0  0
   -1.0783    0.0121   -0.7130 C   0  0  0  0  0  0  0  0  0  0  0  0
   -2.4537   -0.2006   -0.5609 C   0  0  0  0  0  0  0  0  0  0  0  0
    0.8529    1.3027   -0.2395 O   0  0  0  0  0  0  0  0  0  0  0  0
    1.5751    0.3673   -1.0431 C   0  0  0  0  0  0  0  0  0  0  0  0
    3.0256    0.8341   -1.1907 C   0  0  0  0  0  0  0  0  0  0  0  0
    3.6862    0.8673    0.1909 C   0  0  0  0  0  0  0  0  0  0  0  0
    3.5846   -0.5225    0.8269 C   0  0  0  0  0  0  0  0  0  0  0  0
    2.1125   -0.9369    0.8966 C   0  0  0  0  0  0  0  0  0  0  0  0
    1.5507   -0.9172   -0.4173 O   0  0  0  0  0  0  0  0  0  0  0  0
    2.0067   -2.3491    1.4756 C   0  0  0  0  0  0  0  0  0  0  0  0
    0.6301   -2.6909    1.6492 O   0  0  0  0  0  0  0  0  0  0  0  0
    4.3088   -1.4648    0.0334 O   0  0  0  0  0  0  0  0  0  0  0  0
    5.0614    1.2313    0.0546 O   0  0  0  0  0  0  0  0  0  0  0  0
    3.7351   -0.0723   -2.0375 O   0  0  0  0  0  0  0  0  0  0  0  0
   -0.6526    3.0295    1.2814 O   0  0  0  0  0  0  0  0  0  0  0  0
   -2.5539   -2.0383   -1.8048 H   0  0  0  0  0  0  0  0  0  0  0  0
   -4.9710   -2.3184   -1.4813 H   0  0  0  0  0  0  0  0  0  0  0  0
   -3.1920    2.4495    1.4305 H   0  0  0  0  0  0  0  0  0  0  0  0
   -0.4870   -0.6656   -1.3109 H   0  0  0  0  0  0  0  0  0  0  0  0
    1.1126    0.3009   -2.0278 H   0  0  0  0  0  0  0  0  0  0  0  0
    3.0443    1.8325   -1.6275 H   0  0  0  0  0  0  0  0  0  0  0  0
    3.1758    1.5951    0.8217 H   0  0  0  0  0  0  0  0  0  0  0  0
    4.0031   -0.4942    1.8329 H   0  0  0  0  0  0  0  0  0  0  0  0
    1.5687   -0.2405    1.5349 H   0  0  0  0  0  0  0  0  0  0  0  0
    2.4737   -3.0580    0.7918 H   0  0  0  0  0  0  0  0  0  0  0  0
    2.5145   -2.3856    2.4394 H   0  0  0  0  0  0  0  0  0  0  0  0
    0.4874   -3.5752    2.0136 H   0  0  0  0  0  0  0  0  0  0  0  0
    5.2498   -1.2614   -0.0577 H   0  0  0  0  0  0  0  0  0  0  0  0
    5.2004    2.0992   -0.3483 H   0  0  0  0  0  0  0  0  0  0  0  0
    3.3678   -0.1471   -2.9289 H   0  0  0  0  0  0  0  0  0  0  0  0
   -0.3250    2.8421    2.1717 H   0  0  0  0  0  0  0  0  0  0  0  0
  1  2  2  0  0  0  0
  2  3  1  0  0  0  0
  3  4  2  0  0  0  0
  3  5  1  0  0  0  0
  5  6  1  0  0  0  0
  6  7  2  0  0  0  0
  7  8  1  0  0  0  0
  8  9  2  0  0  0  0
  9 10  1  0  0  0  0
 10 11  2  0  0  0  0
  6 11  1  0  0  0  0
  1 11  1  0  0  0  0
  9 12  1  0  0  0  0
 12 13  1  0  0  0  0
 13 14  1  0  0  0  0
 14 15  1  0  0  0  0
 15 16  1  0  0  0  0
 16 17  1  0  0  0  0
 17 18  1  0  0  0  0
 13 18  1  0  0  0  0
 17 19  1  0  0  0  0
 19 20  1  0  0  0  0
 16 21  1  0  0  0  0
 15 22  1  0  0  0  0
 14 23  1  0  0  0  0
  8 24  1  0  0  0  0
  1 25  1  0  0  0  0
  2 26  1  0  0  0  0
  7 27  1  0  0  0  0
 10 28  1  0  0  0  0
 13 29  1  0  0  0  0
 14 30  1  0  0  0  0
 15 31  1  0  0  0  0
 16 32  1  0  0  0  0
 17 33  1  0  0  0  0
 19 34  1  0  0  0  0
 19 35  1  0  0  0  0
 20 36  1  0  0  0  0
 21 37  1  0  0  0  0
 22 38  1  0  0  0  0
 23 39  1  0  0  0  0
 24 40  1  0  0  0  0
M  END
$$$$
