C21H20O12
APtclcactv06281817073D 0   0.00000     0.00000
 
 53 56  0  0  0  0  0  0  0  0999 V2000
    0.9473    3.2438   -2.2184 C   0  0  0  0  0  0  0  0  0  0  0  0
    1.9651    2.1357   -1.9408 C   0  0  0  0  0  0  0  0  0  0  0  0
    3.2275    2.7445   -1.3250 C   0  0  0  0  0  0  0  0  0  0  0  0
    2.8702    3.3938    0.0156 C   0  0  0  0  0  0  0  0  0  0  0  0
    2.2290    2.3414    0.9253 C   0  0  0  0  0  0  0  0  0  0  0  0
    1.0051    1.7481    0.2225 C   0  0  0  0  0  0  0  0  0  0  0  0
    1.4020    1.1884   -1.0310 O   0  0  0  0  0  0  0  0  0  0  0  0
    0.4343    0.7257    1.0416 O   0  0  0  0  0  0  0  0  0  0  0  0
   -0.7909    0.2564    0.6799 C   0  0  0  0  0  0  0  0  0  0  0  0
   -0.9365   -1.0315    0.2596 C   0  0  0  0  0  0  0  0  0  0  0  0
   -2.1253   -1.5403   -0.1072 O   0  0  0  0  0  0  0  0  0  0  0  0
   -3.2603   -0.8105   -0.0850 C   0  0  0  0  0  0  0  0  0  0  0  0
   -4.4697   -1.3687   -0.4693 C   0  0  0  0  0  0  0  0  0  0  0  0
   -5.6268   -0.6059   -0.4399 C   0  0  0  0  0  0  0  0  0  0  0  0
   -5.5906    0.7217   -0.0276 C   0  0  0  0  0  0  0  0  0  0  0  0
   -4.3941    1.2966    0.3590 C   0  0  0  0  0  0  0  0  0  0  0  0
   -3.2209    0.5316    0.3329 C   0  0  0  0  0  0  0  0  0  0  0  0
   -1.9281    1.1027    0.7430 C   0  0  0  0  0  0  0  0  0  0  0  0
   -1.8369    2.2606    1.1186 O   0  0  0  0  0  0  0  0  0  0  0  0
   -4.3566    2.5923    0.7609 O   0  0  0  0  0  0  0  0  0  0  0  0
   -6.8070   -1.1602   -0.8179 O   0  0  0  0  0  0  0  0  0  0  0  0
    0.2544   -1.8992    0.2048 C   0  0  0  0  0  0  0  0  0  0  0  0
    1.1245   -1.9640    1.2965 C   0  0  0  0  0  0  0  0  0  0  0  0
    2.2402   -2.7789    1.2423 C   0  0  0  0  0  0  0  0  0  0  0  0
    2.4974   -3.5341    0.1016 C   0  0  0  0  0  0  0  0  0  0  0  0
    1.6328   -3.4714   -0.9876 C   0  0  0  0  0  0  0  0  0  0  0  0
    0.5122   -2.6631   -0.9369 C   0  0  0  0  0  0  0  0  0  0  0  0
    1.8876   -4.2104   -2.1005 O   0  0  0  0  0  0  0  0  0  0  0  0
    3.5955   -4.3343    0.0510 O   0  0  0  0  0  0  0  0  0  0  0  0
    3.0873   -2.8424    2.3043 O   0  0  0  0  0  0  0  0  0  0  0  0
    3.1740    1.3041    1.1954 O   0  0  0  0  0  0  0  0  0  0  0  0
    4.0554    3.9005    0.6323 O   0  0  0  0  0  0  0  0  0  0  0  0
    4.1990    1.7179   -1.1144 O   0  0  0  0  0  0  0  0  0  0  0  0
    1.3953    3.9936   -2.8704 H   0  0  0  0  0  0  0  0  0  0  0  0
    0.0695    2.8176   -2.7041 H   0  0  0  0  0  0  0  0  0  0  0  0
    0.6520    3.7097   -1.2782 H   0  0  0  0  0  0  0  0  0  0  0  0
    2.2212    1.6352   -2.8746 H   0  0  0  0  0  0  0  0  0  0  0  0
    3.6338    3.4992   -1.9984 H   0  0  0  0  0  0  0  0  0  0  0  0
    2.1666    4.2096   -0.1505 H   0  0  0  0  0  0  0  0  0  0  0  0
    1.9211    2.8077    1.8612 H   0  0  0  0  0  0  0  0  0  0  0  0
    0.2675    2.5325    0.0531 H   0  0  0  0  0  0  0  0  0  0  0  0
   -4.5103   -2.3985   -0.7921 H   0  0  0  0  0  0  0  0  0  0  0  0
   -6.4992    1.3052   -0.0097 H   0  0  0  0  0  0  0  0  0  0  0  0
   -4.4929    2.7137    1.7105 H   0  0  0  0  0  0  0  0  0  0  0  0
   -7.2959   -1.5759   -0.0945 H   0  0  0  0  0  0  0  0  0  0  0  0
    0.9259   -1.3777    2.1816 H   0  0  0  0  0  0  0  0  0  0  0  0
   -0.1584   -2.6151   -1.7821 H   0  0  0  0  0  0  0  0  0  0  0  0
    1.4287   -5.0613   -2.1212 H   0  0  0  0  0  0  0  0  0  0  0  0
    3.4247   -5.2528    0.3005 H   0  0  0  0  0  0  0  0  0  0  0  0
    2.8611   -3.5282    2.9474 H   0  0  0  0  0  0  0  0  0  0  0  0
    2.8346    0.6019    1.7672 H   0  0  0  0  0  0  0  0  0  0  0  0
    3.9029    4.3261    1.4871 H   0  0  0  0  0  0  0  0  0  0  0  0
    4.4686    1.2598   -1.9222 H   0  0  0  0  0  0  0  0  0  0  0  0
  1  2  1  0  0  0  0
  2  3  1  0  0  0  0
  3  4  1  0  0  0  0
  4  5  1  0  0  0  0
  5  6  1  0  0  0  0
  6  7  1  0  0  0  0
  2  7  1  0  0  0  0
  6  8  1  0  0  0  0
  8  9  1  0  0  0  0
  9 10  2  0  0  0  0
 10 11  1  0  0  0  0
 11 12  1  0  0  0  0
 12 13  2  0  0  0  0
 13 14  1  0  0  0  0
 14 15  2  0  0  0  0
 15 16  1  0  0  0  0
 16 17  2  0  0  0  0
 12 17  1  0  0  0  0
 17 18  1  0  0  0  0
  9 18  1  0  0  0  0
 18 19  2  0  0  0  0
 16 20  1  0  0  0  0
 14 21  1  0  0  0  0
 10 22  1  0  0  0  0
 22 23  2  0  0  0  0
 23 24  1  0  0  0  0
 24 25  2  0  0  0  0
 25 26  1  0  0  0  0
 26 27  2  0  0  0  0
 22 27  1  0  0  0  0
 26 28  1  0  0  0  0
 25 29  1  0  0  0  0
 24 30  1  0  0  0  0
  5 31  1  0  0  0  0
  4 32  1  0  0  0  0
  3 33  1  0  0  0  0
  1 34  1  0  0  0  0
  1 35  1  0  0  0  0
  1 36  1  0  0  0  0
  2 37  1  0  0  0  0
  3 38  1  0  0  0  0
  4 39  1  0  0  0  0
  5 40  1  0  0  0  0
  6 41  1  0  0  0  0
 13 42  1  0  0  0  0
 15 43  1  0  0  0  0
 20 44  1  0  0  0  0
 21 45  1  0  0  0  0
 23 46  1  0  0  0  0
 27 47  1  0  0  0  0
 28 48  1  0  0  0  0
 29 49  1  0  0  0  0
 30 50  1  0  0  0  0
 31 51  1  0  0  0  0
 32 52  1  0  0  0  0
 33 53  1  0  0  0  0
M  END
$$$$
