C14H28
APtclcactv06281817073D 0   0.00000     0.00000
 
 42 41  0  0  0  0  0  0  0  0999 V2000
    7.8703    0.7805    0.1412 C   0  0  0  0  0  0  0  0  0  0  0  0
    6.6875   -0.0399   -0.3774 C   0  0  0  0  0  0  0  0  0  0  0  0
    5.3866    0.5164    0.2049 C   0  0  0  0  0  0  0  0  0  0  0  0
    4.2039   -0.3039   -0.3138 C   0  0  0  0  0  0  0  0  0  0  0  0
    2.9030    0.2523    0.2686 C   0  0  0  0  0  0  0  0  0  0  0  0
    1.7202   -0.5680   -0.2501 C   0  0  0  0  0  0  0  0  0  0  0  0
    0.4193   -0.0118    0.3323 C   0  0  0  0  0  0  0  0  0  0  0  0
   -0.7635   -0.8321   -0.1864 C   0  0  0  0  0  0  0  0  0  0  0  0
   -2.0644   -0.2758    0.3959 C   0  0  0  0  0  0  0  0  0  0  0  0
   -3.2471   -1.0962   -0.1227 C   0  0  0  0  0  0  0  0  0  0  0  0
   -4.5285   -0.5483    0.4509 C   0  0  0  0  0  0  0  0  0  0  0  0
   -5.5030   -0.1897   -0.3478 C   0  0  0  0  0  0  0  0  0  0  0  0
   -6.7843    0.3582    0.2258 C   0  0  0  0  0  0  0  0  0  0  0  0
   -7.0780    1.7251   -0.3958 C   0  0  0  0  0  0  0  0  0  0  0  0
    7.7519    1.8207   -0.1622 H   0  0  0  0  0  0  0  0  0  0  0  0
    7.9045    0.7210    1.2291 H   0  0  0  0  0  0  0  0  0  0  0  0
    8.7971    0.3842   -0.2736 H   0  0  0  0  0  0  0  0  0  0  0  0
    6.6533    0.0196   -1.4653 H   0  0  0  0  0  0  0  0  0  0  0  0
    6.8059   -1.0801   -0.0740 H   0  0  0  0  0  0  0  0  0  0  0  0
    5.4209    0.4569    1.2928 H   0  0  0  0  0  0  0  0  0  0  0  0
    5.2683    1.5566   -0.0985 H   0  0  0  0  0  0  0  0  0  0  0  0
    4.1697   -0.2444   -1.4016 H   0  0  0  0  0  0  0  0  0  0  0  0
    4.3223   -1.3441   -0.0103 H   0  0  0  0  0  0  0  0  0  0  0  0
    2.9372    0.1928    1.3564 H   0  0  0  0  0  0  0  0  0  0  0  0
    2.7846    1.2925   -0.0348 H   0  0  0  0  0  0  0  0  0  0  0  0
    1.6860   -0.5085   -1.3379 H   0  0  0  0  0  0  0  0  0  0  0  0
    1.8386   -1.6082    0.0534 H   0  0  0  0  0  0  0  0  0  0  0  0
    0.4535   -0.0713    1.4201 H   0  0  0  0  0  0  0  0  0  0  0  0
    0.3009    1.0284    0.0288 H   0  0  0  0  0  0  0  0  0  0  0  0
   -0.7977   -0.7726   -1.2742 H   0  0  0  0  0  0  0  0  0  0  0  0
   -0.6451   -1.8723    0.1170 H   0  0  0  0  0  0  0  0  0  0  0  0
   -2.0301   -0.3353    1.4838 H   0  0  0  0  0  0  0  0  0  0  0  0
   -2.1827    0.7644    0.0925 H   0  0  0  0  0  0  0  0  0  0  0  0
   -3.2813   -1.0367   -1.2106 H   0  0  0  0  0  0  0  0  0  0  0  0
   -3.1288   -2.1364    0.1807 H   0  0  0  0  0  0  0  0  0  0  0  0
   -4.6433   -0.4512    1.5203 H   0  0  0  0  0  0  0  0  0  0  0  0
   -5.3881   -0.2867   -1.4173 H   0  0  0  0  0  0  0  0  0  0  0  0
   -7.6036   -0.3256    0.0035 H   0  0  0  0  0  0  0  0  0  0  0  0
   -6.6827    0.4645    1.3059 H   0  0  0  0  0  0  0  0  0  0  0  0
   -6.2587    2.4089   -0.1735 H   0  0  0  0  0  0  0  0  0  0  0  0
   -7.1796    1.6188   -1.4758 H   0  0  0  0  0  0  0  0  0  0  0  0
   -8.0048    2.1214    0.0191 H   0  0  0  0  0  0  0  0  0  0  0  0
  1  2  1  0  0  0  0
  2  3  1  0  0  0  0
  3  4  1  0  0  0  0
  4  5  1  0  0  0  0
  5  6  1  0  0  0  0
  6  7  1  0  0  0  0
  7  8  1  0  0  0  0
  8  9  1  0  0  0  0
  9 10  1  0  0  0  0
 10 11  1  0  0  0  0
 11 12  2  0  0  0  0
 12 13  1  0  0  0  0
 13 14  1  0  0  0  0
  1 15  1  0  0  0  0
  1 16  1  0  0  0  0
  1 17  1  0  0  0  0
  2 18  1  0  0  0  0
  2 19  1  0  0  0  0
  3 20  1  0  0  0  0
  3 21  1  0  0  0  0
  4 22  1  0  0  0  0
  4 23  1  0  0  0  0
  5 24  1  0  0  0  0
  5 25  1  0  0  0  0
  6 26  1  0  0  0  0
  6 27  1  0  0  0  0
  7 28  1  0  0  0  0
  7 29  1  0  0  0  0
  8 30  1  0  0  0  0
  8 31  1  0  0  0  0
  9 32  1  0  0  0  0
  9 33  1  0  0  0  0
 10 34  1  0  0  0  0
 10 35  1  0  0  0  0
 11 36  1  0  0  0  0
 12 37  1  0  0  0  0
 13 38  1  0  0  0  0
 13 39  1  0  0  0  0
 14 40  1  0  0  0  0
 14 41  1  0  0  0  0
 14 42  1  0  0  0  0
M  END
$$$$
