C6H10S3
APtclcactv06281817083D 0   0.00000     0.00000
 
 19 18  0  0  0  0  0  0  0  0999 V2000
    4.9300    0.8240    0.2196 C   0  0  0  0  0  0  0  0  0  0  0  0
    3.7847    0.0734   -0.4096 C   0  0  0  0  0  0  0  0  0  0  0  0
    2.6130    0.0248    0.1988 C   0  0  0  0  0  0  0  0  0  0  0  0
    1.2739   -0.8528   -0.5369 S   0  0  0  0  0  0  0  0  0  0  0  0
   -0.2456   -0.5929    0.8144 S   0  0  0  0  0  0  0  0  0  0  0  0
   -1.2558    1.0266    0.0666 S   0  0  0  0  0  0  0  0  0  0  0  0
   -2.5811    0.2653   -0.9104 C   0  0  0  0  0  0  0  0  0  0  0  0
   -3.5771   -0.3851    0.0148 C   0  0  0  0  0  0  0  0  0  0  0  0
   -4.8040    0.0694    0.0804 C   0  0  0  0  0  0  0  0  0  0  0  0
    4.6539    1.8711    0.3433 H   0  0  0  0  0  0  0  0  0  0  0  0
    5.1569    0.3906    1.1937 H   0  0  0  0  0  0  0  0  0  0  0  0
    5.8076    0.7531   -0.4229 H   0  0  0  0  0  0  0  0  0  0  0  0
    3.9217   -0.4248   -1.3580 H   0  0  0  0  0  0  0  0  0  0  0  0
    2.4760    0.5230    1.1472 H   0  0  0  0  0  0  0  0  0  0  0  0
   -3.0817    1.0312   -1.5027 H   0  0  0  0  0  0  0  0  0  0  0  0
   -2.1565   -0.4877   -1.5743 H   0  0  0  0  0  0  0  0  0  0  0  0
   -3.2794   -1.2258    0.6239 H   0  0  0  0  0  0  0  0  0  0  0  0
   -5.5178   -0.3967    0.7434 H   0  0  0  0  0  0  0  0  0  0  0  0
   -5.1017    0.9101   -0.5287 H   0  0  0  0  0  0  0  0  0  0  0  0
  1  2  1  0  0  0  0
  2  3  2  0  0  0  0
  3  4  1  0  0  0  0
  4  5  1  0  0  0  0
  5  6  1  0  0  0  0
  6  7  1  0  0  0  0
  7  8  1  0  0  0  0
  8  9  2  0  0  0  0
  1 10  1  0  0  0  0
  1 11  1  0  0  0  0
  1 12  1  0  0  0  0
  2 13  1  0  0  0  0
  3 14  1  0  0  0  0
  7 15  1  0  0  0  0
  7 16  1  0  0  0  0
  8 17  1  0  0  0  0
  9 18  1  0  0  0  0
  9 19  1  0  0  0  0
M  END
$$$$
