C10H16O
APtclcactv06281817033D 0   0.00000     0.00000
 
 27 26  0  0  0  0  0  0  0  0999 V2000
   -1.9818    1.8219   -0.8261 C   0  0  0  0  0  0  0  0  0  0  0  0
   -2.1712    0.4284   -0.2845 C   0  0  0  0  0  0  0  0  0  0  0  0
   -1.1443   -0.3779   -0.1772 C   0  0  0  0  0  0  0  0  0  0  0  0
    0.2439    0.1261   -0.4770 C   0  0  0  0  0  0  0  0  0  0  0  0
    1.1549   -0.1451    0.7219 C   0  0  0  0  0  0  0  0  0  0  0  0
    2.5431    0.3589    0.4222 C   0  0  0  0  0  0  0  0  0  0  0  0
    2.9100    1.5720    0.8211 C   0  0  0  0  0  0  0  0  0  0  0  0
    3.4921   -0.4923   -0.3121 C   0  0  0  0  0  0  0  0  0  0  0  0
    3.1252   -1.7054   -0.7111 C   0  0  0  0  0  0  0  0  0  0  0  0
   -3.5420   -0.0376    0.1337 C   0  0  0  0  0  0  0  0  0  0  0  0
   -3.4633   -1.3830    0.6091 O   0  0  0  0  0  0  0  0  0  0  0  0
   -1.5003    1.7699   -1.8025 H   0  0  0  0  0  0  0  0  0  0  0  0
   -2.9522    2.3083   -0.9249 H   0  0  0  0  0  0  0  0  0  0  0  0
   -1.3559    2.3954   -0.1424 H   0  0  0  0  0  0  0  0  0  0  0  0
   -1.2926   -1.4038    0.1260 H   0  0  0  0  0  0  0  0  0  0  0  0
    0.6356   -0.3882   -1.3546 H   0  0  0  0  0  0  0  0  0  0  0  0
    0.2074    1.1982   -0.6703 H   0  0  0  0  0  0  0  0  0  0  0  0
    0.7632    0.3692    1.5995 H   0  0  0  0  0  0  0  0  0  0  0  0
    1.1915   -1.2172    0.9153 H   0  0  0  0  0  0  0  0  0  0  0  0
    3.9049    1.9332    0.6063 H   0  0  0  0  0  0  0  0  0  0  0  0
    2.2134    2.1969    1.3602 H   0  0  0  0  0  0  0  0  0  0  0  0
    4.4870   -0.1311   -0.5270 H   0  0  0  0  0  0  0  0  0  0  0  0
    2.1304   -2.0666   -0.4963 H   0  0  0  0  0  0  0  0  0  0  0  0
    3.8219   -2.3303   -1.2502 H   0  0  0  0  0  0  0  0  0  0  0  0
   -3.9183    0.6070    0.9280 H   0  0  0  0  0  0  0  0  0  0  0  0
   -4.2172    0.0068   -0.7208 H   0  0  0  0  0  0  0  0  0  0  0  0
   -4.3111   -1.7489    0.8960 H   0  0  0  0  0  0  0  0  0  0  0  0
  1  2  1  0  0  0  0
  2  3  2  0  0  0  0
  3  4  1  0  0  0  0
  4  5  1  0  0  0  0
  5  6  1  0  0  0  0
  6  7  2  0  0  0  0
  6  8  1  0  0  0  0
  8  9  2  0  0  0  0
  2 10  1  0  0  0  0
 10 11  1  0  0  0  0
  1 12  1  0  0  0  0
  1 13  1  0  0  0  0
  1 14  1  0  0  0  0
  3 15  1  0  0  0  0
  4 16  1  0  0  0  0
  4 17  1  0  0  0  0
  5 18  1  0  0  0  0
  5 19  1  0  0  0  0
  7 20  1  0  0  0  0
  7 21  1  0  0  0  0
  8 22  1  0  0  0  0
  9 23  1  0  0  0  0
  9 24  1  0  0  0  0
 10 25  1  0  0  0  0
 10 26  1  0  0  0  0
 11 27  1  0  0  0  0
M  END
$$$$
