C17H30
APtclcactv06281817073D 0   0.00000     0.00000
 
 47 46  0  0  0  0  0  0  0  0999 V2000
   -7.8144    2.9399   -0.2344 C   0  0  0  0  0  0  0  0  0  0  0  0
   -6.8640    1.8736   -0.7829 C   0  0  0  0  0  0  0  0  0  0  0  0
   -6.1103    1.2176    0.3757 C   0  0  0  0  0  0  0  0  0  0  0  0
   -5.1599    0.1513   -0.1727 C   0  0  0  0  0  0  0  0  0  0  0  0
   -4.4062   -0.5046    0.9859 C   0  0  0  0  0  0  0  0  0  0  0  0
   -3.4701   -1.5549    0.4457 C   0  0  0  0  0  0  0  0  0  0  0  0
   -2.1945   -1.5092    0.7401 C   0  0  0  0  0  0  0  0  0  0  0  0
   -1.2584   -2.5595    0.1999 C   0  0  0  0  0  0  0  0  0  0  0  0
   -0.1286   -1.8921   -0.5412 C   0  0  0  0  0  0  0  0  0  0  0  0
    1.1130   -2.1488   -0.2115 C   0  0  0  0  0  0  0  0  0  0  0  0
    2.2428   -1.4815   -0.9525 C   0  0  0  0  0  0  0  0  0  0  0  0
    3.1518   -0.7609    0.0451 C   0  0  0  0  0  0  0  0  0  0  0  0
    4.2989   -0.0834   -0.7073 C   0  0  0  0  0  0  0  0  0  0  0  0
    5.2080    0.6372    0.2904 C   0  0  0  0  0  0  0  0  0  0  0  0
    6.3550    1.3147   -0.4620 C   0  0  0  0  0  0  0  0  0  0  0  0
    7.2504    2.0244    0.5206 C   0  0  0  0  0  0  0  0  0  0  0  0
    8.5332    1.7603    0.5470 C   0  0  0  0  0  0  0  0  0  0  0  0
   -7.2411    3.6967    0.3009 H   0  0  0  0  0  0  0  0  0  0  0  0
   -8.3514    3.4072   -1.0599 H   0  0  0  0  0  0  0  0  0  0  0  0
   -8.5277    2.4753    0.4464 H   0  0  0  0  0  0  0  0  0  0  0  0
   -7.4373    1.1167   -1.3182 H   0  0  0  0  0  0  0  0  0  0  0  0
   -6.1508    2.3381   -1.4637 H   0  0  0  0  0  0  0  0  0  0  0  0
   -5.5370    1.9745    0.9111 H   0  0  0  0  0  0  0  0  0  0  0  0
   -6.8236    0.7530    1.0566 H   0  0  0  0  0  0  0  0  0  0  0  0
   -5.7332   -0.6056   -0.7081 H   0  0  0  0  0  0  0  0  0  0  0  0
   -4.4467    0.6159   -0.8535 H   0  0  0  0  0  0  0  0  0  0  0  0
   -3.8329    0.2522    1.5213 H   0  0  0  0  0  0  0  0  0  0  0  0
   -5.1195   -0.9692    1.6667 H   0  0  0  0  0  0  0  0  0  0  0  0
   -3.8510   -2.3452   -0.1842 H   0  0  0  0  0  0  0  0  0  0  0  0
   -1.8136   -0.7189    1.3700 H   0  0  0  0  0  0  0  0  0  0  0  0
   -0.8551   -3.1460    1.0254 H   0  0  0  0  0  0  0  0  0  0  0  0
   -1.8019   -3.2153   -0.4803 H   0  0  0  0  0  0  0  0  0  0  0  0
   -0.3425   -1.2023   -1.3442 H   0  0  0  0  0  0  0  0  0  0  0  0
    1.3269   -2.8387    0.5915 H   0  0  0  0  0  0  0  0  0  0  0  0
    2.8187   -2.2341   -1.4910 H   0  0  0  0  0  0  0  0  0  0  0  0
    1.8364   -0.7595   -1.6609 H   0  0  0  0  0  0  0  0  0  0  0  0
    2.5759   -0.0083    0.5836 H   0  0  0  0  0  0  0  0  0  0  0  0
    3.5583   -1.4829    0.7534 H   0  0  0  0  0  0  0  0  0  0  0  0
    4.8749   -0.8360   -1.2458 H   0  0  0  0  0  0  0  0  0  0  0  0
    3.8925    0.6386   -1.4156 H   0  0  0  0  0  0  0  0  0  0  0  0
    4.6320    1.3898    0.8288 H   0  0  0  0  0  0  0  0  0  0  0  0
    5.6144   -0.0848    0.9987 H   0  0  0  0  0  0  0  0  0  0  0  0
    6.9310    0.5621   -1.0005 H   0  0  0  0  0  0  0  0  0  0  0  0
    5.9486    2.0367   -1.1703 H   0  0  0  0  0  0  0  0  0  0  0  0
    6.8345    2.7508    1.2031 H   0  0  0  0  0  0  0  0  0  0  0  0
    9.1749    2.2689    1.2512 H   0  0  0  0  0  0  0  0  0  0  0  0
    8.9492    1.0339   -0.1355 H   0  0  0  0  0  0  0  0  0  0  0  0
  1  2  1  0  0  0  0
  2  3  1  0  0  0  0
  3  4  1  0  0  0  0
  4  5  1  0  0  0  0
  5  6  1  0  0  0  0
  6  7  2  0  0  0  0
  7  8  1  0  0  0  0
  8  9  1  0  0  0  0
  9 10  2  0  0  0  0
 10 11  1  0  0  0  0
 11 12  1  0  0  0  0
 12 13  1  0  0  0  0
 13 14  1  0  0  0  0
 14 15  1  0  0  0  0
 15 16  1  0  0  0  0
 16 17  2  0  0  0  0
  1 18  1  0  0  0  0
  1 19  1  0  0  0  0
  1 20  1  0  0  0  0
  2 21  1  0  0  0  0
  2 22  1  0  0  0  0
  3 23  1  0  0  0  0
  3 24  1  0  0  0  0
  4 25  1  0  0  0  0
  4 26  1  0  0  0  0
  5 27  1  0  0  0  0
  5 28  1  0  0  0  0
  6 29  1  0  0  0  0
  7 30  1  0  0  0  0
  8 31  1  0  0  0  0
  8 32  1  0  0  0  0
  9 33  1  0  0  0  0
 10 34  1  0  0  0  0
 11 35  1  0  0  0  0
 11 36  1  0  0  0  0
 12 37  1  0  0  0  0
 12 38  1  0  0  0  0
 13 39  1  0  0  0  0
 13 40  1  0  0  0  0
 14 41  1  0  0  0  0
 14 42  1  0  0  0  0
 15 43  1  0  0  0  0
 15 44  1  0  0  0  0
 16 45  1  0  0  0  0
 17 46  1  0  0  0  0
 17 47  1  0  0  0  0
M  END
$$$$
