C17H14O6
APtclcactv06281817073D 0   0.00000     0.00000
 
 37 39  0  0  0  0  0  0  0  0999 V2000
    6.4507   -1.5522   -0.6417 C   0  0  0  0  0  0  0  0  0  0  0  0
    5.8852   -0.6087    0.2705 O   0  0  0  0  0  0  0  0  0  0  0  0
    4.5374   -0.4472    0.2336 C   0  0  0  0  0  0  0  0  0  0  0  0
    3.9241    0.4548    1.0944 C   0  0  0  0  0  0  0  0  0  0  0  0
    2.5572    0.6216    1.0608 C   0  0  0  0  0  0  0  0  0  0  0  0
    1.7869   -0.1178    0.1585 C   0  0  0  0  0  0  0  0  0  0  0  0
    2.4084   -1.0237   -0.7059 C   0  0  0  0  0  0  0  0  0  0  0  0
    3.7764   -1.1802   -0.6688 C   0  0  0  0  0  0  0  0  0  0  0  0
    0.3233    0.0569    0.1191 C   0  0  0  0  0  0  0  0  0  0  0  0
   -0.1860    1.3204    0.0917 C   0  0  0  0  0  0  0  0  0  0  0  0
   -1.5924    1.5053    0.0536 C   0  0  0  0  0  0  0  0  0  0  0  0
   -2.0847    2.6221    0.0279 O   0  0  0  0  0  0  0  0  0  0  0  0
   -2.4342    0.2983    0.0457 C   0  0  0  0  0  0  0  0  0  0  0  0
   -3.8318    0.3871    0.0084 C   0  0  0  0  0  0  0  0  0  0  0  0
   -4.5877   -0.7705    0.0018 C   0  0  0  0  0  0  0  0  0  0  0  0
   -3.9635   -2.0128    0.0319 C   0  0  0  0  0  0  0  0  0  0  0  0
   -2.5811   -2.1084    0.0689 C   0  0  0  0  0  0  0  0  0  0  0  0
   -1.8057   -0.9592    0.0762 C   0  0  0  0  0  0  0  0  0  0  0  0
   -0.4587   -1.0361    0.1061 O   0  0  0  0  0  0  0  0  0  0  0  0
   -4.7155   -3.1431    0.0256 O   0  0  0  0  0  0  0  0  0  0  0  0
   -4.4392    1.6004   -0.0205 O   0  0  0  0  0  0  0  0  0  0  0  0
    0.6473    2.3962    0.1012 O   0  0  0  0  0  0  0  0  0  0  0  0
    0.6587    3.2184   -1.0675 C   0  0  0  0  0  0  0  0  0  0  0  0
    7.5321   -1.5835   -0.5080 H   0  0  0  0  0  0  0  0  0  0  0  0
    6.0320   -2.5399   -0.4489 H   0  0  0  0  0  0  0  0  0  0  0  0
    6.2196   -1.2527   -1.6639 H   0  0  0  0  0  0  0  0  0  0  0  0
    4.5199    1.0256    1.7912 H   0  0  0  0  0  0  0  0  0  0  0  0
    2.0812    1.3223    1.7308 H   0  0  0  0  0  0  0  0  0  0  0  0
    1.8171   -1.5973   -1.4044 H   0  0  0  0  0  0  0  0  0  0  0  0
    4.2574   -1.8798   -1.3363 H   0  0  0  0  0  0  0  0  0  0  0  0
   -5.6656   -0.7098   -0.0266 H   0  0  0  0  0  0  0  0  0  0  0  0
   -2.1077   -3.0789    0.0922 H   0  0  0  0  0  0  0  0  0  0  0  0
   -4.9107   -3.4806   -0.8593 H   0  0  0  0  0  0  0  0  0  0  0  0
   -4.5922    1.9424   -0.9120 H   0  0  0  0  0  0  0  0  0  0  0  0
    1.4341    3.9782   -0.9697 H   0  0  0  0  0  0  0  0  0  0  0  0
    0.8622    2.6022   -1.9433 H   0  0  0  0  0  0  0  0  0  0  0  0
   -0.3116    3.7020   -1.1810 H   0  0  0  0  0  0  0  0  0  0  0  0
  1  2  1  0  0  0  0
  2  3  1  0  0  0  0
  3  4  2  0  0  0  0
  4  5  1  0  0  0  0
  5  6  2  0  0  0  0
  6  7  1  0  0  0  0
  7  8  2  0  0  0  0
  3  8  1  0  0  0  0
  6  9  1  0  0  0  0
  9 10  2  0  0  0  0
 10 11  1  0  0  0  0
 11 12  2  0  0  0  0
 11 13  1  0  0  0  0
 13 14  2  0  0  0  0
 14 15  1  0  0  0  0
 15 16  2  0  0  0  0
 16 17  1  0  0  0  0
 17 18  2  0  0  0  0
 13 18  1  0  0  0  0
 18 19  1  0  0  0  0
  9 19  1  0  0  0  0
 16 20  1  0  0  0  0
 14 21  1  0  0  0  0
 10 22  1  0  0  0  0
 22 23  1  0  0  0  0
  1 24  1  0  0  0  0
  1 25  1  0  0  0  0
  1 26  1  0  0  0  0
  4 27  1  0  0  0  0
  5 28  1  0  0  0  0
  7 29  1  0  0  0  0
  8 30  1  0  0  0  0
 15 31  1  0  0  0  0
 17 32  1  0  0  0  0
 20 33  1  0  0  0  0
 21 34  1  0  0  0  0
 23 35  1  0  0  0  0
 23 36  1  0  0  0  0
 23 37  1  0  0  0  0
M  END
$$$$
