C14H24O2
APtclcactv06281817073D 0   0.00000     0.00000
 
 40 39  0  0  0  0  0  0  0  0999 V2000
   -7.0169   -1.2764    0.5906 C   0  0  0  0  0  0  0  0  0  0  0  0
   -5.9165   -0.4375   -0.0623 C   0  0  0  0  0  0  0  0  0  0  0  0
   -4.5524   -0.8849    0.4668 C   0  0  0  0  0  0  0  0  0  0  0  0
   -3.4686   -0.0586   -0.1764 C   0  0  0  0  0  0  0  0  0  0  0  0
   -3.7576    0.8000   -0.9759 O   0  0  0  0  0  0  0  0  0  0  0  0
   -2.1822   -0.2765    0.1389 O   0  0  0  0  0  0  0  0  0  0  0  0
   -1.1919    0.5569   -0.5192 C   0  0  0  0  0  0  0  0  0  0  0  0
    0.1852    0.1709   -0.0442 C   0  0  0  0  0  0  0  0  0  0  0  0
    1.0503    1.0995    0.2805 C   0  0  0  0  0  0  0  0  0  0  0  0
    0.7145    2.5521    0.0607 C   0  0  0  0  0  0  0  0  0  0  0  0
    2.3812    0.7152    0.8738 C   0  0  0  0  0  0  0  0  0  0  0  0
    3.4313    0.6383   -0.2362 C   0  0  0  0  0  0  0  0  0  0  0  0
    4.7622    0.2540    0.3571 C   0  0  0  0  0  0  0  0  0  0  0  0
    5.3705   -0.8333   -0.0479 C   0  0  0  0  0  0  0  0  0  0  0  0
    4.6822   -1.7683   -1.0086 C   0  0  0  0  0  0  0  0  0  0  0  0
    6.7585   -1.1489    0.4468 C   0  0  0  0  0  0  0  0  0  0  0  0
   -6.8617   -2.3286    0.3517 H   0  0  0  0  0  0  0  0  0  0  0  0
   -6.9841   -1.1407    1.6717 H   0  0  0  0  0  0  0  0  0  0  0  0
   -7.9887   -0.9577    0.2137 H   0  0  0  0  0  0  0  0  0  0  0  0
   -5.9493   -0.5733   -1.1433 H   0  0  0  0  0  0  0  0  0  0  0  0
   -6.0717    0.6146    0.1766 H   0  0  0  0  0  0  0  0  0  0  0  0
   -4.5196   -0.7491    1.5478 H   0  0  0  0  0  0  0  0  0  0  0  0
   -4.3973   -1.9370    0.2278 H   0  0  0  0  0  0  0  0  0  0  0  0
   -1.2570    0.4153   -1.5980 H   0  0  0  0  0  0  0  0  0  0  0  0
   -1.3794    1.6032   -0.2781 H   0  0  0  0  0  0  0  0  0  0  0  0
    0.4589   -0.8713    0.0286 H   0  0  0  0  0  0  0  0  0  0  0  0
    0.1465    2.9266    0.9123 H   0  0  0  0  0  0  0  0  0  0  0  0
    1.6353    3.1262   -0.0426 H   0  0  0  0  0  0  0  0  0  0  0  0
    0.1190    2.6541   -0.8465 H   0  0  0  0  0  0  0  0  0  0  0  0
    2.6818    1.4635    1.6072 H   0  0  0  0  0  0  0  0  0  0  0  0
    2.2951   -0.2564    1.3604 H   0  0  0  0  0  0  0  0  0  0  0  0
    3.1308   -0.1100   -0.9696 H   0  0  0  0  0  0  0  0  0  0  0  0
    3.5174    1.6099   -0.7228 H   0  0  0  0  0  0  0  0  0  0  0  0
    5.2146    0.8749    1.1162 H   0  0  0  0  0  0  0  0  0  0  0  0
    4.8647   -1.4378   -2.0311 H   0  0  0  0  0  0  0  0  0  0  0  0
    5.0739   -2.7770   -0.8775 H   0  0  0  0  0  0  0  0  0  0  0  0
    3.6100   -1.7666   -0.8121 H   0  0  0  0  0  0  0  0  0  0  0  0
    7.0887   -0.3644    1.1277 H   0  0  0  0  0  0  0  0  0  0  0  0
    6.7488   -2.1046    0.9709 H   0  0  0  0  0  0  0  0  0  0  0  0
    7.4420   -1.2060   -0.4004 H   0  0  0  0  0  0  0  0  0  0  0  0
  1  2  1  0  0  0  0
  2  3  1  0  0  0  0
  3  4  1  0  0  0  0
  4  5  2  0  0  0  0
  4  6  1  0  0  0  0
  6  7  1  0  0  0  0
  7  8  1  0  0  0  0
  8  9  2  0  0  0  0
  9 10  1  0  0  0  0
  9 11  1  0  0  0  0
 11 12  1  0  0  0  0
 12 13  1  0  0  0  0
 13 14  2  0  0  0  0
 14 15  1  0  0  0  0
 14 16  1  0  0  0  0
  1 17  1  0  0  0  0
  1 18  1  0  0  0  0
  1 19  1  0  0  0  0
  2 20  1  0  0  0  0
  2 21  1  0  0  0  0
  3 22  1  0  0  0  0
  3 23  1  0  0  0  0
  7 24  1  0  0  0  0
  7 25  1  0  0  0  0
  8 26  1  0  0  0  0
 10 27  1  0  0  0  0
 10 28  1  0  0  0  0
 10 29  1  0  0  0  0
 11 30  1  0  0  0  0
 11 31  1  0  0  0  0
 12 32  1  0  0  0  0
 12 33  1  0  0  0  0
 13 34  1  0  0  0  0
 15 35  1  0  0  0  0
 15 36  1  0  0  0  0
 15 37  1  0  0  0  0
 16 38  1  0  0  0  0
 16 39  1  0  0  0  0
 16 40  1  0  0  0  0
M  END
$$$$
