C17H14O7
APtclcactv06281817073D 0   0.00000     0.00000
 
 38 40  0  0  0  0  0  0  0  0999 V2000
    5.8079   -0.1588   -1.0377 C   0  0  0  0  0  0  0  0  0  0  0  0
    5.1375   -0.2702    0.2193 O   0  0  0  0  0  0  0  0  0  0  0  0
    3.7899   -0.4613    0.1864 C   0  0  0  0  0  0  0  0  0  0  0  0
    3.2709   -1.7544    0.1542 C   0  0  0  0  0  0  0  0  0  0  0  0
    1.9017   -1.9646    0.1200 C   0  0  0  0  0  0  0  0  0  0  0  0
    1.0323   -0.8846    0.1180 C   0  0  0  0  0  0  0  0  0  0  0  0
    1.5518    0.4219    0.1508 C   0  0  0  0  0  0  0  0  0  0  0  0
    2.9361    0.6298    0.1906 C   0  0  0  0  0  0  0  0  0  0  0  0
    3.4381    1.8916    0.2224 O   0  0  0  0  0  0  0  0  0  0  0  0
    0.6105    1.5532    0.1479 C   0  0  0  0  0  0  0  0  0  0  0  0
    1.0064    2.7077    0.1752 O   0  0  0  0  0  0  0  0  0  0  0  0
   -0.7749    1.2499    0.1117 C   0  0  0  0  0  0  0  0  0  0  0  0
   -1.1756   -0.0522    0.0816 C   0  0  0  0  0  0  0  0  0  0  0  0
   -0.3039   -1.0750    0.0844 O   0  0  0  0  0  0  0  0  0  0  0  0
   -2.6192   -0.3500    0.0442 C   0  0  0  0  0  0  0  0  0  0  0  0
   -3.1207   -1.2747   -0.8764 C   0  0  0  0  0  0  0  0  0  0  0  0
   -4.4700   -1.5497   -0.9078 C   0  0  0  0  0  0  0  0  0  0  0  0
   -5.3324   -0.9095   -0.0262 C   0  0  0  0  0  0  0  0  0  0  0  0
   -4.8385    0.0107    0.8903 C   0  0  0  0  0  0  0  0  0  0  0  0
   -3.4898    0.2874    0.9331 C   0  0  0  0  0  0  0  0  0  0  0  0
   -6.6619   -1.1837   -0.0607 O   0  0  0  0  0  0  0  0  0  0  0  0
   -1.6964    2.2514    0.1075 O   0  0  0  0  0  0  0  0  0  0  0  0
   -1.7278    3.0993   -1.0423 C   0  0  0  0  0  0  0  0  0  0  0  0
    4.1153   -2.8185    0.1559 O   0  0  0  0  0  0  0  0  0  0  0  0
    6.8743   -0.0094   -0.8688 H   0  0  0  0  0  0  0  0  0  0  0  0
    5.6556   -1.0720   -1.6129 H   0  0  0  0  0  0  0  0  0  0  0  0
    5.4052    0.6901   -1.5903 H   0  0  0  0  0  0  0  0  0  0  0  0
    1.5111   -2.9712    0.0945 H   0  0  0  0  0  0  0  0  0  0  0  0
    3.5600    2.2440    1.1146 H   0  0  0  0  0  0  0  0  0  0  0  0
   -2.4512   -1.7725   -1.5622 H   0  0  0  0  0  0  0  0  0  0  0  0
   -4.8584   -2.2637   -1.6190 H   0  0  0  0  0  0  0  0  0  0  0  0
   -5.5125    0.5062    1.5734 H   0  0  0  0  0  0  0  0  0  0  0  0
   -3.1068    1.0028    1.6457 H   0  0  0  0  0  0  0  0  0  0  0  0
   -6.9284   -1.9122    0.5167 H   0  0  0  0  0  0  0  0  0  0  0  0
   -2.5674    3.7897   -0.9618 H   0  0  0  0  0  0  0  0  0  0  0  0
   -0.7975    3.6640   -1.1028 H   0  0  0  0  0  0  0  0  0  0  0  0
   -1.8425    2.4908   -1.9394 H   0  0  0  0  0  0  0  0  0  0  0  0
    4.3401   -3.1407    1.0394 H   0  0  0  0  0  0  0  0  0  0  0  0
  1  2  1  0  0  0  0
  2  3  1  0  0  0  0
  3  4  2  0  0  0  0
  4  5  1  0  0  0  0
  5  6  2  0  0  0  0
  6  7  1  0  0  0  0
  7  8  2  0  0  0  0
  3  8  1  0  0  0  0
  8  9  1  0  0  0  0
  7 10  1  0  0  0  0
 10 11  2  0  0  0  0
 10 12  1  0  0  0  0
 12 13  2  0  0  0  0
 13 14  1  0  0  0  0
  6 14  1  0  0  0  0
 13 15  1  0  0  0  0
 15 16  2  0  0  0  0
 16 17  1  0  0  0  0
 17 18  2  0  0  0  0
 18 19  1  0  0  0  0
 19 20  2  0  0  0  0
 15 20  1  0  0  0  0
 18 21  1  0  0  0  0
 12 22  1  0  0  0  0
 22 23  1  0  0  0  0
  4 24  1  0  0  0  0
  1 25  1  0  0  0  0
  1 26  1  0  0  0  0
  1 27  1  0  0  0  0
  5 28  1  0  0  0  0
  9 29  1  0  0  0  0
 16 30  1  0  0  0  0
 17 31  1  0  0  0  0
 19 32  1  0  0  0  0
 20 33  1  0  0  0  0
 21 34  1  0  0  0  0
 23 35  1  0  0  0  0
 23 36  1  0  0  0  0
 23 37  1  0  0  0  0
 24 38  1  0  0  0  0
M  END
$$$$
