C20H34O5
APtclcactv06281817083D 0   0.00000     0.00000
 
 59 59  0  0  0  0  0  0  0  0999 V2000
    8.5643   -3.9418   -0.1691 C   0  0  0  0  0  0  0  0  0  0  0  0
    7.0468   -3.8537   -0.3434 C   0  0  0  0  0  0  0  0  0  0  0  0
    6.5559   -2.4889    0.1435 C   0  0  0  0  0  0  0  0  0  0  0  0
    5.0384   -2.4007   -0.0307 C   0  0  0  0  0  0  0  0  0  0  0  0
    4.5475   -1.0359    0.4562 C   0  0  0  0  0  0  0  0  0  0  0  0
    3.0301   -0.9478    0.2820 C   0  0  0  0  0  0  0  0  0  0  0  0
    2.5308    0.3453    0.8733 C   0  0  0  0  0  0  0  0  0  0  0  0
    1.8240    1.1705    0.1414 C   0  0  0  0  0  0  0  0  0  0  0  0
    1.3247    2.4636    0.7328 C   0  0  0  0  0  0  0  0  0  0  0  0
    1.8560    3.6736   -0.0769 C   0  0  0  0  0  0  0  0  0  0  0  0
    0.8713    3.7305   -1.2712 C   0  0  0  0  0  0  0  0  0  0  0  0
   -0.4754    3.3710   -0.6689 C   0  0  0  0  0  0  0  0  0  0  0  0
   -1.5592    3.6685   -1.1106 O   0  0  0  0  0  0  0  0  0  0  0  0
   -0.2076    2.5698    0.5881 C   0  0  0  0  0  0  0  0  0  0  0  0
   -0.8186    1.1731    0.4580 C   0  0  0  0  0  0  0  0  0  0  0  0
   -2.3438    1.2859    0.4123 C   0  0  0  0  0  0  0  0  0  0  0  0
   -2.9548   -0.1107    0.2822 C   0  0  0  0  0  0  0  0  0  0  0  0
   -4.4799    0.0021    0.2365 C   0  0  0  0  0  0  0  0  0  0  0  0
   -5.0909   -1.3946    0.1065 C   0  0  0  0  0  0  0  0  0  0  0  0
   -6.6161   -1.2818    0.0608 C   0  0  0  0  0  0  0  0  0  0  0  0
   -7.2179   -2.6575   -0.0674 C   0  0  0  0  0  0  0  0  0  0  0  0
   -6.5006   -3.6285   -0.1170 O   0  0  0  0  0  0  0  0  0  0  0  0
   -8.5509   -2.8040   -0.1263 O   0  0  0  0  0  0  0  0  0  0  0  0
    1.7862    4.8730    0.6968 O   0  0  0  0  0  0  0  0  0  0  0  0
    2.7070   -0.9914   -1.1093 O   0  0  0  0  0  0  0  0  0  0  0  0
    8.8168   -3.8195    0.8841 H   0  0  0  0  0  0  0  0  0  0  0  0
    8.9140   -4.9142   -0.5160 H   0  0  0  0  0  0  0  0  0  0  0  0
    9.0432   -3.1546   -0.7514 H   0  0  0  0  0  0  0  0  0  0  0  0
    6.7943   -3.9761   -1.3967 H   0  0  0  0  0  0  0  0  0  0  0  0
    6.5679   -4.6410    0.2389 H   0  0  0  0  0  0  0  0  0  0  0  0
    6.8084   -2.3665    1.1968 H   0  0  0  0  0  0  0  0  0  0  0  0
    7.0348   -1.7016   -0.4387 H   0  0  0  0  0  0  0  0  0  0  0  0
    4.7859   -2.5231   -1.0840 H   0  0  0  0  0  0  0  0  0  0  0  0
    4.5595   -3.1880    0.5515 H   0  0  0  0  0  0  0  0  0  0  0  0
    4.8000   -0.9135    1.5095 H   0  0  0  0  0  0  0  0  0  0  0  0
    5.0264   -0.2486   -0.1260 H   0  0  0  0  0  0  0  0  0  0  0  0
    2.5565   -1.7870    0.7914 H   0  0  0  0  0  0  0  0  0  0  0  0
    2.7556    0.5917    1.9005 H   0  0  0  0  0  0  0  0  0  0  0  0
    1.5992    0.9241   -0.8858 H   0  0  0  0  0  0  0  0  0  0  0  0
    1.6193    2.5439    1.7791 H   0  0  0  0  0  0  0  0  0  0  0  0
    2.8739    3.4923   -0.4220 H   0  0  0  0  0  0  0  0  0  0  0  0
    0.8434    4.7347   -1.6941 H   0  0  0  0  0  0  0  0  0  0  0  0
    1.1541    3.0036   -2.0327 H   0  0  0  0  0  0  0  0  0  0  0  0
   -0.6288    3.0820    1.4531 H   0  0  0  0  0  0  0  0  0  0  0  0
   -0.4613    0.7042   -0.4588 H   0  0  0  0  0  0  0  0  0  0  0  0
   -0.5246    0.5667    1.3147 H   0  0  0  0  0  0  0  0  0  0  0  0
   -2.7010    1.7549    1.3291 H   0  0  0  0  0  0  0  0  0  0  0  0
   -2.6377    1.8923   -0.4444 H   0  0  0  0  0  0  0  0  0  0  0  0
   -2.5975   -0.5797   -0.6346 H   0  0  0  0  0  0  0  0  0  0  0  0
   -2.6608   -0.7171    1.1389 H   0  0  0  0  0  0  0  0  0  0  0  0
   -4.8372    0.4710    1.1533 H   0  0  0  0  0  0  0  0  0  0  0  0
   -4.7739    0.6085   -0.6202 H   0  0  0  0  0  0  0  0  0  0  0  0
   -4.7336   -1.8635   -0.8103 H   0  0  0  0  0  0  0  0  0  0  0  0
   -4.7970   -2.0010    0.9632 H   0  0  0  0  0  0  0  0  0  0  0  0
   -6.9734   -0.8128    0.9776 H   0  0  0  0  0  0  0  0  0  0  0  0
   -6.9101   -0.6754   -0.7960 H   0  0  0  0  0  0  0  0  0  0  0  0
   -8.8902   -3.7058   -0.2083 H   0  0  0  0  0  0  0  0  0  0  0  0
    2.1074    5.6589    0.2340 H   0  0  0  0  0  0  0  0  0  0  0  0
    3.0958   -0.2724   -1.6261 H   0  0  0  0  0  0  0  0  0  0  0  0
  1  2  1  0  0  0  0
  2  3  1  0  0  0  0
  3  4  1  0  0  0  0
  4  5  1  0  0  0  0
  5  6  1  0  0  0  0
  6  7  1  0  0  0  0
  7  8  2  0  0  0  0
  8  9  1  0  0  0  0
  9 10  1  0  0  0  0
 10 11  1  0  0  0  0
 11 12  1  0  0  0  0
 12 13  2  0  0  0  0
 12 14  1  0  0  0  0
  9 14  1  0  0  0  0
 14 15  1  0  0  0  0
 15 16  1  0  0  0  0
 16 17  1  0  0  0  0
 17 18  1  0  0  0  0
 18 19  1  0  0  0  0
 19 20  1  0  0  0  0
 20 21  1  0  0  0  0
 21 22  2  0  0  0  0
 21 23  1  0  0  0  0
 10 24  1  0  0  0  0
  6 25  1  0  0  0  0
  1 26  1  0  0  0  0
  1 27  1  0  0  0  0
  1 28  1  0  0  0  0
  2 29  1  0  0  0  0
  2 30  1  0  0  0  0
  3 31  1  0  0  0  0
  3 32  1  0  0  0  0
  4 33  1  0  0  0  0
  4 34  1  0  0  0  0
  5 35  1  0  0  0  0
  5 36  1  0  0  0  0
  6 37  1  0  0  0  0
  7 38  1  0  0  0  0
  8 39  1  0  0  0  0
  9 40  1  0  0  0  0
 10 41  1  0  0  0  0
 11 42  1  0  0  0  0
 11 43  1  0  0  0  0
 14 44  1  0  0  0  0
 15 45  1  0  0  0  0
 15 46  1  0  0  0  0
 16 47  1  0  0  0  0
 16 48  1  0  0  0  0
 17 49  1  0  0  0  0
 17 50  1  0  0  0  0
 18 51  1  0  0  0  0
 18 52  1  0  0  0  0
 19 53  1  0  0  0  0
 19 54  1  0  0  0  0
 20 55  1  0  0  0  0
 20 56  1  0  0  0  0
 23 57  1  0  0  0  0
 24 58  1  0  0  0  0
 25 59  1  0  0  0  0
M  END
$$$$
