C28H32O15
APtclcactv06281817083D 0   0.00000     0.00000
 
 75 79  0  0  0  0  0  0  0  0999 V2000
   -6.3829    2.7826    2.1275 C   0  0  0  0  0  0  0  0  0  0  0  0
   -5.9888    2.7988    0.6492 C   0  0  0  0  0  0  0  0  0  0  0  0
   -5.1839    4.0660    0.3492 C   0  0  0  0  0  0  0  0  0  0  0  0
   -3.8934    4.0491    1.1742 C   0  0  0  0  0  0  0  0  0  0  0  0
   -3.1103    2.7730    0.8508 C   0  0  0  0  0  0  0  0  0  0  0  0
   -3.9953    1.5557    1.1314 C   0  0  0  0  0  0  0  0  0  0  0  0
   -5.1919    1.6494    0.3559 O   0  0  0  0  0  0  0  0  0  0  0  0
   -3.2911    0.3632    0.7789 O   0  0  0  0  0  0  0  0  0  0  0  0
   -3.9867   -0.8411    1.1074 C   0  0  0  0  0  0  0  0  0  0  0  0
   -3.1442   -2.0473    0.6875 C   0  0  0  0  0  0  0  0  0  0  0  0
   -3.8302   -3.3352    1.1506 C   0  0  0  0  0  0  0  0  0  0  0  0
   -3.0124   -4.5397    0.6745 C   0  0  0  0  0  0  0  0  0  0  0  0
   -2.8667   -4.4741   -0.8489 C   0  0  0  0  0  0  0  0  0  0  0  0
   -2.2179   -3.1422   -1.2347 C   0  0  0  0  0  0  0  0  0  0  0  0
   -3.0124   -2.0645   -0.7353 O   0  0  0  0  0  0  0  0  0  0  0  0
   -0.9071   -3.0693   -0.6702 O   0  0  0  0  0  0  0  0  0  0  0  0
   -0.1513   -1.9923   -1.0040 C   0  0  0  0  0  0  0  0  0  0  0  0
   -0.6688   -1.0268   -1.8603 C   0  0  0  0  0  0  0  0  0  0  0  0
    0.0924    0.0746   -2.2066 C   0  0  0  0  0  0  0  0  0  0  0  0
    1.3864    0.2090   -1.6885 C   0  0  0  0  0  0  0  0  0  0  0  0
    1.9071   -0.7686   -0.8230 C   0  0  0  0  0  0  0  0  0  0  0  0
    1.1273   -1.8627   -0.4833 C   0  0  0  0  0  0  0  0  0  0  0  0
    3.1562   -0.6306   -0.3299 O   0  0  0  0  0  0  0  0  0  0  0  0
    3.9360    0.4184   -0.6361 C   0  0  0  0  0  0  0  0  0  0  0  0
    3.5262    1.4172   -1.4635 C   0  0  0  0  0  0  0  0  0  0  0  0
    2.2313    1.3655   -2.0316 C   0  0  0  0  0  0  0  0  0  0  0  0
    1.8308    2.2441   -2.7780 O   0  0  0  0  0  0  0  0  0  0  0  0
    5.2888    0.4909   -0.0525 C   0  0  0  0  0  0  0  0  0  0  0  0
    5.7383   -0.5200    0.8017 C   0  0  0  0  0  0  0  0  0  0  0  0
    7.0064   -0.4475    1.3452 C   0  0  0  0  0  0  0  0  0  0  0  0
    7.8341    0.6322    1.0418 C   0  0  0  0  0  0  0  0  0  0  0  0
    7.3878    1.6362    0.1935 C   0  0  0  0  0  0  0  0  0  0  0  0
    6.1262    1.5675   -0.3569 C   0  0  0  0  0  0  0  0  0  0  0  0
    9.0803    0.7022    1.5779 O   0  0  0  0  0  0  0  0  0  0  0  0
    9.8756    1.8358    1.2249 C   0  0  0  0  0  0  0  0  0  0  0  0
    7.4469   -1.4294    2.1767 O   0  0  0  0  0  0  0  0  0  0  0  0
   -0.4107    1.0179   -3.0425 O   0  0  0  0  0  0  0  0  0  0  0  0
   -2.0442   -5.5534   -1.2969 O   0  0  0  0  0  0  0  0  0  0  0  0
   -1.7185   -4.5085    1.2803 O   0  0  0  0  0  0  0  0  0  0  0  0
   -3.9112   -3.3468    2.5772 O   0  0  0  0  0  0  0  0  0  0  0  0
   -2.7323    2.7810   -0.5273 O   0  0  0  0  0  0  0  0  0  0  0  0
   -3.1012    5.1922    0.8459 O   0  0  0  0  0  0  0  0  0  0  0  0
   -4.8608    4.1083   -1.0421 O   0  0  0  0  0  0  0  0  0  0  0  0
   -6.9898    3.6599    2.3513 H   0  0  0  0  0  0  0  0  0  0  0  0
   -6.9559    1.8803    2.3410 H   0  0  0  0  0  0  0  0  0  0  0  0
   -5.4837    2.7962    2.7434 H   0  0  0  0  0  0  0  0  0  0  0  0
   -6.8879    2.7848    0.0332 H   0  0  0  0  0  0  0  0  0  0  0  0
   -5.7740    4.9435    0.6139 H   0  0  0  0  0  0  0  0  0  0  0  0
   -4.1391    4.0669    2.2360 H   0  0  0  0  0  0  0  0  0  0  0  0
   -2.2174    2.7257    1.4741 H   0  0  0  0  0  0  0  0  0  0  0  0
   -4.2500    1.5279    2.1909 H   0  0  0  0  0  0  0  0  0  0  0  0
   -4.1626   -0.8774    2.1825 H   0  0  0  0  0  0  0  0  0  0  0  0
   -4.9414   -0.8642    0.5820 H   0  0  0  0  0  0  0  0  0  0  0  0
   -2.1566   -1.9774    1.1434 H   0  0  0  0  0  0  0  0  0  0  0  0
   -4.8335   -3.3860    0.7275 H   0  0  0  0  0  0  0  0  0  0  0  0
   -3.5244   -5.4610    0.9525 H   0  0  0  0  0  0  0  0  0  0  0  0
   -3.8504   -4.5478   -1.3124 H   0  0  0  0  0  0  0  0  0  0  0  0
   -2.1507   -3.0716   -2.3203 H   0  0  0  0  0  0  0  0  0  0  0  0
   -1.6675   -1.1374   -2.2562 H   0  0  0  0  0  0  0  0  0  0  0  0
    1.5186   -2.6190    0.1810 H   0  0  0  0  0  0  0  0  0  0  0  0
    4.1842    2.2446   -1.6844 H   0  0  0  0  0  0  0  0  0  0  0  0
    5.0957   -1.3556    1.0366 H   0  0  0  0  0  0  0  0  0  0  0  0
    8.0322    2.4712   -0.0388 H   0  0  0  0  0  0  0  0  0  0  0  0
    5.7815    2.3500   -1.0167 H   0  0  0  0  0  0  0  0  0  0  0  0
   10.8445    1.7681    1.7196 H   0  0  0  0  0  0  0  0  0  0  0  0
   10.0199    1.8562    0.1447 H   0  0  0  0  0  0  0  0  0  0  0  0
    9.3691    2.7477    1.5411 H   0  0  0  0  0  0  0  0  0  0  0  0
    7.8968   -2.1558    1.7239 H   0  0  0  0  0  0  0  0  0  0  0  0
   -0.8802    1.7330   -2.5916 H   0  0  0  0  0  0  0  0  0  0  0  0
   -1.9090   -5.5737   -2.2542 H   0  0  0  0  0  0  0  0  0  0  0  0
   -1.1458   -5.2439    1.0228 H   0  0  0  0  0  0  0  0  0  0  0  0
   -4.3357   -4.1359    2.9407 H   0  0  0  0  0  0  0  0  0  0  0  0
   -2.2320    2.0006   -0.8024 H   0  0  0  0  0  0  0  0  0  0  0  0
   -2.2672    5.2457    1.3324 H   0  0  0  0  0  0  0  0  0  0  0  0
   -5.6323    4.1161   -1.6250 H   0  0  0  0  0  0  0  0  0  0  0  0
  1  2  1  0  0  0  0
  2  3  1  0  0  0  0
  3  4  1  0  0  0  0
  4  5  1  0  0  0  0
  5  6  1  0  0  0  0
  6  7  1  0  0  0  0
  2  7  1  0  0  0  0
  6  8  1  0  0  0  0
  8  9  1  0  0  0  0
  9 10  1  0  0  0  0
 10 11  1  0  0  0  0
 11 12  1  0  0  0  0
 12 13  1  0  0  0  0
 13 14  1  0  0  0  0
 14 15  1  0  0  0  0
 10 15  1  0  0  0  0
 14 16  1  0  0  0  0
 16 17  1  0  0  0  0
 17 18  2  0  0  0  0
 18 19  1  0  0  0  0
 19 20  2  0  0  0  0
 20 21  1  0  0  0  0
 21 22  2  0  0  0  0
 17 22  1  0  0  0  0
 21 23  1  0  0  0  0
 23 24  1  0  0  0  0
 24 25  2  0  0  0  0
 25 26  1  0  0  0  0
 20 26  1  0  0  0  0
 26 27  2  0  0  0  0
 24 28  1  0  0  0  0
 28 29  2  0  0  0  0
 29 30  1  0  0  0  0
 30 31  2  0  0  0  0
 31 32  1  0  0  0  0
 32 33  2  0  0  0  0
 28 33  1  0  0  0  0
 31 34  1  0  0  0  0
 34 35  1  0  0  0  0
 30 36  1  0  0  0  0
 19 37  1  0  0  0  0
 13 38  1  0  0  0  0
 12 39  1  0  0  0  0
 11 40  1  0  0  0  0
  5 41  1  0  0  0  0
  4 42  1  0  0  0  0
  3 43  1  0  0  0  0
  1 44  1  0  0  0  0
  1 45  1  0  0  0  0
  1 46  1  0  0  0  0
  2 47  1  0  0  0  0
  3 48  1  0  0  0  0
  4 49  1  0  0  0  0
  5 50  1  0  0  0  0
  6 51  1  0  0  0  0
  9 52  1  0  0  0  0
  9 53  1  0  0  0  0
 10 54  1  0  0  0  0
 11 55  1  0  0  0  0
 12 56  1  0  0  0  0
 13 57  1  0  0  0  0
 14 58  1  0  0  0  0
 18 59  1  0  0  0  0
 22 60  1  0  0  0  0
 25 61  1  0  0  0  0
 29 62  1  0  0  0  0
 32 63  1  0  0  0  0
 33 64  1  0  0  0  0
 35 65  1  0  0  0  0
 35 66  1  0  0  0  0
 35 67  1  0  0  0  0
 36 68  1  0  0  0  0
 37 69  1  0  0  0  0
 38 70  1  0  0  0  0
 39 71  1  0  0  0  0
 40 72  1  0  0  0  0
 41 73  1  0  0  0  0
 42 74  1  0  0  0  0
 43 75  1  0  0  0  0
M  END
$$$$
