C32H46O8
APtclcactv06281817083D 0   0.00000     0.00000
 
 86 89  0  0  0  0  0  0  0  0999 V2000
    6.3883    4.1963   -0.2967 C   0  0  0  0  0  0  0  0  0  0  0  0
    6.9376    2.8398    0.0627 C   0  0  0  0  0  0  0  0  0  0  0  0
    8.0840    2.7297    0.4282 O   0  0  0  0  0  0  0  0  0  0  0  0
    6.1533    1.7538   -0.0232 O   0  0  0  0  0  0  0  0  0  0  0  0
    6.7492    0.4801    0.3387 C   0  0  0  0  0  0  0  0  0  0  0  0
    7.9436    0.1979   -0.5749 C   0  0  0  0  0  0  0  0  0  0  0  0
    7.2208    0.5326    1.7932 C   0  0  0  0  0  0  0  0  0  0  0  0
    5.7265   -0.6156    0.1814 C   0  0  0  0  0  0  0  0  0  0  0  0
    4.4934   -0.3225   -0.2364 C   0  0  0  0  0  0  0  0  0  0  0  0
    3.5009   -1.3859   -0.3891 C   0  0  0  0  0  0  0  0  0  0  0  0
    3.7986   -2.5345   -0.1359 O   0  0  0  0  0  0  0  0  0  0  0  0
    2.1085   -1.0549   -0.8609 C   0  0  0  0  0  0  0  0  0  0  0  0
    2.0546   -1.1362   -2.3878 C   0  0  0  0  0  0  0  0  0  0  0  0
    1.1254   -2.0442   -0.2673 C   0  0  0  0  0  0  0  0  0  0  0  0
    1.1916   -2.1068    1.2785 C   0  0  0  0  0  0  0  0  0  0  0  0
   -0.2677   -1.8934    1.7837 C   0  0  0  0  0  0  0  0  0  0  0  0
   -0.8433   -1.0078    0.6676 C   0  0  0  0  0  0  0  0  0  0  0  0
   -0.3424   -1.7424   -0.5902 C   0  0  0  0  0  0  0  0  0  0  0  0
   -0.6583   -0.9203   -1.8127 C   0  0  0  0  0  0  0  0  0  0  0  0
   -2.1578   -0.6515   -1.8609 C   0  0  0  0  0  0  0  0  0  0  0  0
   -2.6556   -0.2801   -2.9181 O   0  0  0  0  0  0  0  0  0  0  0  0
   -3.0377   -0.8269   -0.6583 C   0  0  0  0  0  0  0  0  0  0  0  0
   -2.2928   -0.6987    0.6577 C   0  0  0  0  0  0  0  0  0  0  0  0
   -3.1507   -1.2298    1.7963 C   0  0  0  0  0  0  0  0  0  0  0  0
   -4.4656   -0.4821    1.7404 C   0  0  0  0  0  0  0  0  0  0  0  0
   -4.8735    0.1773    0.7001 C   0  0  0  0  0  0  0  0  0  0  0  0
   -4.1371    0.2467   -0.6178 C   0  0  0  0  0  0  0  0  0  0  0  0
   -3.6109    1.6417   -0.8807 C   0  0  0  0  0  0  0  0  0  0  0  0
   -4.6328    2.6979   -0.4578 C   0  0  0  0  0  0  0  0  0  0  0  0
   -5.9980    2.0800   -0.2845 C   0  0  0  0  0  0  0  0  0  0  0  0
   -6.9383    2.4514   -0.9509 O   0  0  0  0  0  0  0  0  0  0  0  0
   -6.1682    0.9770    0.7496 C   0  0  0  0  0  0  0  0  0  0  0  0
   -7.3530    0.0823    0.3696 C   0  0  0  0  0  0  0  0  0  0  0  0
   -6.3971    1.5895    2.1320 C   0  0  0  0  0  0  0  0  0  0  0  0
   -4.2108    3.3065    0.7614 O   0  0  0  0  0  0  0  0  0  0  0  0
   -3.8108   -2.1495   -0.7723 C   0  0  0  0  0  0  0  0  0  0  0  0
   -0.9839   -3.1379   -0.7258 C   0  0  0  0  0  0  0  0  0  0  0  0
   -0.1267    0.3628    0.7915 C   0  0  0  0  0  0  0  0  0  0  0  0
    1.6606   -3.3916    1.6957 O   0  0  0  0  0  0  0  0  0  0  0  0
    1.7652    0.2674   -0.4418 O   0  0  0  0  0  0  0  0  0  0  0  0
    7.1654    4.9493   -0.1659 H   0  0  0  0  0  0  0  0  0  0  0  0
    6.0585    4.1911   -1.3356 H   0  0  0  0  0  0  0  0  0  0  0  0
    5.5436    4.4296    0.3515 H   0  0  0  0  0  0  0  0  0  0  0  0
    8.6833    0.9904   -0.4611 H   0  0  0  0  0  0  0  0  0  0  0  0
    8.3909   -0.7583   -0.3032 H   0  0  0  0  0  0  0  0  0  0  0  0
    7.6076    0.1605   -1.6111 H   0  0  0  0  0  0  0  0  0  0  0  0
    6.3698    0.7337    2.4441 H   0  0  0  0  0  0  0  0  0  0  0  0
    7.6680   -0.4236    2.0649 H   0  0  0  0  0  0  0  0  0  0  0  0
    7.9604    1.3251    1.9070 H   0  0  0  0  0  0  0  0  0  0  0  0
    5.9916   -1.6380    0.4068 H   0  0  0  0  0  0  0  0  0  0  0  0
    4.2284    0.6999   -0.4618 H   0  0  0  0  0  0  0  0  0  0  0  0
    2.0680   -2.1814   -2.6967 H   0  0  0  0  0  0  0  0  0  0  0  0
    1.1395   -0.6635   -2.7447 H   0  0  0  0  0  0  0  0  0  0  0  0
    2.9178   -0.6215   -2.8097 H   0  0  0  0  0  0  0  0  0  0  0  0
    1.3527   -3.0539   -0.6588 H   0  0  0  0  0  0  0  0  0  0  0  0
    1.8439   -1.3299    1.6664 H   0  0  0  0  0  0  0  0  0  0  0  0
   -0.7967   -2.8296    1.8842 H   0  0  0  0  0  0  0  0  0  0  0  0
   -0.2569   -1.3486    2.7298 H   0  0  0  0  0  0  0  0  0  0  0  0
   -0.1142    0.0282   -1.8312 H   0  0  0  0  0  0  0  0  0  0  0  0
   -0.3676   -1.4804   -2.7200 H   0  0  0  0  0  0  0  0  0  0  0  0
   -2.3037    0.4261    0.8543 H   0  0  0  0  0  0  0  0  0  0  0  0
   -3.3128   -2.2948    1.7332 H   0  0  0  0  0  0  0  0  0  0  0  0
   -2.6696   -0.9986    2.7548 H   0  0  0  0  0  0  0  0  0  0  0  0
   -5.0889   -0.5397    2.6174 H   0  0  0  0  0  0  0  0  0  0  0  0
   -4.8461   -0.0064   -1.4087 H   0  0  0  0  0  0  0  0  0  0  0  0
   -2.6893    1.8033   -0.3236 H   0  0  0  0  0  0  0  0  0  0  0  0
   -3.4052    1.7599   -1.9455 H   0  0  0  0  0  0  0  0  0  0  0  0
   -4.6871    3.4626   -1.2366 H   0  0  0  0  0  0  0  0  0  0  0  0
   -7.1712   -0.3661   -0.6070 H   0  0  0  0  0  0  0  0  0  0  0  0
   -7.4678   -0.7046    1.1151 H   0  0  0  0  0  0  0  0  0  0  0  0
   -8.2628    0.6814    0.3306 H   0  0  0  0  0  0  0  0  0  0  0  0
   -7.2963    2.2052    2.1123 H   0  0  0  0  0  0  0  0  0  0  0  0
   -6.5180    0.7933    2.8667 H   0  0  0  0  0  0  0  0  0  0  0  0
   -5.5402    2.2064    2.4025 H   0  0  0  0  0  0  0  0  0  0  0  0
   -4.8129    3.9881    1.0898 H   0  0  0  0  0  0  0  0  0  0  0  0
   -3.1848   -2.9680   -0.4171 H   0  0  0  0  0  0  0  0  0  0  0  0
   -4.7155   -2.0948   -0.1669 H   0  0  0  0  0  0  0  0  0  0  0  0
   -4.0806   -2.3240   -1.8139 H   0  0  0  0  0  0  0  0  0  0  0  0
   -1.9192   -3.0557   -1.2795 H   0  0  0  0  0  0  0  0  0  0  0  0
   -0.3027   -3.8006   -1.2596 H   0  0  0  0  0  0  0  0  0  0  0  0
   -1.1832   -3.5440    0.2659 H   0  0  0  0  0  0  0  0  0  0  0  0
    0.8846    0.2113    1.1689 H   0  0  0  0  0  0  0  0  0  0  0  0
   -0.0815    0.8391   -0.1879 H   0  0  0  0  0  0  0  0  0  0  0  0
   -0.6798    1.0010    1.4807 H   0  0  0  0  0  0  0  0  0  0  0  0
    1.7245   -3.4945    2.6550 H   0  0  0  0  0  0  0  0  0  0  0  0
    2.1880    0.5405    0.3839 H   0  0  0  0  0  0  0  0  0  0  0  0
  1  2  1  0  0  0  0
  2  3  2  0  0  0  0
  2  4  1  0  0  0  0
  4  5  1  0  0  0  0
  5  6  1  0  0  0  0
  5  7  1  0  0  0  0
  5  8  1  0  0  0  0
  8  9  2  0  0  0  0
  9 10  1  0  0  0  0
 10 11  2  0  0  0  0
 10 12  1  0  0  0  0
 12 13  1  0  0  0  0
 12 14  1  0  0  0  0
 14 15  1  0  0  0  0
 15 16  1  0  0  0  0
 16 17  1  0  0  0  0
 17 18  1  0  0  0  0
 14 18  1  0  0  0  0
 18 19  1  0  0  0  0
 19 20  1  0  0  0  0
 20 21  2  0  0  0  0
 20 22  1  0  0  0  0
 22 23  1  0  0  0  0
 17 23  1  0  0  0  0
 23 24  1  0  0  0  0
 24 25  1  0  0  0  0
 25 26  2  0  0  0  0
 26 27  1  0  0  0  0
 22 27  1  0  0  0  0
 27 28  1  0  0  0  0
 28 29  1  0  0  0  0
 29 30  1  0  0  0  0
 30 31  2  0  0  0  0
 30 32  1  0  0  0  0
 26 32  1  0  0  0  0
 32 33  1  0  0  0  0
 32 34  1  0  0  0  0
 29 35  1  0  0  0  0
 22 36  1  0  0  0  0
 18 37  1  0  0  0  0
 17 38  1  0  0  0  0
 15 39  1  0  0  0  0
 12 40  1  0  0  0  0
  1 41  1  0  0  0  0
  1 42  1  0  0  0  0
  1 43  1  0  0  0  0
  6 44  1  0  0  0  0
  6 45  1  0  0  0  0
  6 46  1  0  0  0  0
  7 47  1  0  0  0  0
  7 48  1  0  0  0  0
  7 49  1  0  0  0  0
  8 50  1  0  0  0  0
  9 51  1  0  0  0  0
 13 52  1  0  0  0  0
 13 53  1  0  0  0  0
 13 54  1  0  0  0  0
 14 55  1  0  0  0  0
 15 56  1  0  0  0  0
 16 57  1  0  0  0  0
 16 58  1  0  0  0  0
 19 59  1  0  0  0  0
 19 60  1  0  0  0  0
 23 61  1  0  0  0  0
 24 62  1  0  0  0  0
 24 63  1  0  0  0  0
 25 64  1  0  0  0  0
 27 65  1  0  0  0  0
 28 66  1  0  0  0  0
 28 67  1  0  0  0  0
 29 68  1  0  0  0  0
 33 69  1  0  0  0  0
 33 70  1  0  0  0  0
 33 71  1  0  0  0  0
 34 72  1  0  0  0  0
 34 73  1  0  0  0  0
 34 74  1  0  0  0  0
 35 75  1  0  0  0  0
 36 76  1  0  0  0  0
 36 77  1  0  0  0  0
 36 78  1  0  0  0  0
 37 79  1  0  0  0  0
 37 80  1  0  0  0  0
 37 81  1  0  0  0  0
 38 82  1  0  0  0  0
 38 83  1  0  0  0  0
 38 84  1  0  0  0  0
 39 85  1  0  0  0  0
 40 86  1  0  0  0  0
M  END
$$$$
