C30H44O7
APtclcactv06281817083D 0   0.00000     0.00000
 
 81 84  0  0  0  0  0  0  0  0999 V2000
   -6.4219    0.6552   -0.8579 C   0  0  0  0  0  0  0  0  0  0  0  0
   -5.4049   -0.4820   -1.0076 C   0  0  0  0  0  0  0  0  0  0  0  0
   -3.9676    0.1471   -0.8697 C   0  0  0  0  0  0  0  0  0  0  0  0
   -3.6736    1.2475   -1.4254 C   0  0  0  0  0  0  0  0  0  0  0  0
   -2.3175    1.8972   -1.3248 C   0  0  0  0  0  0  0  0  0  0  0  0
   -1.5934    1.2082   -0.2018 C   0  0  0  0  0  0  0  0  0  0  0  0
   -0.3726    1.8281    0.3434 C   0  0  0  0  0  0  0  0  0  0  0  0
    0.1628    3.1024   -0.3509 C   0  0  0  0  0  0  0  0  0  0  0  0
    1.5116    3.2909    0.3763 C   0  0  0  0  0  0  0  0  0  0  0  0
    1.9028    1.9010    0.9079 C   0  0  0  0  0  0  0  0  0  0  0  0
    0.8744    0.9847    0.3278 C   0  0  0  0  0  0  0  0  0  0  0  0
    0.5519   -0.2151    1.1706 C   0  0  0  0  0  0  0  0  0  0  0  0
   -0.6704   -1.0083    0.6054 C   0  0  0  0  0  0  0  0  0  0  0  0
   -0.8671   -2.1751    0.8505 O   0  0  0  0  0  0  0  0  0  0  0  0
   -1.6001   -0.2210   -0.3658 C   0  0  0  0  0  0  0  0  0  0  0  0
   -2.9779   -0.7329   -0.1198 C   0  0  0  0  0  0  0  0  0  0  0  0
   -3.4241   -0.8131    1.3295 C   0  0  0  0  0  0  0  0  0  0  0  0
   -4.8951   -0.9980    1.5141 C   0  0  0  0  0  0  0  0  0  0  0  0
   -5.5178   -1.3659    0.2078 C   0  0  0  0  0  0  0  0  0  0  0  0
   -6.0715   -2.4501    0.0880 O   0  0  0  0  0  0  0  0  0  0  0  0
   -5.1545   -1.9305    2.5371 O   0  0  0  0  0  0  0  0  0  0  0  0
   -1.2827   -0.7281   -1.8257 C   0  0  0  0  0  0  0  0  0  0  0  0
    1.3363    0.6011   -1.0728 C   0  0  0  0  0  0  0  0  0  0  0  0
    3.2961    1.5659    0.3874 C   0  0  0  0  0  0  0  0  0  0  0  0
    4.3168    2.5198    1.0113 C   0  0  0  0  0  0  0  0  0  0  0  0
    3.6429    0.1469    0.7578 C   0  0  0  0  0  0  0  0  0  0  0  0
    3.1138   -0.3765    1.7160 O   0  0  0  0  0  0  0  0  0  0  0  0
    4.6173   -0.5993   -0.0377 C   0  0  0  0  0  0  0  0  0  0  0  0
    4.9244   -1.8560    0.2903 C   0  0  0  0  0  0  0  0  0  0  0  0
    5.9283   -2.6249   -0.5294 C   0  0  0  0  0  0  0  0  0  0  0  0
    7.1021   -3.0400    0.3600 C   0  0  0  0  0  0  0  0  0  0  0  0
    5.2626   -3.8736   -1.1111 C   0  0  0  0  0  0  0  0  0  0  0  0
    6.4059   -1.7999   -1.5940 O   0  0  0  0  0  0  0  0  0  0  0  0
    3.3199    1.7064   -1.0345 O   0  0  0  0  0  0  0  0  0  0  0  0
    2.5534    3.7336   -0.5603 O   0  0  0  0  0  0  0  0  0  0  0  0
   -0.7059    2.3723    1.8103 C   0  0  0  0  0  0  0  0  0  0  0  0
   -5.6449   -1.1971   -2.2491 C   0  0  0  0  0  0  0  0  0  0  0  0
   -6.2545    1.3975   -1.6384 H   0  0  0  0  0  0  0  0  0  0  0  0
   -7.4314    0.2542   -0.9484 H   0  0  0  0  0  0  0  0  0  0  0  0
   -6.3029    1.1227    0.1196 H   0  0  0  0  0  0  0  0  0  0  0  0
   -4.4310    1.7509   -2.0844 H   0  0  0  0  0  0  0  0  0  0  0  0
   -1.7488    1.8421   -2.2825 H   0  0  0  0  0  0  0  0  0  0  0  0
   -2.4929    2.9485   -1.1163 H   0  0  0  0  0  0  0  0  0  0  0  0
   -2.3570    1.3305    0.6763 H   0  0  0  0  0  0  0  0  0  0  0  0
    0.3562    2.9621   -1.4184 H   0  0  0  0  0  0  0  0  0  0  0  0
   -0.4984    3.9343   -0.1875 H   0  0  0  0  0  0  0  0  0  0  0  0
    1.4326    4.0688    1.2185 H   0  0  0  0  0  0  0  0  0  0  0  0
    1.8941    1.8824    2.0377 H   0  0  0  0  0  0  0  0  0  0  0  0
    1.4029   -0.9466    1.1006 H   0  0  0  0  0  0  0  0  0  0  0  0
    0.3684    0.0136    2.1993 H   0  0  0  0  0  0  0  0  0  0  0  0
   -3.0741   -1.7268   -0.4972 H   0  0  0  0  0  0  0  0  0  0  0  0
   -2.9000   -1.5704    1.8591 H   0  0  0  0  0  0  0  0  0  0  0  0
   -3.1518    0.1396    1.8741 H   0  0  0  0  0  0  0  0  0  0  0  0
   -5.3754    0.0142    1.8818 H   0  0  0  0  0  0  0  0  0  0  0  0
   -6.0952   -2.0870    2.6972 H   0  0  0  0  0  0  0  0  0  0  0  0
   -2.2160   -0.9363   -2.3489 H   0  0  0  0  0  0  0  0  0  0  0  0
   -0.7277    0.0400   -2.3644 H   0  0  0  0  0  0  0  0  0  0  0  0
   -0.6852   -1.6381   -1.7723 H   0  0  0  0  0  0  0  0  0  0  0  0
    2.0904   -0.1831   -1.0047 H   0  0  0  0  0  0  0  0  0  0  0  0
    0.4855    0.2380   -1.6493 H   0  0  0  0  0  0  0  0  0  0  0  0
    1.7636    1.4741   -1.5663 H   0  0  0  0  0  0  0  0  0  0  0  0
    4.2337    2.4811    2.0974 H   0  0  0  0  0  0  0  0  0  0  0  0
    5.3220    2.2222    0.7129 H   0  0  0  0  0  0  0  0  0  0  0  0
    4.1217    3.5358    0.6679 H   0  0  0  0  0  0  0  0  0  0  0  0
    5.0883   -0.1334   -0.8907 H   0  0  0  0  0  0  0  0  0  0  0  0
    4.4534   -2.3219    1.1433 H   0  0  0  0  0  0  0  0  0  0  0  0
    6.7378   -3.6693    1.1720 H   0  0  0  0  0  0  0  0  0  0  0  0
    7.8282   -3.5961   -0.2329 H   0  0  0  0  0  0  0  0  0  0  0  0
    7.5763   -2.1504    0.7744 H   0  0  0  0  0  0  0  0  0  0  0  0
    4.4264   -3.5778   -1.7447 H   0  0  0  0  0  0  0  0  0  0  0  0
    5.9888   -4.4297   -1.7040 H   0  0  0  0  0  0  0  0  0  0  0  0
    4.8983   -4.5028   -0.2990 H   0  0  0  0  0  0  0  0  0  0  0  0
    6.8407   -0.9884   -1.2981 H   0  0  0  0  0  0  0  0  0  0  0  0
    3.1938    0.8761   -1.5140 H   0  0  0  0  0  0  0  0  0  0  0  0
    2.3692    4.5853   -0.9796 H   0  0  0  0  0  0  0  0  0  0  0  0
   -1.0329    1.5444    2.4394 H   0  0  0  0  0  0  0  0  0  0  0  0
    0.1868    2.8255    2.2412 H   0  0  0  0  0  0  0  0  0  0  0  0
   -1.4988    3.1178    1.7497 H   0  0  0  0  0  0  0  0  0  0  0  0
   -5.5435   -0.5102   -3.0894 H   0  0  0  0  0  0  0  0  0  0  0  0
   -4.9190   -2.0040   -2.3498 H   0  0  0  0  0  0  0  0  0  0  0  0
   -6.6521   -1.6135   -2.2397 H   0  0  0  0  0  0  0  0  0  0  0  0
  1  2  1  0  0  0  0
  2  3  1  0  0  0  0
  3  4  2  0  0  0  0
  4  5  1  0  0  0  0
  5  6  1  0  0  0  0
  6  7  1  0  0  0  0
  7  8  1  0  0  0  0
  8  9  1  0  0  0  0
  9 10  1  0  0  0  0
 10 11  1  0  0  0  0
  7 11  1  0  0  0  0
 11 12  1  0  0  0  0
 12 13  1  0  0  0  0
 13 14  2  0  0  0  0
 13 15  1  0  0  0  0
  6 15  1  0  0  0  0
 15 16  1  0  0  0  0
  3 16  1  0  0  0  0
 16 17  1  0  0  0  0
 17 18  1  0  0  0  0
 18 19  1  0  0  0  0
  2 19  1  0  0  0  0
 19 20  2  0  0  0  0
 18 21  1  0  0  0  0
 15 22  1  0  0  0  0
 11 23  1  0  0  0  0
 10 24  1  0  0  0  0
 24 25  1  0  0  0  0
 24 26  1  0  0  0  0
 26 27  2  0  0  0  0
 26 28  1  0  0  0  0
 28 29  2  0  0  0  0
 29 30  1  0  0  0  0
 30 31  1  0  0  0  0
 30 32  1  0  0  0  0
 30 33  1  0  0  0  0
 24 34  1  0  0  0  0
  9 35  1  0  0  0  0
  7 36  1  0  0  0  0
  2 37  1  0  0  0  0
  1 38  1  0  0  0  0
  1 39  1  0  0  0  0
  1 40  1  0  0  0  0
  4 41  1  0  0  0  0
  5 42  1  0  0  0  0
  5 43  1  0  0  0  0
  6 44  1  0  0  0  0
  8 45  1  0  0  0  0
  8 46  1  0  0  0  0
  9 47  1  0  0  0  0
 10 48  1  0  0  0  0
 12 49  1  0  0  0  0
 12 50  1  0  0  0  0
 16 51  1  0  0  0  0
 17 52  1  0  0  0  0
 17 53  1  0  0  0  0
 18 54  1  0  0  0  0
 21 55  1  0  0  0  0
 22 56  1  0  0  0  0
 22 57  1  0  0  0  0
 22 58  1  0  0  0  0
 23 59  1  0  0  0  0
 23 60  1  0  0  0  0
 23 61  1  0  0  0  0
 25 62  1  0  0  0  0
 25 63  1  0  0  0  0
 25 64  1  0  0  0  0
 28 65  1  0  0  0  0
 29 66  1  0  0  0  0
 31 67  1  0  0  0  0
 31 68  1  0  0  0  0
 31 69  1  0  0  0  0
 32 70  1  0  0  0  0
 32 71  1  0  0  0  0
 32 72  1  0  0  0  0
 33 73  1  0  0  0  0
 34 74  1  0  0  0  0
 35 75  1  0  0  0  0
 36 76  1  0  0  0  0
 36 77  1  0  0  0  0
 36 78  1  0  0  0  0
 37 79  1  0  0  0  0
 37 80  1  0  0  0  0
 37 81  1  0  0  0  0
M  END
$$$$
