C12H12N2O
APtclcactv06281817083D 0   0.00000     0.00000
 
 27 29  0  0  0  0  0  0  0  0999 V2000
   -3.1860    2.1751   -0.0725 C   0  0  0  0  0  0  0  0  0  0  0  0
   -2.6204    0.7789   -0.0323 C   0  0  0  0  0  0  0  0  0  0  0  0
   -1.2473    0.5623   -0.0419 C   0  0  0  0  0  0  0  0  0  0  0  0
   -0.7156   -0.7351   -0.1073 C   0  0  0  0  0  0  0  0  0  0  0  0
    0.6593   -0.6261   -0.0645 C   0  0  0  0  0  0  0  0  0  0  0  0
    1.6809   -1.6023   -0.0817 C   0  0  0  0  0  0  0  0  0  0  0  0
    2.9682   -1.1592   -0.0295 C   0  0  0  0  0  0  0  0  0  0  0  0
    3.2843    0.2089    0.0390 C   0  0  0  0  0  0  0  0  0  0  0  0
    4.5653    0.5769    0.0874 O   0  0  0  0  0  0  0  0  0  0  0  0
    2.2890    1.1981    0.0574 C   0  0  0  0  0  0  0  0  0  0  0  0
    0.9729    0.7673    0.0059 C   0  0  0  0  0  0  0  0  0  0  0  0
   -0.2018    1.4676    0.0093 N   0  0  0  0  0  0  0  0  0  0  0  0
   -1.6011   -1.9502   -0.2269 C   0  0  0  0  0  0  0  0  0  0  0  0
   -2.9606   -1.6234    0.3959 C   0  0  0  0  0  0  0  0  0  0  0  0
   -3.4306   -0.2969    0.0198 N   0  0  0  0  0  0  0  0  0  0  0  0
   -3.3351    2.4770   -1.1092 H   0  0  0  0  0  0  0  0  0  0  0  0
   -4.1409    2.1956    0.4528 H   0  0  0  0  0  0  0  0  0  0  0  0
   -2.4912    2.8627    0.4098 H   0  0  0  0  0  0  0  0  0  0  0  0
    1.4506   -2.6562   -0.1337 H   0  0  0  0  0  0  0  0  0  0  0  0
    3.7710   -1.8816   -0.0407 H   0  0  0  0  0  0  0  0  0  0  0  0
    2.5376    2.2478    0.1101 H   0  0  0  0  0  0  0  0  0  0  0  0
   -0.2875    2.4333    0.0421 H   0  0  0  0  0  0  0  0  0  0  0  0
   -1.7320   -2.2059   -1.2784 H   0  0  0  0  0  0  0  0  0  0  0  0
   -1.1473   -2.7877    0.3029 H   0  0  0  0  0  0  0  0  0  0  0  0
   -3.6884   -2.3656    0.0681 H   0  0  0  0  0  0  0  0  0  0  0  0
   -2.8735   -1.6698    1.4815 H   0  0  0  0  0  0  0  0  0  0  0  0
   -4.3662   -0.1835   -0.2098 H   0  0  0  0  0  0  0  0  0  0  0  0
  1  2  1  0  0  0  0
  2  3  2  0  0  0  0
  3  4  1  0  0  0  0
  4  5  2  0  0  0  0
  5  6  1  0  0  0  0
  6  7  2  0  0  0  0
  7  8  1  0  0  0  0
  8  9  2  0  0  0  0
  8 10  1  0  0  0  0
 10 11  2  0  0  0  0
  5 11  1  0  0  0  0
 11 12  1  0  0  0  0
  3 12  1  0  0  0  0
  4 13  1  0  0  0  0
 13 14  1  0  0  0  0
 14 15  1  0  0  0  0
  2 15  1  0  0  0  0
  1 16  1  0  0  0  0
  1 17  1  0  0  0  0
  1 18  1  0  0  0  0
  6 19  1  0  0  0  0
  7 20  1  0  0  0  0
 10 21  1  0  0  0  0
 12 22  1  0  0  0  0
 13 23  1  0  0  0  0
 13 24  1  0  0  0  0
 14 25  1  0  0  0  0
 14 26  1  0  0  0  0
 15 27  1  0  0  0  0
M  END
$$$$
