C20H36O5
APtclcactv06281817083D 0   0.00000     0.00000
 
 61 61  0  0  0  0  0  0  0  0999 V2000
    8.4760   -4.0448   -0.2073 C   0  0  0  0  0  0  0  0  0  0  0  0
    6.9477   -3.9759   -0.1881 C   0  0  0  0  0  0  0  0  0  0  0  0
    6.5055   -2.5402    0.1018 C   0  0  0  0  0  0  0  0  0  0  0  0
    4.9771   -2.4714    0.1211 C   0  0  0  0  0  0  0  0  0  0  0  0
    4.5349   -1.0357    0.4110 C   0  0  0  0  0  0  0  0  0  0  0  0
    3.0065   -0.9669    0.4302 C   0  0  0  0  0  0  0  0  0  0  0  0
    2.5711    0.4176    0.8361 C   0  0  0  0  0  0  0  0  0  0  0  0
    1.7594    1.1006    0.0675 C   0  0  0  0  0  0  0  0  0  0  0  0
    1.3240    2.4851    0.4733 C   0  0  0  0  0  0  0  0  0  0  0  0
    1.7264    3.5050   -0.6119 C   0  0  0  0  0  0  0  0  0  0  0  0
    0.5484    4.5102   -0.6439 C   0  0  0  0  0  0  0  0  0  0  0  0
   -0.6856    3.5974   -0.4366 C   0  0  0  0  0  0  0  0  0  0  0  0
   -0.2096    2.5438    0.5848 C   0  0  0  0  0  0  0  0  0  0  0  0
   -0.8122    1.1783    0.2487 C   0  0  0  0  0  0  0  0  0  0  0  0
   -2.3280    1.2261    0.4507 C   0  0  0  0  0  0  0  0  0  0  0  0
   -2.9307   -0.1395    0.1145 C   0  0  0  0  0  0  0  0  0  0  0  0
   -4.4465   -0.0917    0.3165 C   0  0  0  0  0  0  0  0  0  0  0  0
   -5.0491   -1.4572   -0.0196 C   0  0  0  0  0  0  0  0  0  0  0  0
   -6.5650   -1.4094    0.1824 C   0  0  0  0  0  0  0  0  0  0  0  0
   -7.1585   -2.7545   -0.1487 C   0  0  0  0  0  0  0  0  0  0  0  0
   -6.4426   -3.6586   -0.5092 O   0  0  0  0  0  0  0  0  0  0  0  0
   -8.4826   -2.9481   -0.0431 O   0  0  0  0  0  0  0  0  0  0  0  0
   -1.7800    4.3485    0.0928 O   0  0  0  0  0  0  0  0  0  0  0  0
    2.9397    4.1676   -0.2502 O   0  0  0  0  0  0  0  0  0  0  0  0
    2.4999   -1.2627   -0.8728 O   0  0  0  0  0  0  0  0  0  0  0  0
    8.8660   -3.7331    0.7616 H   0  0  0  0  0  0  0  0  0  0  0  0
    8.7911   -5.0676   -0.4138 H   0  0  0  0  0  0  0  0  0  0  0  0
    8.8598   -3.3826   -0.9835 H   0  0  0  0  0  0  0  0  0  0  0  0
    6.5577   -4.2876   -1.1570 H   0  0  0  0  0  0  0  0  0  0  0  0
    6.5640   -4.6380    0.5881 H   0  0  0  0  0  0  0  0  0  0  0  0
    6.8954   -2.2285    1.0708 H   0  0  0  0  0  0  0  0  0  0  0  0
    6.8892   -1.8781   -0.6744 H   0  0  0  0  0  0  0  0  0  0  0  0
    4.5871   -2.7831   -0.8479 H   0  0  0  0  0  0  0  0  0  0  0  0
    4.5934   -3.1335    0.8973 H   0  0  0  0  0  0  0  0  0  0  0  0
    4.9249   -0.7240    1.3799 H   0  0  0  0  0  0  0  0  0  0  0  0
    4.9186   -0.3736   -0.3652 H   0  0  0  0  0  0  0  0  0  0  0  0
    2.6191   -1.6935    1.1443 H   0  0  0  0  0  0  0  0  0  0  0  0
    2.9283    0.8467    1.7606 H   0  0  0  0  0  0  0  0  0  0  0  0
    1.4023    0.6715   -0.8570 H   0  0  0  0  0  0  0  0  0  0  0  0
    1.7790    2.7549    1.4264 H   0  0  0  0  0  0  0  0  0  0  0  0
    1.8333    3.0118   -1.5780 H   0  0  0  0  0  0  0  0  0  0  0  0
    0.6351    5.2328    0.1676 H   0  0  0  0  0  0  0  0  0  0  0  0
    0.4977    5.0152   -1.6085 H   0  0  0  0  0  0  0  0  0  0  0  0
   -0.9682    3.1191   -1.3744 H   0  0  0  0  0  0  0  0  0  0  0  0
   -0.4995    2.8427    1.5921 H   0  0  0  0  0  0  0  0  0  0  0  0
   -0.5916    0.9293   -0.7893 H   0  0  0  0  0  0  0  0  0  0  0  0
   -0.3821    0.4203    0.9034 H   0  0  0  0  0  0  0  0  0  0  0  0
   -2.5486    1.4750    1.4887 H   0  0  0  0  0  0  0  0  0  0  0  0
   -2.7581    1.9841   -0.2040 H   0  0  0  0  0  0  0  0  0  0  0  0
   -2.7101   -0.3884   -0.9235 H   0  0  0  0  0  0  0  0  0  0  0  0
   -2.5006   -0.8975    0.7692 H   0  0  0  0  0  0  0  0  0  0  0  0
   -4.6671    0.1572    1.3545 H   0  0  0  0  0  0  0  0  0  0  0  0
   -4.8766    0.6663   -0.3382 H   0  0  0  0  0  0  0  0  0  0  0  0
   -4.8286   -1.7062   -1.0576 H   0  0  0  0  0  0  0  0  0  0  0  0
   -4.6191   -2.2152    0.6351 H   0  0  0  0  0  0  0  0  0  0  0  0
   -6.7856   -1.1605    1.2204 H   0  0  0  0  0  0  0  0  0  0  0  0
   -6.9950   -0.6514   -0.4723 H   0  0  0  0  0  0  0  0  0  0  0  0
   -8.8168   -3.8277   -0.2662 H   0  0  0  0  0  0  0  0  0  0  0  0
   -2.0821    5.0633   -0.4841 H   0  0  0  0  0  0  0  0  0  0  0  0
    3.2394    4.8204   -0.8976 H   0  0  0  0  0  0  0  0  0  0  0  0
    2.8043   -0.6548   -1.5605 H   0  0  0  0  0  0  0  0  0  0  0  0
  1  2  1  0  0  0  0
  2  3  1  0  0  0  0
  3  4  1  0  0  0  0
  4  5  1  0  0  0  0
  5  6  1  0  0  0  0
  6  7  1  0  0  0  0
  7  8  2  0  0  0  0
  8  9  1  0  0  0  0
  9 10  1  0  0  0  0
 10 11  1  0  0  0  0
 11 12  1  0  0  0  0
 12 13  1  0  0  0  0
  9 13  1  0  0  0  0
 13 14  1  0  0  0  0
 14 15  1  0  0  0  0
 15 16  1  0  0  0  0
 16 17  1  0  0  0  0
 17 18  1  0  0  0  0
 18 19  1  0  0  0  0
 19 20  1  0  0  0  0
 20 21  2  0  0  0  0
 20 22  1  0  0  0  0
 12 23  1  0  0  0  0
 10 24  1  0  0  0  0
  6 25  1  0  0  0  0
  1 26  1  0  0  0  0
  1 27  1  0  0  0  0
  1 28  1  0  0  0  0
  2 29  1  0  0  0  0
  2 30  1  0  0  0  0
  3 31  1  0  0  0  0
  3 32  1  0  0  0  0
  4 33  1  0  0  0  0
  4 34  1  0  0  0  0
  5 35  1  0  0  0  0
  5 36  1  0  0  0  0
  6 37  1  0  0  0  0
  7 38  1  0  0  0  0
  8 39  1  0  0  0  0
  9 40  1  0  0  0  0
 10 41  1  0  0  0  0
 11 42  1  0  0  0  0
 11 43  1  0  0  0  0
 12 44  1  0  0  0  0
 13 45  1  0  0  0  0
 14 46  1  0  0  0  0
 14 47  1  0  0  0  0
 15 48  1  0  0  0  0
 15 49  1  0  0  0  0
 16 50  1  0  0  0  0
 16 51  1  0  0  0  0
 17 52  1  0  0  0  0
 17 53  1  0  0  0  0
 18 54  1  0  0  0  0
 18 55  1  0  0  0  0
 19 56  1  0  0  0  0
 19 57  1  0  0  0  0
 22 58  1  0  0  0  0
 23 59  1  0  0  0  0
 24 60  1  0  0  0  0
 25 61  1  0  0  0  0
M  END
$$$$
