C20H30O4
APtclcactv06281817083D 0   0.00000     0.00000
 
 54 54  0  0  0  0  0  0  0  0999 V2000
    9.8265    1.4128    0.8504 C   0  0  0  0  0  0  0  0  0  0  0  0
    8.4158    1.8831    0.4901 C   0  0  0  0  0  0  0  0  0  0  0  0
    7.5013    0.6684    0.3195 C   0  0  0  0  0  0  0  0  0  0  0  0
    6.0907    1.1387   -0.0408 C   0  0  0  0  0  0  0  0  0  0  0  0
    5.1762   -0.0760   -0.2115 C   0  0  0  0  0  0  0  0  0  0  0  0
    3.7655    0.3943   -0.5718 C   0  0  0  0  0  0  0  0  0  0  0  0
    2.8955   -0.8020   -0.8600 C   0  0  0  0  0  0  0  0  0  0  0  0
    1.7716   -0.9669   -0.2074 C   0  0  0  0  0  0  0  0  0  0  0  0
    0.9016   -2.1632   -0.4956 C   0  0  0  0  0  0  0  0  0  0  0  0
    0.6999   -2.9757    0.7589 C   0  0  0  0  0  0  0  0  0  0  0  0
   -0.5860   -3.0307    1.0749 C   0  0  0  0  0  0  0  0  0  0  0  0
   -1.4199   -2.2983    0.1284 C   0  0  0  0  0  0  0  0  0  0  0  0
   -2.6269   -2.1833    0.1753 O   0  0  0  0  0  0  0  0  0  0  0  0
   -0.5049   -1.7077   -0.9229 C   0  0  0  0  0  0  0  0  0  0  0  0
   -0.5981   -0.1806   -0.9177 C   0  0  0  0  0  0  0  0  0  0  0  0
   -1.9738    0.2403   -1.3665 C   0  0  0  0  0  0  0  0  0  0  0  0
   -2.6977    1.0269   -0.6093 C   0  0  0  0  0  0  0  0  0  0  0  0
   -4.0734    1.4477   -1.0581 C   0  0  0  0  0  0  0  0  0  0  0  0
   -5.0951    1.0859    0.0218 C   0  0  0  0  0  0  0  0  0  0  0  0
   -6.4918    1.5131   -0.4338 C   0  0  0  0  0  0  0  0  0  0  0  0
   -7.4980    1.1568    0.6299 C   0  0  0  0  0  0  0  0  0  0  0  0
   -7.1353    0.6166    1.6480 O   0  0  0  0  0  0  0  0  0  0  0  0
   -8.7973    1.4396    0.4464 O   0  0  0  0  0  0  0  0  0  0  0  0
    3.2152    1.1311    0.5219 O   0  0  0  0  0  0  0  0  0  0  0  0
   10.4780    2.2782    0.9720 H   0  0  0  0  0  0  0  0  0  0  0  0
    9.7944    0.8484    1.7824 H   0  0  0  0  0  0  0  0  0  0  0  0
   10.2121    0.7768    0.0536 H   0  0  0  0  0  0  0  0  0  0  0  0
    8.0303    2.5191    1.2870 H   0  0  0  0  0  0  0  0  0  0  0  0
    8.4479    2.4475   -0.4418 H   0  0  0  0  0  0  0  0  0  0  0  0
    7.8869    0.0324   -0.4774 H   0  0  0  0  0  0  0  0  0  0  0  0
    7.4692    0.1040    1.2514 H   0  0  0  0  0  0  0  0  0  0  0  0
    5.7051    1.7747    0.7560 H   0  0  0  0  0  0  0  0  0  0  0  0
    6.1228    1.7031   -0.9728 H   0  0  0  0  0  0  0  0  0  0  0  0
    5.5617   -0.7120   -1.0083 H   0  0  0  0  0  0  0  0  0  0  0  0
    5.1441   -0.6404    0.7204 H   0  0  0  0  0  0  0  0  0  0  0  0
    3.8096    1.0325   -1.4543 H   0  0  0  0  0  0  0  0  0  0  0  0
    3.1985   -1.5233   -1.6045 H   0  0  0  0  0  0  0  0  0  0  0  0
    1.4686   -0.2456    0.5371 H   0  0  0  0  0  0  0  0  0  0  0  0
    1.3529   -2.7780   -1.2744 H   0  0  0  0  0  0  0  0  0  0  0  0
    1.4925   -3.4473    1.3208 H   0  0  0  0  0  0  0  0  0  0  0  0
   -0.9723   -3.5574    1.9351 H   0  0  0  0  0  0  0  0  0  0  0  0
   -0.7510   -2.1027   -1.9086 H   0  0  0  0  0  0  0  0  0  0  0  0
   -0.4153    0.1912    0.0905 H   0  0  0  0  0  0  0  0  0  0  0  0
    0.1477    0.2313   -1.5976 H   0  0  0  0  0  0  0  0  0  0  0  0
   -2.3629   -0.1067   -2.3124 H   0  0  0  0  0  0  0  0  0  0  0  0
   -2.3086    1.3738    0.3365 H   0  0  0  0  0  0  0  0  0  0  0  0
   -4.0874    2.5247   -1.2254 H   0  0  0  0  0  0  0  0  0  0  0  0
   -4.3266    0.9328   -1.9849 H   0  0  0  0  0  0  0  0  0  0  0  0
   -5.0811    0.0089    0.1891 H   0  0  0  0  0  0  0  0  0  0  0  0
   -4.8419    1.6008    0.9486 H   0  0  0  0  0  0  0  0  0  0  0  0
   -6.5058    2.5901   -0.6010 H   0  0  0  0  0  0  0  0  0  0  0  0
   -6.7450    0.9982   -1.3606 H   0  0  0  0  0  0  0  0  0  0  0  0
   -9.4051    1.1920    1.1566 H   0  0  0  0  0  0  0  0  0  0  0  0
    3.1461    0.6242    1.3425 H   0  0  0  0  0  0  0  0  0  0  0  0
  1  2  1  0  0  0  0
  2  3  1  0  0  0  0
  3  4  1  0  0  0  0
  4  5  1  0  0  0  0
  5  6  1  0  0  0  0
  6  7  1  0  0  0  0
  7  8  2  0  0  0  0
  8  9  1  0  0  0  0
  9 10  1  0  0  0  0
 10 11  2  0  0  0  0
 11 12  1  0  0  0  0
 12 13  2  0  0  0  0
 12 14  1  0  0  0  0
  9 14  1  0  0  0  0
 14 15  1  0  0  0  0
 15 16  1  0  0  0  0
 16 17  2  0  0  0  0
 17 18  1  0  0  0  0
 18 19  1  0  0  0  0
 19 20  1  0  0  0  0
 20 21  1  0  0  0  0
 21 22  2  0  0  0  0
 21 23  1  0  0  0  0
  6 24  1  0  0  0  0
  1 25  1  0  0  0  0
  1 26  1  0  0  0  0
  1 27  1  0  0  0  0
  2 28  1  0  0  0  0
  2 29  1  0  0  0  0
  3 30  1  0  0  0  0
  3 31  1  0  0  0  0
  4 32  1  0  0  0  0
  4 33  1  0  0  0  0
  5 34  1  0  0  0  0
  5 35  1  0  0  0  0
  6 36  1  0  0  0  0
  7 37  1  0  0  0  0
  8 38  1  0  0  0  0
  9 39  1  0  0  0  0
 10 40  1  0  0  0  0
 11 41  1  0  0  0  0
 14 42  1  0  0  0  0
 15 43  1  0  0  0  0
 15 44  1  0  0  0  0
 16 45  1  0  0  0  0
 17 46  1  0  0  0  0
 18 47  1  0  0  0  0
 18 48  1  0  0  0  0
 19 49  1  0  0  0  0
 19 50  1  0  0  0  0
 20 51  1  0  0  0  0
 20 52  1  0  0  0  0
 23 53  1  0  0  0  0
 24 54  1  0  0  0  0
M  END
$$$$
