C20H32O3
APtclcactv06281817083D 0   0.00000     0.00000
 
 55 54  0  0  0  0  0  0  0  0999 V2000
   11.0156    1.2891    1.7532 C   0  0  0  0  0  0  0  0  0  0  0  0
    9.9648    1.6076    0.6878 C   0  0  0  0  0  0  0  0  0  0  0  0
    8.8217    0.5947    0.7801 C   0  0  0  0  0  0  0  0  0  0  0  0
    7.7708    0.9132   -0.2853 C   0  0  0  0  0  0  0  0  0  0  0  0
    6.6278   -0.0997   -0.1930 C   0  0  0  0  0  0  0  0  0  0  0  0
    5.5769    0.2188   -1.2584 C   0  0  0  0  0  0  0  0  0  0  0  0
    4.5129   -0.8484   -1.2493 C   0  0  0  0  0  0  0  0  0  0  0  0
    3.2360   -0.5122   -1.1010 C   0  0  0  0  0  0  0  0  0  0  0  0
    2.1973   -1.5540   -1.0920 C   0  0  0  0  0  0  0  0  0  0  0  0
    0.9204   -1.2178   -0.9437 C   0  0  0  0  0  0  0  0  0  0  0  0
   -0.1436   -2.2850   -0.9346 C   0  0  0  0  0  0  0  0  0  0  0  0
   -0.9621   -2.1675    0.3253 C   0  0  0  0  0  0  0  0  0  0  0  0
   -2.2642   -2.0445    0.2514 C   0  0  0  0  0  0  0  0  0  0  0  0
   -3.0827   -1.9270    1.5113 C   0  0  0  0  0  0  0  0  0  0  0  0
   -3.9240   -0.6783    1.4491 C   0  0  0  0  0  0  0  0  0  0  0  0
   -5.2221   -0.7544    1.6079 C   0  0  0  0  0  0  0  0  0  0  0  0
   -6.0634    0.4943    1.5458 C   0  0  0  0  0  0  0  0  0  0  0  0
   -7.1619    0.3175    0.4956 C   0  0  0  0  0  0  0  0  0  0  0  0
   -8.0160    1.5853    0.4325 C   0  0  0  0  0  0  0  0  0  0  0  0
   -9.0980    1.4111   -0.6020 C   0  0  0  0  0  0  0  0  0  0  0  0
   -9.1778    0.3788   -1.2248 O   0  0  0  0  0  0  0  0  0  0  0  0
   -9.9731    2.4027   -0.8314 O   0  0  0  0  0  0  0  0  0  0  0  0
    4.9819    1.4871   -0.9765 O   0  0  0  0  0  0  0  0  0  0  0  0
   11.8300    2.0107    1.6874 H   0  0  0  0  0  0  0  0  0  0  0  0
   10.5595    1.3452    2.7416 H   0  0  0  0  0  0  0  0  0  0  0  0
   11.4061    0.2847    1.5897 H   0  0  0  0  0  0  0  0  0  0  0  0
    9.5743    2.6120    0.8513 H   0  0  0  0  0  0  0  0  0  0  0  0
   10.4209    1.5515   -0.3006 H   0  0  0  0  0  0  0  0  0  0  0  0
    9.2121   -0.4097    0.6166 H   0  0  0  0  0  0  0  0  0  0  0  0
    8.3656    0.6508    1.7685 H   0  0  0  0  0  0  0  0  0  0  0  0
    7.3804    1.9176   -0.1218 H   0  0  0  0  0  0  0  0  0  0  0  0
    8.2269    0.8571   -1.2737 H   0  0  0  0  0  0  0  0  0  0  0  0
    7.0182   -1.1041   -0.3565 H   0  0  0  0  0  0  0  0  0  0  0  0
    6.1716   -0.0436    0.7954 H   0  0  0  0  0  0  0  0  0  0  0  0
    6.0517    0.2501   -2.2391 H   0  0  0  0  0  0  0  0  0  0  0  0
    4.7882   -1.8865   -1.3632 H   0  0  0  0  0  0  0  0  0  0  0  0
    2.9607    0.5259   -0.9870 H   0  0  0  0  0  0  0  0  0  0  0  0
    2.4727   -2.5921   -1.2060 H   0  0  0  0  0  0  0  0  0  0  0  0
    0.6451   -0.1797   -0.8297 H   0  0  0  0  0  0  0  0  0  0  0  0
   -0.7917   -2.1593   -1.8019 H   0  0  0  0  0  0  0  0  0  0  0  0
    0.3269   -3.2675   -0.9718 H   0  0  0  0  0  0  0  0  0  0  0  0
   -0.4751   -2.1846    1.2892 H   0  0  0  0  0  0  0  0  0  0  0  0
   -2.7511   -2.0274   -0.7124 H   0  0  0  0  0  0  0  0  0  0  0  0
   -3.7314   -2.7978    1.6056 H   0  0  0  0  0  0  0  0  0  0  0  0
   -2.4175   -1.8744    2.3732 H   0  0  0  0  0  0  0  0  0  0  0  0
   -3.4567    0.2795    1.2737 H   0  0  0  0  0  0  0  0  0  0  0  0
   -5.6894   -1.7122    1.7833 H   0  0  0  0  0  0  0  0  0  0  0  0
   -6.5177    0.6752    2.5199 H   0  0  0  0  0  0  0  0  0  0  0  0
   -5.4349    1.3427    1.2748 H   0  0  0  0  0  0  0  0  0  0  0  0
   -6.7075    0.1366   -0.4786 H   0  0  0  0  0  0  0  0  0  0  0  0
   -7.7903   -0.5309    0.7665 H   0  0  0  0  0  0  0  0  0  0  0  0
   -8.4703    1.7662    1.4066 H   0  0  0  0  0  0  0  0  0  0  0  0
   -7.3875    2.4337    0.1615 H   0  0  0  0  0  0  0  0  0  0  0  0
  -10.6493    2.2446   -1.5043 H   0  0  0  0  0  0  0  0  0  0  0  0
    4.5401    1.5320   -0.1176 H   0  0  0  0  0  0  0  0  0  0  0  0
  1  2  1  0  0  0  0
  2  3  1  0  0  0  0
  3  4  1  0  0  0  0
  4  5  1  0  0  0  0
  5  6  1  0  0  0  0
  6  7  1  0  0  0  0
  7  8  2  0  0  0  0
  8  9  1  0  0  0  0
  9 10  2  0  0  0  0
 10 11  1  0  0  0  0
 11 12  1  0  0  0  0
 12 13  2  0  0  0  0
 13 14  1  0  0  0  0
 14 15  1  0  0  0  0
 15 16  2  0  0  0  0
 16 17  1  0  0  0  0
 17 18  1  0  0  0  0
 18 19  1  0  0  0  0
 19 20  1  0  0  0  0
 20 21  2  0  0  0  0
 20 22  1  0  0  0  0
  6 23  1  0  0  0  0
  1 24  1  0  0  0  0
  1 25  1  0  0  0  0
  1 26  1  0  0  0  0
  2 27  1  0  0  0  0
  2 28  1  0  0  0  0
  3 29  1  0  0  0  0
  3 30  1  0  0  0  0
  4 31  1  0  0  0  0
  4 32  1  0  0  0  0
  5 33  1  0  0  0  0
  5 34  1  0  0  0  0
  6 35  1  0  0  0  0
  7 36  1  0  0  0  0
  8 37  1  0  0  0  0
  9 38  1  0  0  0  0
 10 39  1  0  0  0  0
 11 40  1  0  0  0  0
 11 41  1  0  0  0  0
 12 42  1  0  0  0  0
 13 43  1  0  0  0  0
 14 44  1  0  0  0  0
 14 45  1  0  0  0  0
 15 46  1  0  0  0  0
 16 47  1  0  0  0  0
 17 48  1  0  0  0  0
 17 49  1  0  0  0  0
 18 50  1  0  0  0  0
 18 51  1  0  0  0  0
 19 52  1  0  0  0  0
 19 53  1  0  0  0  0
 22 54  1  0  0  0  0
 23 55  1  0  0  0  0
M  END
$$$$
