C16H10N2O2
APtclcactv06281817083D 0   0.00000     0.00000
 
 30 33  0  0  0  0  0  0  0  0999 V2000
   -5.3371    0.4751    0.0002 C   0  0  0  0  0  0  0  0  0  0  0  0
   -5.2345   -0.9070   -0.0002 C   0  0  0  0  0  0  0  0  0  0  0  0
   -3.9988   -1.5210   -0.0006 C   0  0  0  0  0  0  0  0  0  0  0  0
   -2.8370   -0.7547   -0.0001 C   0  0  0  0  0  0  0  0  0  0  0  0
   -2.9436    0.6452    0.0003 C   0  0  0  0  0  0  0  0  0  0  0  0
   -4.1994    1.2537    0.0002 C   0  0  0  0  0  0  0  0  0  0  0  0
   -1.5707    1.1832    0.0008 C   0  0  0  0  0  0  0  0  0  0  0  0
   -1.2356    2.3531    0.0016 O   0  0  0  0  0  0  0  0  0  0  0  0
   -0.6884   -0.0036    0.0007 C   0  0  0  0  0  0  0  0  0  0  0  0
    0.6884    0.0036    0.0006 C   0  0  0  0  0  0  0  0  0  0  0  0
    1.5707   -1.1832    0.0004 C   0  0  0  0  0  0  0  0  0  0  0  0
    1.2356   -2.3531   -0.0001 O   0  0  0  0  0  0  0  0  0  0  0  0
    2.9436   -0.6452    0.0004 C   0  0  0  0  0  0  0  0  0  0  0  0
    4.1994   -1.2537    0.0002 C   0  0  0  0  0  0  0  0  0  0  0  0
    5.3371   -0.4750    0.0002 C   0  0  0  0  0  0  0  0  0  0  0  0
    5.2345    0.9071    0.0004 C   0  0  0  0  0  0  0  0  0  0  0  0
    3.9987    1.5210    0.0010 C   0  0  0  0  0  0  0  0  0  0  0  0
    2.8370    0.7546    0.0005 C   0  0  0  0  0  0  0  0  0  0  0  0
    1.4998    1.1195   -0.0054 N   0  0  0  0  0  0  0  0  0  0  0  0
   -1.4998   -1.1195    0.0001 N   0  0  0  0  0  0  0  0  0  0  0  0
   -6.3104    0.9432   -0.0040 H   0  0  0  0  0  0  0  0  0  0  0  0
   -6.1308   -1.5095    0.0001 H   0  0  0  0  0  0  0  0  0  0  0  0
   -3.9330   -2.5990   -0.0009 H   0  0  0  0  0  0  0  0  0  0  0  0
   -4.2797    2.3307    0.0002 H   0  0  0  0  0  0  0  0  0  0  0  0
    4.2798   -2.3307    0.0005 H   0  0  0  0  0  0  0  0  0  0  0  0
    6.3104   -0.9431    0.0005 H   0  0  0  0  0  0  0  0  0  0  0  0
    6.1308    1.5097    0.0004 H   0  0  0  0  0  0  0  0  0  0  0  0
    3.9328    2.5990    0.0014 H   0  0  0  0  0  0  0  0  0  0  0  0
    1.1784    2.0346   -0.0103 H   0  0  0  0  0  0  0  0  0  0  0  0
   -1.1783   -2.0347    0.0004 H   0  0  0  0  0  0  0  0  0  0  0  0
  1  2  2  0  0  0  0
  2  3  1  0  0  0  0
  3  4  2  0  0  0  0
  4  5  1  0  0  0  0
  5  6  2  0  0  0  0
  1  6  1  0  0  0  0
  5  7  1  0  0  0  0
  7  8  2  0  0  0  0
  7  9  1  0  0  0  0
  9 10  2  0  0  0  0
 10 11  1  0  0  0  0
 11 12  2  0  0  0  0
 11 13  1  0  0  0  0
 13 14  2  0  0  0  0
 14 15  1  0  0  0  0
 15 16  2  0  0  0  0
 16 17  1  0  0  0  0
 17 18  2  0  0  0  0
 13 18  1  0  0  0  0
 18 19  1  0  0  0  0
 10 19  1  0  0  0  0
  9 20  1  0  0  0  0
  4 20  1  0  0  0  0
  1 21  1  0  0  0  0
  2 22  1  0  0  0  0
  3 23  1  0  0  0  0
  6 24  1  0  0  0  0
 14 25  1  0  0  0  0
 15 26  1  0  0  0  0
 16 27  1  0  0  0  0
 17 28  1  0  0  0  0
 19 29  1  0  0  0  0
 20 30  1  0  0  0  0
M  END
$$$$
