C5H8O
APtclcactv06281817083D 0   0.00000     0.00000
 
 14 13  0  0  0  0  0  0  0  0999 V2000
    2.7853    0.2420    0.0000 C   0  0  0  0  0  0  0  0  0  0  0  0
    1.3872   -0.3204   -0.0000 C   0  0  0  0  0  0  0  0  0  0  0  0
    0.3368    0.5028   -0.0000 C   0  0  0  0  0  0  0  0  0  0  0  0
   -1.0201   -0.0431    0.0000 C   0  0  0  0  0  0  0  0  0  0  0  0
   -1.1908   -1.2443    0.0000 O   0  0  0  0  0  0  0  0  0  0  0  0
   -2.2063    0.8865    0.0000 C   0  0  0  0  0  0  0  0  0  0  0  0
    2.9306    0.8543    0.8900 H   0  0  0  0  0  0  0  0  0  0  0  0
    3.5060   -0.5758    0.0000 H   0  0  0  0  0  0  0  0  0  0  0  0
    2.9306    0.8543   -0.8900 H   0  0  0  0  0  0  0  0  0  0  0  0
    1.2353   -1.3897   -0.0000 H   0  0  0  0  0  0  0  0  0  0  0  0
    0.4887    1.5720   -0.0000 H   0  0  0  0  0  0  0  0  0  0  0  0
   -2.1753    1.5150   -0.8900 H   0  0  0  0  0  0  0  0  0  0  0  0
   -3.1261    0.3017    0.0000 H   0  0  0  0  0  0  0  0  0  0  0  0
   -2.1753    1.5150    0.8900 H   0  0  0  0  0  0  0  0  0  0  0  0
  1  2  1  0  0  0  0
  2  3  2  0  0  0  0
  3  4  1  0  0  0  0
  4  5  2  0  0  0  0
  4  6  1  0  0  0  0
  1  7  1  0  0  0  0
  1  8  1  0  0  0  0
  1  9  1  0  0  0  0
  2 10  1  0  0  0  0
  3 11  1  0  0  0  0
  6 12  1  0  0  0  0
  6 13  1  0  0  0  0
  6 14  1  0  0  0  0
M  END
$$$$
