C15H20O4
APtclcactv06281817083D 0   0.00000     0.00000
 
 39 40  0  0  0  0  0  0  0  0999 V2000
    0.4761   -2.1316   -1.2447 C   0  0  0  0  0  0  0  0  0  0  0  0
   -0.3176   -1.9146    0.0104 C   0  0  0  0  0  0  0  0  0  0  0  0
    0.1422   -1.2211    1.0007 C   0  0  0  0  0  0  0  0  0  0  0  0
    1.4253   -0.4614    0.9386 C   0  0  0  0  0  0  0  0  0  0  0  0
    1.2607    0.7593   -0.0022 C   0  0  0  0  0  0  0  0  0  0  0  0
    0.5172    1.8855    0.6941 C   0  0  0  0  0  0  0  0  0  0  0  0
   -0.8894    2.0130    0.1068 C   0  0  0  0  0  0  0  0  0  0  0  0
   -1.8501    1.0213    0.7153 C   0  0  0  0  0  0  0  0  0  0  0  0
   -2.1960    1.1520    1.9731 C   0  0  0  0  0  0  0  0  0  0  0  0
   -2.4277   -0.0791   -0.1338 C   0  0  0  0  0  0  0  0  0  0  0  0
   -2.6208   -1.3891    0.6222 C   0  0  0  0  0  0  0  0  0  0  0  0
   -1.7152   -2.4796    0.0169 C   0  0  0  0  0  0  0  0  0  0  0  0
   -3.6986    0.3544   -0.6391 O   0  0  0  0  0  0  0  0  0  0  0  0
   -3.6221    1.0509   -1.9303 O   0  0  0  0  0  0  0  0  0  0  0  0
    2.7130    1.0597   -0.3480 C   0  0  0  0  0  0  0  0  0  0  0  0
    3.2674    2.2110   -0.7080 C   0  0  0  0  0  0  0  0  0  0  0  0
    3.3796   -0.2553   -0.1979 C   0  0  0  0  0  0  0  0  0  0  0  0
    4.5097   -0.4872   -0.5627 O   0  0  0  0  0  0  0  0  0  0  0  0
    2.5921   -1.1597    0.4332 O   0  0  0  0  0  0  0  0  0  0  0  0
    1.4386   -1.6274   -1.1577 H   0  0  0  0  0  0  0  0  0  0  0  0
    0.6375   -3.1994   -1.3925 H   0  0  0  0  0  0  0  0  0  0  0  0
   -0.0711   -1.7257   -2.0955 H   0  0  0  0  0  0  0  0  0  0  0  0
   -0.4436   -1.2070    1.9347 H   0  0  0  0  0  0  0  0  0  0  0  0
    1.6666   -0.0766    1.9444 H   0  0  0  0  0  0  0  0  0  0  0  0
    0.7362    0.4685   -0.9144 H   0  0  0  0  0  0  0  0  0  0  0  0
    0.4512    1.6746    1.7622 H   0  0  0  0  0  0  0  0  0  0  0  0
    1.0472    2.8286    0.5555 H   0  0  0  0  0  0  0  0  0  0  0  0
   -1.2614    3.0231    0.2907 H   0  0  0  0  0  0  0  0  0  0  0  0
   -0.8442    1.8471   -0.9708 H   0  0  0  0  0  0  0  0  0  0  0  0
   -1.7941    1.9631    2.5622 H   0  0  0  0  0  0  0  0  0  0  0  0
   -2.8829    0.4486    2.4201 H   0  0  0  0  0  0  0  0  0  0  0  0
   -1.7675   -0.2494   -0.9878 H   0  0  0  0  0  0  0  0  0  0  0  0
   -2.3886   -1.2810    1.6780 H   0  0  0  0  0  0  0  0  0  0  0  0
   -3.6649   -1.7098    0.5244 H   0  0  0  0  0  0  0  0  0  0  0  0
   -2.0246   -2.7008   -0.9996 H   0  0  0  0  0  0  0  0  0  0  0  0
   -1.7425   -3.3723    0.6359 H   0  0  0  0  0  0  0  0  0  0  0  0
   -4.4787    1.3431   -2.2709 H   0  0  0  0  0  0  0  0  0  0  0  0
    2.6609    3.1012   -0.7868 H   0  0  0  0  0  0  0  0  0  0  0  0
    4.3250    2.2575   -0.9219 H   0  0  0  0  0  0  0  0  0  0  0  0
  1  2  1  0  0  0  0
  2  3  2  0  0  0  0
  3  4  1  0  0  0  0
  4  5  1  0  0  0  0
  5  6  1  0  0  0  0
  6  7  1  0  0  0  0
  7  8  1  0  0  0  0
  8  9  2  0  0  0  0
  8 10  1  0  0  0  0
 10 11  1  0  0  0  0
 11 12  1  0  0  0  0
  2 12  1  0  0  0  0
 10 13  1  0  0  0  0
 13 14  1  0  0  0  0
  5 15  1  0  0  0  0
 15 16  2  0  0  0  0
 15 17  1  0  0  0  0
 17 18  2  0  0  0  0
 17 19  1  0  0  0  0
  4 19  1  0  0  0  0
  1 20  1  0  0  0  0
  1 21  1  0  0  0  0
  1 22  1  0  0  0  0
  3 23  1  0  0  0  0
  4 24  1  0  0  0  0
  5 25  1  0  0  0  0
  6 26  1  0  0  0  0
  6 27  1  0  0  0  0
  7 28  1  0  0  0  0
  7 29  1  0  0  0  0
  9 30  1  0  0  0  0
  9 31  1  0  0  0  0
 10 32  1  0  0  0  0
 11 33  1  0  0  0  0
 11 34  1  0  0  0  0
 12 35  1  0  0  0  0
 12 36  1  0  0  0  0
 14 37  1  0  0  0  0
 16 38  1  0  0  0  0
 16 39  1  0  0  0  0
M  END
$$$$
