C34H32ClFeN4O4
APtclcactv06291802533D 0   0.00000     0.00000
 
 76 78  0  0  0  0  0  0  0  0999 V2000
    0.2576    2.6565   -2.7232 C   0  0  0  0  0  0  0  0  0  0  0  0
   -0.6461    1.6933   -1.9975 C   0  0  0  0  0  0  0  0  0  0  0  0
   -0.4020    0.3735   -1.7880 C   0  0  0  0  0  0  0  0  0  0  0  0
   -1.4907   -0.1639   -1.0730 C   0  0  0  0  0  0  0  0  0  0  0  0
   -1.5879   -1.4877   -0.6794 C   0  0  0  0  0  0  0  0  0  0  0  0
   -2.6720   -2.0134    0.0272 C   0  0  0  0  0  0  0  0  0  0  0  0
   -3.7705   -1.3715    0.4279 N   0  0  0  0  0  0  0  0  0  0  0  0
   -4.5855   -2.2092    1.0700 C   0  0  0  0  0  0  0  0  0  0  0  0
   -5.8317   -1.9204    1.6338 C   0  0  0  0  0  0  0  0  0  0  0  0
   -6.4145   -0.6686    1.6120 C   0  0  0  0  0  0  0  0  0  0  0  0
   -7.6806   -0.3639    2.1809 C   0  0  0  0  0  0  0  0  0  0  0  0
   -7.9195    0.9827    1.9627 C   0  0  0  0  0  0  0  0  0  0  0  0
   -6.8186    1.5063    1.2678 C   0  0  0  0  0  0  0  0  0  0  0  0
   -5.9138    0.4891    1.0614 N   0  0  0  0  0  0  0  0  0  0  0  0
   -6.7079    2.8339    0.8781 C   0  0  0  0  0  0  0  0  0  0  0  0
   -5.6181    3.3557    0.1865 C   0  0  0  0  0  0  0  0  0  0  0  0
   -5.4871    4.7699   -0.2331 C   0  0  0  0  0  0  0  0  0  0  0  0
   -4.2873    4.8581   -0.8787 C   0  0  0  0  0  0  0  0  0  0  0  0
   -3.7060    3.5618   -0.8587 C   0  0  0  0  0  0  0  0  0  0  0  0
   -4.5197    2.7187   -0.2216 N   0  0  0  0  0  0  0  0  0  0  0  0
   -2.4681    3.2632   -1.4342 C   0  0  0  0  0  0  0  0  0  0  0  0
   -1.8895    2.0057   -1.4123 C   0  0  0  0  0  0  0  0  0  0  0  0
   -2.3955    0.8519   -0.8557 N   0  5  0  0  0  0  0  0  0  0  0  0
   -3.6919    6.0970   -1.4967 C   0  0  0  0  0  0  0  0  0  0  0  0
   -6.4533    5.8580   -0.0020 C   0  0  0  0  0  0  0  0  0  0  0  0
   -6.0654    6.9726    0.6096 C   0  0  0  0  0  0  0  0  0  0  0  0
   -9.1435    1.7487    2.3940 C   0  0  0  0  0  0  0  0  0  0  0  0
   -8.5755   -1.3077    2.8749 C   0  0  0  0  0  0  0  0  0  0  0  0
   -8.8812   -2.4709    2.3100 C   0  0  0  0  0  0  0  0  0  0  0  0
   -3.9554   -3.5356    1.0999 C   0  0  0  0  0  0  0  0  0  0  0  0
   -2.7734   -3.4149    0.4562 C   0  0  0  0  0  0  0  0  0  0  0  0
   -1.7582   -4.5042    0.2241 C   0  0  0  0  0  0  0  0  0  0  0  0
   -1.9827   -5.1247   -1.1563 C   0  0  0  0  0  0  0  0  0  0  0  0
   -0.9675   -6.2140   -1.3885 C   0  0  0  0  0  0  0  0  0  0  0  0
   -0.1411   -6.4703   -0.5295 O   0  0  0  0  0  0  0  0  0  0  0  0
   -0.9726   -6.8390   -2.4353 O   0  5  0  0  0  0  0  0  0  0  0  0
   -4.5170   -4.7862    1.7258 C   0  0  0  0  0  0  0  0  0  0  0  0
    0.8198   -0.3835   -2.2410 C   0  0  0  0  0  0  0  0  0  0  0  0
    1.8434   -0.4268   -1.1047 C   0  0  0  0  0  0  0  0  0  0  0  0
    3.0651   -1.1839   -1.5577 C   0  0  0  0  0  0  0  0  0  0  0  0
    3.1128   -1.6459   -2.6850 O   0  0  0  0  0  0  0  0  0  0  0  0
    4.0060   -1.3343   -0.7970 O   0  5  0  0  0  0  0  0  0  0  0  0
   13.8849    0.8539    0.1216 Cl  0  0  0  0  0  0  0  0  0  0  0  0
   23.2951    0.9636    1.5407 Fe  0  4  0  0  0  0  0  0  0  0  0  0
    0.0066    2.6613   -3.7839 H   0  0  0  0  0  0  0  0  0  0  0  0
    0.1249    3.6579   -2.3139 H   0  0  0  0  0  0  0  0  0  0  0  0
    1.2950    2.3468   -2.5968 H   0  0  0  0  0  0  0  0  0  0  0  0
   -0.7770   -2.1539   -0.9344 H   0  0  0  0  0  0  0  0  0  0  0  0
   -6.3705   -2.7236    2.1144 H   0  0  0  0  0  0  0  0  0  0  0  0
   -5.0630    0.5746    0.6034 H   0  0  0  0  0  0  0  0  0  0  0  0
   -7.5177    3.5038    1.1266 H   0  0  0  0  0  0  0  0  0  0  0  0
   -1.9289    4.0618   -1.9218 H   0  0  0  0  0  0  0  0  0  0  0  0
   -3.0856    6.6173   -0.7553 H   0  0  0  0  0  0  0  0  0  0  0  0
   -3.0672    5.8158   -2.3445 H   0  0  0  0  0  0  0  0  0  0  0  0
   -4.4924    6.7538   -1.8372 H   0  0  0  0  0  0  0  0  0  0  0  0
   -7.4768    5.7499   -0.3295 H   0  0  0  0  0  0  0  0  0  0  0  0
   -5.0258    7.1141    0.8659 H   0  0  0  0  0  0  0  0  0  0  0  0
   -6.7897    7.7367    0.8501 H   0  0  0  0  0  0  0  0  0  0  0  0
   -8.9828    2.1590    3.3909 H   0  0  0  0  0  0  0  0  0  0  0  0
   -9.3294    2.5617    1.6921 H   0  0  0  0  0  0  0  0  0  0  0  0
  -10.0037    1.0795    2.4108 H   0  0  0  0  0  0  0  0  0  0  0  0
   -8.9826   -1.0538    3.8425 H   0  0  0  0  0  0  0  0  0  0  0  0
   -9.5368   -3.1624    2.8184 H   0  0  0  0  0  0  0  0  0  0  0  0
   -8.4742   -2.7249    1.3424 H   0  0  0  0  0  0  0  0  0  0  0  0
   -0.7545   -4.0821    0.2738 H   0  0  0  0  0  0  0  0  0  0  0  0
   -1.8678   -5.2722    0.9898 H   0  0  0  0  0  0  0  0  0  0  0  0
   -2.9864   -5.5468   -1.2061 H   0  0  0  0  0  0  0  0  0  0  0  0
   -1.8731   -4.3568   -1.9221 H   0  0  0  0  0  0  0  0  0  0  0  0
   -5.4884   -4.5661    2.1686 H   0  0  0  0  0  0  0  0  0  0  0  0
   -4.6318   -5.5549    0.9616 H   0  0  0  0  0  0  0  0  0  0  0  0
   -3.8370   -5.1420    2.4998 H   0  0  0  0  0  0  0  0  0  0  0  0
    0.5368   -1.4001   -2.5140 H   0  0  0  0  0  0  0  0  0  0  0  0
    1.2572    0.1163   -3.1052 H   0  0  0  0  0  0  0  0  0  0  0  0
    2.1264    0.5898   -0.8317 H   0  0  0  0  0  0  0  0  0  0  0  0
    1.4059   -0.9267   -0.2405 H   0  0  0  0  0  0  0  0  0  0  0  0
   14.8671   -0.0551   -0.1714 H   0  0  0  0  0  0  0  0  0  0  0  0
  1  2  1  0  0  0  0
  2  3  2  0  0  0  0
  3  4  1  0  0  0  0
  4  5  2  0  0  0  0
  5  6  1  0  0  0  0
  6  7  2  0  0  0  0
  7  8  1  0  0  0  0
  8  9  2  0  0  0  0
  9 10  1  0  0  0  0
 10 11  2  0  0  0  0
 11 12  1  0  0  0  0
 12 13  2  0  0  0  0
 13 14  1  0  0  0  0
 10 14  1  0  0  0  0
 13 15  1  0  0  0  0
 15 16  2  0  0  0  0
 16 17  1  0  0  0  0
 17 18  2  0  0  0  0
 18 19  1  0  0  0  0
 19 20  2  0  0  0  0
 16 20  1  0  0  0  0
 19 21  1  0  0  0  0
 21 22  2  0  0  0  0
  2 22  1  0  0  0  0
 22 23  1  0  0  0  0
  4 23  1  0  0  0  0
 18 24  1  0  0  0  0
 17 25  1  0  0  0  0
 25 26  2  0  0  0  0
 12 27  1  0  0  0  0
 11 28  1  0  0  0  0
 28 29  2  0  0  0  0
  8 30  1  0  0  0  0
 30 31  2  0  0  0  0
  6 31  1  0  0  0  0
 31 32  1  0  0  0  0
 32 33  1  0  0  0  0
 33 34  1  0  0  0  0
 34 35  2  0  0  0  0
 34 36  1  0  0  0  0
 30 37  1  0  0  0  0
  3 38  1  0  0  0  0
 38 39  1  0  0  0  0
 39 40  1  0  0  0  0
 40 41  2  0  0  0  0
 40 42  1  0  0  0  0
  1 45  1  0  0  0  0
  1 46  1  0  0  0  0
  1 47  1  0  0  0  0
  5 48  1  0  0  0  0
  9 49  1  0  0  0  0
 14 50  1  0  0  0  0
 15 51  1  0  0  0  0
 21 52  1  0  0  0  0
 24 53  1  0  0  0  0
 24 54  1  0  0  0  0
 24 55  1  0  0  0  0
 25 56  1  0  0  0  0
 26 57  1  0  0  0  0
 26 58  1  0  0  0  0
 27 59  1  0  0  0  0
 27 60  1  0  0  0  0
 27 61  1  0  0  0  0
 28 62  1  0  0  0  0
 29 63  1  0  0  0  0
 29 64  1  0  0  0  0
 32 65  1  0  0  0  0
 32 66  1  0  0  0  0
 33 67  1  0  0  0  0
 33 68  1  0  0  0  0
 37 69  1  0  0  0  0
 37 70  1  0  0  0  0
 37 71  1  0  0  0  0
 38 72  1  0  0  0  0
 38 73  1  0  0  0  0
 39 74  1  0  0  0  0
 39 75  1  0  0  0  0
 43 76  1  0  0  0  0
M  CHG  4  23  -1  36  -1  42  -1  44   3
M  RAD  1  44   2
M  END
$$$$
