C15H20O5
APtclcactv06281817093D 0   0.00000     0.00000
 
 40 41  0  0  0  0  0  0  0  0999 V2000
    2.9090    0.3102    1.5004 C   0  0  0  0  0  0  0  0  0  0  0  0
    2.7191   -0.0627    0.0527 C   0  0  0  0  0  0  0  0  0  0  0  0
    3.7958   -0.2948   -0.7329 C   0  0  0  0  0  0  0  0  0  0  0  0
    5.1002   -0.0313   -0.2438 C   0  0  0  0  0  0  0  0  0  0  0  0
    5.2472    0.5124    0.8344 O   0  0  0  0  0  0  0  0  0  0  0  0
    6.1786   -0.3836   -0.9743 O   0  0  0  0  0  0  0  0  0  0  0  0
    1.3704   -0.1739   -0.5032 C   0  0  0  0  0  0  0  0  0  0  0  0
    0.3084    0.0550    0.2717 C   0  0  0  0  0  0  0  0  0  0  0  0
   -1.0809   -0.0594   -0.3008 C   0  0  0  0  0  0  0  0  0  0  0  0
   -1.9108   -1.1410    0.4469 C   0  0  0  0  0  0  0  0  0  0  0  0
   -3.1487   -1.4228   -0.4281 C   0  0  0  0  0  0  0  0  0  0  0  0
   -3.9245   -0.1290   -0.5578 C   0  0  0  0  0  0  0  0  0  0  0  0
   -5.1215   -0.1108   -0.3990 O   0  0  0  0  0  0  0  0  0  0  0  0
   -3.1711    1.1411   -0.8897 C   0  0  0  0  0  0  0  0  0  0  0  0
   -1.9234    1.2048    0.0122 C   0  0  0  0  0  0  0  0  0  0  0  0
   -2.3583    1.0298    1.3723 O   0  0  0  0  0  0  0  0  0  0  0  0
   -2.3992   -0.3655    1.6924 C   0  0  0  0  0  0  0  0  0  0  0  0
   -1.1286    2.4960   -0.1928 C   0  0  0  0  0  0  0  0  0  0  0  0
   -1.1076   -2.4016    0.7738 C   0  0  0  0  0  0  0  0  0  0  0  0
   -1.0380   -0.3193   -1.7054 O   0  0  0  0  0  0  0  0  0  0  0  0
    3.0926    1.3818    1.5785 H   0  0  0  0  0  0  0  0  0  0  0  0
    2.0112    0.0535    2.0626 H   0  0  0  0  0  0  0  0  0  0  0  0
    3.7608   -0.2348    1.9073 H   0  0  0  0  0  0  0  0  0  0  0  0
    3.6616   -0.6808   -1.7326 H   0  0  0  0  0  0  0  0  0  0  0  0
    7.0238   -0.1636   -0.5593 H   0  0  0  0  0  0  0  0  0  0  0  0
    1.2343   -0.4412   -1.5407 H   0  0  0  0  0  0  0  0  0  0  0  0
    0.4446    0.3223    1.3092 H   0  0  0  0  0  0  0  0  0  0  0  0
   -2.8342   -1.7654   -1.4139 H   0  0  0  0  0  0  0  0  0  0  0  0
   -3.7715   -2.1812    0.0462 H   0  0  0  0  0  0  0  0  0  0  0  0
   -2.8685    1.1269   -1.9368 H   0  0  0  0  0  0  0  0  0  0  0  0
   -3.8066    2.0064   -0.7010 H   0  0  0  0  0  0  0  0  0  0  0  0
   -3.4203   -0.6599    1.9350 H   0  0  0  0  0  0  0  0  0  0  0  0
   -1.7423   -0.5709    2.5376 H   0  0  0  0  0  0  0  0  0  0  0  0
   -1.7641    3.3531    0.0298 H   0  0  0  0  0  0  0  0  0  0  0  0
   -0.2656    2.5009    0.4730 H   0  0  0  0  0  0  0  0  0  0  0  0
   -0.7898    2.5538   -1.2272 H   0  0  0  0  0  0  0  0  0  0  0  0
   -0.2621   -2.1389    1.4097 H   0  0  0  0  0  0  0  0  0  0  0  0
   -1.7465   -3.1145    1.2950 H   0  0  0  0  0  0  0  0  0  0  0  0
   -0.7419   -2.8493   -0.1503 H   0  0  0  0  0  0  0  0  0  0  0  0
   -0.5800    0.3612   -2.2175 H   0  0  0  0  0  0  0  0  0  0  0  0
  1  2  1  0  0  0  0
  2  3  2  0  0  0  0
  3  4  1  0  0  0  0
  4  5  2  0  0  0  0
  4  6  1  0  0  0  0
  2  7  1  0  0  0  0
  7  8  2  0  0  0  0
  8  9  1  0  0  0  0
  9 10  1  0  0  0  0
 10 11  1  0  0  0  0
 11 12  1  0  0  0  0
 12 13  2  0  0  0  0
 12 14  1  0  0  0  0
 14 15  1  0  0  0  0
  9 15  1  0  0  0  0
 15 16  1  0  0  0  0
 16 17  1  0  0  0  0
 10 17  1  0  0  0  0
 15 18  1  0  0  0  0
 10 19  1  0  0  0  0
  9 20  1  0  0  0  0
  1 21  1  0  0  0  0
  1 22  1  0  0  0  0
  1 23  1  0  0  0  0
  3 24  1  0  0  0  0
  6 25  1  0  0  0  0
  7 26  1  0  0  0  0
  8 27  1  0  0  0  0
 11 28  1  0  0  0  0
 11 29  1  0  0  0  0
 14 30  1  0  0  0  0
 14 31  1  0  0  0  0
 17 32  1  0  0  0  0
 17 33  1  0  0  0  0
 18 34  1  0  0  0  0
 18 35  1  0  0  0  0
 18 36  1  0  0  0  0
 19 37  1  0  0  0  0
 19 38  1  0  0  0  0
 19 39  1  0  0  0  0
 20 40  1  0  0  0  0
M  END
$$$$
