C15H24O
APtclcactv06281817093D 0   0.00000     0.00000
 
 40 41  0  0  0  0  0  0  0  0999 V2000
   -0.2713   -2.0854   -1.6772 C   0  0  0  0  0  0  0  0  0  0  0  0
   -0.3859   -1.9628   -0.1813 C   0  0  0  0  0  0  0  0  0  0  0  0
    0.6292   -1.6203    0.5677 C   0  0  0  0  0  0  0  0  0  0  0  0
    1.9981   -1.3358    0.0328 C   0  0  0  0  0  0  0  0  0  0  0  0
    2.3650    0.1452    0.1861 C   0  0  0  0  0  0  0  0  0  0  0  0
    1.7514    0.9487   -0.9095 C   0  0  0  0  0  0  0  0  0  0  0  0
    0.7374    1.7325   -0.9609 C   0  0  0  0  0  0  0  0  0  0  0  0
   -0.2481    2.1420    0.0816 C   0  0  0  0  0  0  0  0  0  0  0  0
   -1.5539    1.3500   -0.0744 C   0  0  0  0  0  0  0  0  0  0  0  0
   -1.8044    0.1936    0.8810 C   0  0  0  0  0  0  0  0  0  0  0  0
   -2.4952    1.4408    1.0035 O   0  0  0  0  0  0  0  0  0  0  0  0
   -2.6051   -1.0238    0.4294 C   0  0  0  0  0  0  0  0  0  0  0  0
   -1.7123   -2.2679    0.4768 C   0  0  0  0  0  0  0  0  0  0  0  0
   -2.1289    1.3147   -1.4901 C   0  0  0  0  0  0  0  0  0  0  0  0
    2.0138    0.6329    1.5836 C   0  0  0  0  0  0  0  0  0  0  0  0
    3.9022    0.2444    0.0358 C   0  0  0  0  0  0  0  0  0  0  0  0
    0.7477   -1.8496   -1.9840 H   0  0  0  0  0  0  0  0  0  0  0  0
   -0.5147   -3.1044   -1.9779 H   0  0  0  0  0  0  0  0  0  0  0  0
   -0.9639   -1.3910   -2.1527 H   0  0  0  0  0  0  0  0  0  0  0  0
    0.4558   -1.5657    1.6447 H   0  0  0  0  0  0  0  0  0  0  0  0
    2.7297   -1.9238    0.6104 H   0  0  0  0  0  0  0  0  0  0  0  0
    2.1057   -1.6243   -1.0085 H   0  0  0  0  0  0  0  0  0  0  0  0
    2.2794    0.8529   -1.8908 H   0  0  0  0  0  0  0  0  0  0  0  0
    0.5756    2.1935   -1.9626 H   0  0  0  0  0  0  0  0  0  0  0  0
    0.1135    2.0583    1.0920 H   0  0  0  0  0  0  0  0  0  0  0  0
   -0.4964    3.2086   -0.0791 H   0  0  0  0  0  0  0  0  0  0  0  0
   -1.0385   -0.0151    1.6387 H   0  0  0  0  0  0  0  0  0  0  0  0
   -3.4459   -1.1710    1.1191 H   0  0  0  0  0  0  0  0  0  0  0  0
   -3.0026   -0.8979   -0.5714 H   0  0  0  0  0  0  0  0  0  0  0  0
   -2.1973   -3.0855   -0.0559 H   0  0  0  0  0  0  0  0  0  0  0  0
   -1.5419   -2.5565    1.5133 H   0  0  0  0  0  0  0  0  0  0  0  0
   -1.6666    0.5016   -2.0498 H   0  0  0  0  0  0  0  0  0  0  0  0
   -3.2061    1.1556   -1.4409 H   0  0  0  0  0  0  0  0  0  0  0  0
   -1.9240    2.2618   -1.9892 H   0  0  0  0  0  0  0  0  0  0  0  0
    2.5664    0.0508    2.3211 H   0  0  0  0  0  0  0  0  0  0  0  0
    2.2796    1.6858    1.6785 H   0  0  0  0  0  0  0  0  0  0  0  0
    0.9439    0.5116    1.7526 H   0  0  0  0  0  0  0  0  0  0  0  0
    4.1960   -0.1269   -0.9460 H   0  0  0  0  0  0  0  0  0  0  0  0
    4.2109    1.2848    0.1381 H   0  0  0  0  0  0  0  0  0  0  0  0
    4.3824   -0.3547    0.8094 H   0  0  0  0  0  0  0  0  0  0  0  0
  1  2  1  0  0  0  0
  2  3  2  0  0  0  0
  3  4  1  0  0  0  0
  4  5  1  0  0  0  0
  5  6  1  0  0  0  0
  6  7  2  0  0  0  0
  7  8  1  0  0  0  0
  8  9  1  0  0  0  0
  9 10  1  0  0  0  0
 10 11  1  0  0  0  0
  9 11  1  0  0  0  0
 10 12  1  0  0  0  0
 12 13  1  0  0  0  0
  2 13  1  0  0  0  0
  9 14  1  0  0  0  0
  5 15  1  0  0  0  0
  5 16  1  0  0  0  0
  1 17  1  0  0  0  0
  1 18  1  0  0  0  0
  1 19  1  0  0  0  0
  3 20  1  0  0  0  0
  4 21  1  0  0  0  0
  4 22  1  0  0  0  0
  6 23  1  0  0  0  0
  7 24  1  0  0  0  0
  8 25  1  0  0  0  0
  8 26  1  0  0  0  0
 10 27  1  0  0  0  0
 12 28  1  0  0  0  0
 12 29  1  0  0  0  0
 13 30  1  0  0  0  0
 13 31  1  0  0  0  0
 14 32  1  0  0  0  0
 14 33  1  0  0  0  0
 14 34  1  0  0  0  0
 15 35  1  0  0  0  0
 15 36  1  0  0  0  0
 15 37  1  0  0  0  0
 16 38  1  0  0  0  0
 16 39  1  0  0  0  0
 16 40  1  0  0  0  0
M  END
$$$$
