C8H14O
APtclcactv06281817093D 0   0.00000     0.00000
 
 23 22  0  0  0  0  0  0  0  0999 V2000
    4.4797   -0.3362    0.6766 C   0  0  0  0  0  0  0  0  0  0  0  0
    3.4163    0.4044   -0.1368 C   0  0  0  0  0  0  0  0  0  0  0  0
    2.0545   -0.2580    0.0811 C   0  0  0  0  0  0  0  0  0  0  0  0
    0.9911    0.4826   -0.7323 C   0  0  0  0  0  0  0  0  0  0  0  0
   -0.3503   -0.1699   -0.5177 C   0  0  0  0  0  0  0  0  0  0  0  0
   -1.3862    0.5576   -0.0950 C   0  0  0  0  0  0  0  0  0  0  0  0
   -2.6881   -0.0756    0.1133 C   0  0  0  0  0  0  0  0  0  0  0  0
   -2.8262   -1.2623   -0.0982 O   0  0  0  0  0  0  0  0  0  0  0  0
   -3.8578    0.7459    0.5905 C   0  0  0  0  0  0  0  0  0  0  0  0
    4.2212   -0.2958    1.7347 H   0  0  0  0  0  0  0  0  0  0  0  0
    4.5256   -1.3761    0.3532 H   0  0  0  0  0  0  0  0  0  0  0  0
    5.4499    0.1358    0.5214 H   0  0  0  0  0  0  0  0  0  0  0  0
    3.3704    1.4443    0.1866 H   0  0  0  0  0  0  0  0  0  0  0  0
    3.6748    0.3641   -1.1949 H   0  0  0  0  0  0  0  0  0  0  0  0
    2.1004   -1.2979   -0.2423 H   0  0  0  0  0  0  0  0  0  0  0  0
    1.7959   -0.2177    1.1392 H   0  0  0  0  0  0  0  0  0  0  0  0
    0.9452    1.5225   -0.4089 H   0  0  0  0  0  0  0  0  0  0  0  0
    1.2496    0.4423   -1.7905 H   0  0  0  0  0  0  0  0  0  0  0  0
   -0.4732   -1.2262   -0.7060 H   0  0  0  0  0  0  0  0  0  0  0  0
   -1.2633    1.6140    0.0932 H   0  0  0  0  0  0  0  0  0  0  0  0
   -4.3947    1.1473   -0.2690 H   0  0  0  0  0  0  0  0  0  0  0  0
   -4.5283    0.1172    1.1765 H   0  0  0  0  0  0  0  0  0  0  0  0
   -3.4966    1.5673    1.2093 H   0  0  0  0  0  0  0  0  0  0  0  0
  1  2  1  0  0  0  0
  2  3  1  0  0  0  0
  3  4  1  0  0  0  0
  4  5  1  0  0  0  0
  5  6  2  0  0  0  0
  6  7  1  0  0  0  0
  7  8  2  0  0  0  0
  7  9  1  0  0  0  0
  1 10  1  0  0  0  0
  1 11  1  0  0  0  0
  1 12  1  0  0  0  0
  2 13  1  0  0  0  0
  2 14  1  0  0  0  0
  3 15  1  0  0  0  0
  3 16  1  0  0  0  0
  4 17  1  0  0  0  0
  4 18  1  0  0  0  0
  5 19  1  0  0  0  0
  6 20  1  0  0  0  0
  9 21  1  0  0  0  0
  9 22  1  0  0  0  0
  9 23  1  0  0  0  0
M  END
$$$$
