C9H14O3
APtclcactv06281817093D 0   0.00000     0.00000
 
 26 25  0  0  0  0  0  0  0  0999 V2000
    5.3782   -0.9809   -0.9186 C   0  0  0  0  0  0  0  0  0  0  0  0
    4.9243   -0.0306    0.1912 C   0  0  0  0  0  0  0  0  0  0  0  0
    3.5797    0.5501   -0.1633 C   0  0  0  0  0  0  0  0  0  0  0  0
    2.5762    0.4357    0.6710 C   0  0  0  0  0  0  0  0  0  0  0  0
    1.2315    1.0164    0.3164 C   0  0  0  0  0  0  0  0  0  0  0  0
    0.1641   -0.0758    0.4082 C   0  0  0  0  0  0  0  0  0  0  0  0
   -1.1315    0.4837    0.0666 O   0  0  0  0  0  0  0  0  0  0  0  0
   -2.1859   -0.3522    0.0989 C   0  0  0  0  0  0  0  0  0  0  0  0
   -2.0283   -1.5154    0.4036 O   0  0  0  0  0  0  0  0  0  0  0  0
   -3.5472    0.1517   -0.2399 C   0  0  0  0  0  0  0  0  0  0  0  0
   -3.7041    1.3101   -0.5434 O   0  0  0  0  0  0  0  0  0  0  0  0
   -4.7277   -0.7843   -0.2037 C   0  0  0  0  0  0  0  0  0  0  0  0
    6.3507   -1.4009   -0.6622 H   0  0  0  0  0  0  0  0  0  0  0  0
    4.6517   -1.7863   -1.0270 H   0  0  0  0  0  0  0  0  0  0  0  0
    5.4554   -0.4325   -1.8575 H   0  0  0  0  0  0  0  0  0  0  0  0
    4.8471   -0.5790    1.1301 H   0  0  0  0  0  0  0  0  0  0  0  0
    5.6508    0.7748    0.2996 H   0  0  0  0  0  0  0  0  0  0  0  0
    3.4433    1.0606   -1.1053 H   0  0  0  0  0  0  0  0  0  0  0  0
    2.7125   -0.0747    1.6129 H   0  0  0  0  0  0  0  0  0  0  0  0
    0.9888    1.8210    1.0105 H   0  0  0  0  0  0  0  0  0  0  0  0
    1.2622    1.4100   -0.6996 H   0  0  0  0  0  0  0  0  0  0  0  0
    0.4068   -0.8804   -0.2859 H   0  0  0  0  0  0  0  0  0  0  0  0
    0.1334   -0.4694    1.4242 H   0  0  0  0  0  0  0  0  0  0  0  0
   -4.3934   -1.7797    0.0890 H   0  0  0  0  0  0  0  0  0  0  0  0
   -5.4586   -0.4197    0.5181 H   0  0  0  0  0  0  0  0  0  0  0  0
   -5.1851   -0.8307   -1.1920 H   0  0  0  0  0  0  0  0  0  0  0  0
  1  2  1  0  0  0  0
  2  3  1  0  0  0  0
  3  4  2  0  0  0  0
  4  5  1  0  0  0  0
  5  6  1  0  0  0  0
  6  7  1  0  0  0  0
  7  8  1  0  0  0  0
  8  9  2  0  0  0  0
  8 10  1  0  0  0  0
 10 11  2  0  0  0  0
 10 12  1  0  0  0  0
  1 13  1  0  0  0  0
  1 14  1  0  0  0  0
  1 15  1  0  0  0  0
  2 16  1  0  0  0  0
  2 17  1  0  0  0  0
  3 18  1  0  0  0  0
  4 19  1  0  0  0  0
  5 20  1  0  0  0  0
  5 21  1  0  0  0  0
  6 22  1  0  0  0  0
  6 23  1  0  0  0  0
 12 24  1  0  0  0  0
 12 25  1  0  0  0  0
 12 26  1  0  0  0  0
M  END
$$$$
