C9H18O
APtclcactv06281817093D 0   0.00000     0.00000
 
 28 27  0  0  0  0  0  0  0  0999 V2000
    5.3790    0.6103   -0.2678 C   0  0  0  0  0  0  0  0  0  0  0  0
    3.9840    0.8272    0.3219 C   0  0  0  0  0  0  0  0  0  0  0  0
    3.0306   -0.2412   -0.2172 C   0  0  0  0  0  0  0  0  0  0  0  0
    1.6356   -0.0243    0.3725 C   0  0  0  0  0  0  0  0  0  0  0  0
    0.6823   -1.0926   -0.1666 C   0  0  0  0  0  0  0  0  0  0  0  0
   -0.6918   -0.8790    0.4142 C   0  0  0  0  0  0  0  0  0  0  0  0
   -1.7254   -0.7473   -0.3799 C   0  0  0  0  0  0  0  0  0  0  0  0
   -3.0994   -0.5336    0.2010 C   0  0  0  0  0  0  0  0  0  0  0  0
   -3.7125    0.7360   -0.3932 C   0  0  0  0  0  0  0  0  0  0  0  0
   -5.0155    0.9386    0.1576 O   0  0  0  0  0  0  0  0  0  0  0  0
    6.0582    1.3714    0.1163 H   0  0  0  0  0  0  0  0  0  0  0  0
    5.7432   -0.3775    0.0145 H   0  0  0  0  0  0  0  0  0  0  0  0
    5.3294    0.6824   -1.3543 H   0  0  0  0  0  0  0  0  0  0  0  0
    4.0335    0.7550    1.4084 H   0  0  0  0  0  0  0  0  0  0  0  0
    3.6198    1.8150    0.0396 H   0  0  0  0  0  0  0  0  0  0  0  0
    2.9811   -0.1690   -1.3037 H   0  0  0  0  0  0  0  0  0  0  0  0
    3.3949   -1.2290    0.0651 H   0  0  0  0  0  0  0  0  0  0  0  0
    1.6852   -0.0964    1.4590 H   0  0  0  0  0  0  0  0  0  0  0  0
    1.2714    0.9635    0.0902 H   0  0  0  0  0  0  0  0  0  0  0  0
    0.6327   -1.0205   -1.2531 H   0  0  0  0  0  0  0  0  0  0  0  0
    1.0465   -2.0804    0.1156 H   0  0  0  0  0  0  0  0  0  0  0  0
   -0.8244   -0.8345    1.4851 H   0  0  0  0  0  0  0  0  0  0  0  0
   -1.5927   -0.7918   -1.4508 H   0  0  0  0  0  0  0  0  0  0  0  0
   -3.7318   -1.3887   -0.0379 H   0  0  0  0  0  0  0  0  0  0  0  0
   -3.0241   -0.4286    1.2833 H   0  0  0  0  0  0  0  0  0  0  0  0
   -3.0801    1.5910   -0.1543 H   0  0  0  0  0  0  0  0  0  0  0  0
   -3.7879    0.6310   -1.4755 H   0  0  0  0  0  0  0  0  0  0  0  0
   -5.4648    1.7276   -0.1751 H   0  0  0  0  0  0  0  0  0  0  0  0
  1  2  1  0  0  0  0
  2  3  1  0  0  0  0
  3  4  1  0  0  0  0
  4  5  1  0  0  0  0
  5  6  1  0  0  0  0
  6  7  2  0  0  0  0
  7  8  1  0  0  0  0
  8  9  1  0  0  0  0
  9 10  1  0  0  0  0
  1 11  1  0  0  0  0
  1 12  1  0  0  0  0
  1 13  1  0  0  0  0
  2 14  1  0  0  0  0
  2 15  1  0  0  0  0
  3 16  1  0  0  0  0
  3 17  1  0  0  0  0
  4 18  1  0  0  0  0
  4 19  1  0  0  0  0
  5 20  1  0  0  0  0
  5 21  1  0  0  0  0
  6 22  1  0  0  0  0
  7 23  1  0  0  0  0
  8 24  1  0  0  0  0
  8 25  1  0  0  0  0
  9 26  1  0  0  0  0
  9 27  1  0  0  0  0
 10 28  1  0  0  0  0
M  END
$$$$
