C7H12O2
APtclcactv06281817093D 0   0.00000     0.00000
 
 21 20  0  0  0  0  0  0  0  0999 V2000
    4.5185    0.2424    0.3001 C   0  0  0  0  0  0  0  0  0  0  0  0
    3.1139   -0.3379    0.4765 C   0  0  0  0  0  0  0  0  0  0  0  0
    2.1748    0.2735   -0.5652 C   0  0  0  0  0  0  0  0  0  0  0  0
    0.7913   -0.2981   -0.3914 C   0  0  0  0  0  0  0  0  0  0  0  0
   -0.2478    0.5152   -0.2185 C   0  0  0  0  0  0  0  0  0  0  0  0
   -1.5969   -0.0422   -0.0490 C   0  0  0  0  0  0  0  0  0  0  0  0
   -1.7637   -1.2460   -0.0667 O   0  0  0  0  0  0  0  0  0  0  0  0
   -2.6494    0.7815    0.1261 O   0  0  0  0  0  0  0  0  0  0  0  0
   -3.9524    0.1612    0.2870 C   0  0  0  0  0  0  0  0  0  0  0  0
    5.1875   -0.1932    1.0422 H   0  0  0  0  0  0  0  0  0  0  0  0
    4.8846    0.0101   -0.7000 H   0  0  0  0  0  0  0  0  0  0  0  0
    4.4840    1.3238    0.4322 H   0  0  0  0  0  0  0  0  0  0  0  0
    3.1483   -1.4193    0.3444 H   0  0  0  0  0  0  0  0  0  0  0  0
    2.7477   -0.1056    1.4766 H   0  0  0  0  0  0  0  0  0  0  0  0
    2.1404    1.3549   -0.4331 H   0  0  0  0  0  0  0  0  0  0  0  0
    2.5409    0.0412   -1.5652 H   0  0  0  0  0  0  0  0  0  0  0  0
    0.6431   -1.3678   -0.4071 H   0  0  0  0  0  0  0  0  0  0  0  0
   -0.0996    1.5848   -0.2027 H   0  0  0  0  0  0  0  0  0  0  0  0
   -4.1861   -0.4282   -0.5995 H   0  0  0  0  0  0  0  0  0  0  0  0
   -3.9400   -0.4883    1.1623 H   0  0  0  0  0  0  0  0  0  0  0  0
   -4.7091    0.9346    0.4191 H   0  0  0  0  0  0  0  0  0  0  0  0
  1  2  1  0  0  0  0
  2  3  1  0  0  0  0
  3  4  1  0  0  0  0
  4  5  2  0  0  0  0
  5  6  1  0  0  0  0
  6  7  2  0  0  0  0
  6  8  1  0  0  0  0
  8  9  1  0  0  0  0
  1 10  1  0  0  0  0
  1 11  1  0  0  0  0
  1 12  1  0  0  0  0
  2 13  1  0  0  0  0
  2 14  1  0  0  0  0
  3 15  1  0  0  0  0
  3 16  1  0  0  0  0
  4 17  1  0  0  0  0
  5 18  1  0  0  0  0
  9 19  1  0  0  0  0
  9 20  1  0  0  0  0
  9 21  1  0  0  0  0
M  END
$$$$
