C28H46O
APtclcactv06281816503D 0   0.00000     0.00000
 
 75 78  0  0  0  0  0  0  0  0999 V2000
    3.1915    4.6750    0.5864 C   0  0  0  0  0  0  0  0  0  0  0  0
    3.5109    3.3899   -0.1800 C   0  0  0  0  0  0  0  0  0  0  0  0
    4.9480    2.9601    0.1213 C   0  0  0  0  0  0  0  0  0  0  0  0
    2.5463    2.2842    0.2538 C   0  0  0  0  0  0  0  0  0  0  0  0
    1.1092    2.7140   -0.0475 C   0  0  0  0  0  0  0  0  0  0  0  0
    2.8609    1.0185   -0.5011 C   0  0  0  0  0  0  0  0  0  0  0  0
    3.2019   -0.0654    0.1508 C   0  0  0  0  0  0  0  0  0  0  0  0
    3.5165   -1.3312   -0.6042 C   0  0  0  0  0  0  0  0  0  0  0  0
    4.9536   -1.7609   -0.3028 C   0  0  0  0  0  0  0  0  0  0  0  0
    2.5562   -2.4319   -0.1723 C   0  0  0  0  0  0  0  0  0  0  0  0
    2.5662   -2.5776    1.3733 C   0  0  0  0  0  0  0  0  0  0  0  0
    1.1695   -2.1035    1.8671 C   0  0  0  0  0  0  0  0  0  0  0  0
    0.7043   -1.2178    0.6997 C   0  0  0  0  0  0  0  0  0  0  0  0
    1.0937   -2.0920   -0.5120 C   0  0  0  0  0  0  0  0  0  0  0  0
    0.8440   -1.3304   -1.7843 C   0  0  0  0  0  0  0  0  0  0  0  0
   -0.5928   -0.7950   -1.8470 C   0  0  0  0  0  0  0  0  0  0  0  0
   -1.4368   -1.1283   -0.6319 C   0  0  0  0  0  0  0  0  0  0  0  0
   -0.7316   -0.8012    0.6837 C   0  0  0  0  0  0  0  0  0  0  0  0
   -1.5423   -1.4386    1.8191 C   0  0  0  0  0  0  0  0  0  0  0  0
   -2.9498   -0.9150    1.7369 C   0  0  0  0  0  0  0  0  0  0  0  0
   -3.4704   -0.4287    0.6544 C   0  0  0  0  0  0  0  0  0  0  0  0
   -2.7584   -0.3500   -0.6727 C   0  0  0  0  0  0  0  0  0  0  0  0
   -2.5264    1.1179   -1.0095 C   0  0  0  0  0  0  0  0  0  0  0  0
   -3.5163    2.0076   -0.2618 C   0  0  0  0  0  0  0  0  0  0  0  0
   -4.9082    1.3967   -0.1666 C   0  0  0  0  0  0  0  0  0  0  0  0
   -4.8827    0.1296    0.6969 C   0  0  0  0  0  0  0  0  0  0  0  0
   -5.8004    2.3486    0.4266 O   0  0  0  0  0  0  0  0  0  0  0  0
   -3.6361   -0.9876   -1.7509 C   0  0  0  0  0  0  0  0  0  0  0  0
    0.3511   -3.4348   -0.5305 C   0  0  0  0  0  0  0  0  0  0  0  0
    3.8786    5.4626    0.2774 H   0  0  0  0  0  0  0  0  0  0  0  0
    2.1676    4.9811    0.3718 H   0  0  0  0  0  0  0  0  0  0  0  0
    3.3007    4.4967    1.6562 H   0  0  0  0  0  0  0  0  0  0  0  0
    3.4017    3.5682   -1.2498 H   0  0  0  0  0  0  0  0  0  0  0  0
    5.0572    2.7818    1.1911 H   0  0  0  0  0  0  0  0  0  0  0  0
    5.1755    2.0446   -0.4247 H   0  0  0  0  0  0  0  0  0  0  0  0
    5.6352    3.7478   -0.1877 H   0  0  0  0  0  0  0  0  0  0  0  0
    2.6555    2.1059    1.3236 H   0  0  0  0  0  0  0  0  0  0  0  0
    1.0000    2.8923   -1.1173 H   0  0  0  0  0  0  0  0  0  0  0  0
    0.4220    1.9263    0.2615 H   0  0  0  0  0  0  0  0  0  0  0  0
    0.8817    3.6295    0.4985 H   0  0  0  0  0  0  0  0  0  0  0  0
    2.8052    1.0050   -1.5796 H   0  0  0  0  0  0  0  0  0  0  0  0
    3.2576   -0.0519    1.2293 H   0  0  0  0  0  0  0  0  0  0  0  0
    3.4073   -1.1529   -1.6739 H   0  0  0  0  0  0  0  0  0  0  0  0
    5.0891   -1.8455    0.7754 H   0  0  0  0  0  0  0  0  0  0  0  0
    5.1499   -2.7258   -0.7704 H   0  0  0  0  0  0  0  0  0  0  0  0
    5.6457   -1.0177   -0.6988 H   0  0  0  0  0  0  0  0  0  0  0  0
    2.8246   -3.3808   -0.6363 H   0  0  0  0  0  0  0  0  0  0  0  0
    2.7245   -3.6190    1.6475 H   0  0  0  0  0  0  0  0  0  0  0  0
    3.3453   -1.9489    1.8004 H   0  0  0  0  0  0  0  0  0  0  0  0
    0.5036   -2.9379    2.0420 H   0  0  0  0  0  0  0  0  0  0  0  0
    1.2775   -1.5032    2.7742 H   0  0  0  0  0  0  0  0  0  0  0  0
    1.3332   -0.3044    0.7013 H   0  0  0  0  0  0  0  0  0  0  0  0
    1.5272   -0.4774   -1.8795 H   0  0  0  0  0  0  0  0  0  0  0  0
    1.0189   -1.9891   -2.6483 H   0  0  0  0  0  0  0  0  0  0  0  0
   -0.5489    0.2961   -1.9722 H   0  0  0  0  0  0  0  0  0  0  0  0
   -1.0722   -1.1991   -2.7495 H   0  0  0  0  0  0  0  0  0  0  0  0
   -1.7303   -2.1809   -0.6508 H   0  0  0  0  0  0  0  0  0  0  0  0
   -0.7764    0.2986    0.8300 H   0  0  0  0  0  0  0  0  0  0  0  0
   -1.5494   -2.5203    1.7053 H   0  0  0  0  0  0  0  0  0  0  0  0
   -1.1069   -1.1655    2.7782 H   0  0  0  0  0  0  0  0  0  0  0  0
   -3.5572   -0.9464    2.6279 H   0  0  0  0  0  0  0  0  0  0  0  0
   -1.5106    1.4009   -0.7269 H   0  0  0  0  0  0  0  0  0  0  0  0
   -2.6490    1.2666   -2.0840 H   0  0  0  0  0  0  0  0  0  0  0  0
   -3.1366    2.1906    0.7465 H   0  0  0  0  0  0  0  0  0  0  0  0
   -3.5855    2.9686   -0.7795 H   0  0  0  0  0  0  0  0  0  0  0  0
   -5.2750    1.1553   -1.1652 H   0  0  0  0  0  0  0  0  0  0  0  0
   -5.5914   -0.6038    0.3137 H   0  0  0  0  0  0  0  0  0  0  0  0
   -5.1459    0.3818    1.7277 H   0  0  0  0  0  0  0  0  0  0  0  0
   -6.7088    2.0307    0.5208 H   0  0  0  0  0  0  0  0  0  0  0  0
   -4.5839   -0.4526   -1.8112 H   0  0  0  0  0  0  0  0  0  0  0  0
   -3.1266   -0.9338   -2.7129 H   0  0  0  0  0  0  0  0  0  0  0  0
   -3.8234   -2.0310   -1.4968 H   0  0  0  0  0  0  0  0  0  0  0  0
   -0.7185   -3.2601   -0.4137 H   0  0  0  0  0  0  0  0  0  0  0  0
    0.5355   -3.9390   -1.4791 H   0  0  0  0  0  0  0  0  0  0  0  0
    0.7087   -4.0591    0.2883 H   0  0  0  0  0  0  0  0  0  0  0  0
  1  2  1  0  0  0  0
  2  3  1  0  0  0  0
  2  4  1  0  0  0  0
  4  5  1  0  0  0  0
  4  6  1  0  0  0  0
  6  7  2  0  0  0  0
  7  8  1  0  0  0  0
  8  9  1  0  0  0  0
  8 10  1  0  0  0  0
 10 11  1  0  0  0  0
 11 12  1  0  0  0  0
 12 13  1  0  0  0  0
 13 14  1  0  0  0  0
 10 14  1  0  0  0  0
 14 15  1  0  0  0  0
 15 16  1  0  0  0  0
 16 17  1  0  0  0  0
 17 18  1  0  0  0  0
 13 18  1  0  0  0  0
 18 19  1  0  0  0  0
 19 20  1  0  0  0  0
 20 21  2  0  0  0  0
 21 22  1  0  0  0  0
 17 22  1  0  0  0  0
 22 23  1  0  0  0  0
 23 24  1  0  0  0  0
 24 25  1  0  0  0  0
 25 26  1  0  0  0  0
 21 26  1  0  0  0  0
 25 27  1  0  0  0  0
 22 28  1  0  0  0  0
 14 29  1  0  0  0  0
  1 30  1  0  0  0  0
  1 31  1  0  0  0  0
  1 32  1  0  0  0  0
  2 33  1  0  0  0  0
  3 34  1  0  0  0  0
  3 35  1  0  0  0  0
  3 36  1  0  0  0  0
  4 37  1  0  0  0  0
  5 38  1  0  0  0  0
  5 39  1  0  0  0  0
  5 40  1  0  0  0  0
  6 41  1  0  0  0  0
  7 42  1  0  0  0  0
  8 43  1  0  0  0  0
  9 44  1  0  0  0  0
  9 45  1  0  0  0  0
  9 46  1  0  0  0  0
 10 47  1  0  0  0  0
 11 48  1  0  0  0  0
 11 49  1  0  0  0  0
 12 50  1  0  0  0  0
 12 51  1  0  0  0  0
 13 52  1  0  0  0  0
 15 53  1  0  0  0  0
 15 54  1  0  0  0  0
 16 55  1  0  0  0  0
 16 56  1  0  0  0  0
 17 57  1  0  0  0  0
 18 58  1  0  0  0  0
 19 59  1  0  0  0  0
 19 60  1  0  0  0  0
 20 61  1  0  0  0  0
 23 62  1  0  0  0  0
 23 63  1  0  0  0  0
 24 64  1  0  0  0  0
 24 65  1  0  0  0  0
 25 66  1  0  0  0  0
 26 67  1  0  0  0  0
 26 68  1  0  0  0  0
 27 69  1  0  0  0  0
 28 70  1  0  0  0  0
 28 71  1  0  0  0  0
 28 72  1  0  0  0  0
 29 73  1  0  0  0  0
 29 74  1  0  0  0  0
 29 75  1  0  0  0  0
M  END
$$$$
