C6H12O
APtclcactv06281817093D 0   0.00000     0.00000
 
 19 18  0  0  0  0  0  0  0  0999 V2000
    3.7106   -0.4813   -0.1067 C   0  0  0  0  0  0  0  0  0  0  0  0
    2.3983    0.2072   -0.3802 C   0  0  0  0  0  0  0  0  0  0  0  0
    1.3950    0.0578    0.4488 C   0  0  0  0  0  0  0  0  0  0  0  0
    0.0827    0.7463    0.1752 C   0  0  0  0  0  0  0  0  0  0  0  0
   -1.0434   -0.2894    0.1611 C   0  0  0  0  0  0  0  0  0  0  0  0
   -2.3758    0.4096   -0.1166 C   0  0  0  0  0  0  0  0  0  0  0  0
   -3.4275   -0.5578   -0.1299 O   0  0  0  0  0  0  0  0  0  0  0  0
    4.1068   -0.1413    0.8502 H   0  0  0  0  0  0  0  0  0  0  0  0
    3.5551   -1.5596   -0.0730 H   0  0  0  0  0  0  0  0  0  0  0  0
    4.4192   -0.2409   -0.8993 H   0  0  0  0  0  0  0  0  0  0  0  0
    2.2849    0.8237   -1.2597 H   0  0  0  0  0  0  0  0  0  0  0  0
    1.5083   -0.5587    1.3282 H   0  0  0  0  0  0  0  0  0  0  0  0
   -0.1108    1.4827    0.9552 H   0  0  0  0  0  0  0  0  0  0  0  0
    0.1291    1.2457   -0.7925 H   0  0  0  0  0  0  0  0  0  0  0  0
   -0.8499   -1.0258   -0.6189 H   0  0  0  0  0  0  0  0  0  0  0  0
   -1.0899   -0.7888    1.1288 H   0  0  0  0  0  0  0  0  0  0  0  0
   -2.5692    1.1460    0.6634 H   0  0  0  0  0  0  0  0  0  0  0  0
   -2.3293    0.9090   -1.0844 H   0  0  0  0  0  0  0  0  0  0  0  0
   -4.3030   -0.1846   -0.3007 H   0  0  0  0  0  0  0  0  0  0  0  0
  1  2  1  0  0  0  0
  2  3  2  0  0  0  0
  3  4  1  0  0  0  0
  4  5  1  0  0  0  0
  5  6  1  0  0  0  0
  6  7  1  0  0  0  0
  1  8  1  0  0  0  0
  1  9  1  0  0  0  0
  1 10  1  0  0  0  0
  2 11  1  0  0  0  0
  3 12  1  0  0  0  0
  4 13  1  0  0  0  0
  4 14  1  0  0  0  0
  5 15  1  0  0  0  0
  5 16  1  0  0  0  0
  6 17  1  0  0  0  0
  6 18  1  0  0  0  0
  7 19  1  0  0  0  0
M  END
$$$$
