C13H18O
APtclcactv06281817093D 0   0.00000     0.00000
 
 32 32  0  0  0  0  0  0  0  0999 V2000
   -4.4302    0.4708   -0.8710 C   0  0  0  0  0  0  0  0  0  0  0  0
   -3.3254   -0.0989   -0.0191 C   0  0  0  0  0  0  0  0  0  0  0  0
   -2.0543    0.1491   -0.3248 C   0  0  0  0  0  0  0  0  0  0  0  0
   -0.9751   -0.4074    0.5073 C   0  0  0  0  0  0  0  0  0  0  0  0
   -1.2449   -1.0181    1.5263 O   0  0  0  0  0  0  0  0  0  0  0  0
    0.4203   -0.2272    0.1110 C   0  0  0  0  0  0  0  0  0  0  0  0
    1.1631   -1.2968   -0.2579 C   0  0  0  0  0  0  0  0  0  0  0  0
    2.5701   -1.1149   -0.6110 C   0  0  0  0  0  0  0  0  0  0  0  0
    3.2081    0.0004   -0.2560 C   0  0  0  0  0  0  0  0  0  0  0  0
    2.4988    1.0680    0.5341 C   0  0  0  0  0  0  0  0  0  0  0  0
    1.0311    1.1502    0.1069 C   0  0  0  0  0  0  0  0  0  0  0  0
    0.9439    1.7496   -1.2982 C   0  0  0  0  0  0  0  0  0  0  0  0
    0.2664    2.0433    1.0860 C   0  0  0  0  0  0  0  0  0  0  0  0
    0.5426   -2.6694   -0.3038 C   0  0  0  0  0  0  0  0  0  0  0  0
   -4.3283    0.1029   -1.8920 H   0  0  0  0  0  0  0  0  0  0  0  0
   -5.3952    0.1627   -0.4684 H   0  0  0  0  0  0  0  0  0  0  0  0
   -4.3664    1.5589   -0.8688 H   0  0  0  0  0  0  0  0  0  0  0  0
   -3.5653   -0.7086    0.8395 H   0  0  0  0  0  0  0  0  0  0  0  0
   -1.8144    0.7587   -1.1834 H   0  0  0  0  0  0  0  0  0  0  0  0
    3.0928   -1.8846   -1.1595 H   0  0  0  0  0  0  0  0  0  0  0  0
    4.2415    0.1395   -0.5375 H   0  0  0  0  0  0  0  0  0  0  0  0
    2.5564    0.8297    1.5962 H   0  0  0  0  0  0  0  0  0  0  0  0
    2.9800    2.0295    0.3552 H   0  0  0  0  0  0  0  0  0  0  0  0
    1.4918    1.1178   -1.9973 H   0  0  0  0  0  0  0  0  0  0  0  0
   -0.1007    1.8088   -1.6037 H   0  0  0  0  0  0  0  0  0  0  0  0
    1.3786    2.7491   -1.2944 H   0  0  0  0  0  0  0  0  0  0  0  0
    0.7580    3.0139    1.1524 H   0  0  0  0  0  0  0  0  0  0  0  0
   -0.7561    2.1773    0.7330 H   0  0  0  0  0  0  0  0  0  0  0  0
    0.2526    1.5749    2.0701 H   0  0  0  0  0  0  0  0  0  0  0  0
    0.2008   -2.8799   -1.3172 H   0  0  0  0  0  0  0  0  0  0  0  0
    1.2829   -3.4129   -0.0083 H   0  0  0  0  0  0  0  0  0  0  0  0
   -0.3047   -2.7082    0.3808 H   0  0  0  0  0  0  0  0  0  0  0  0
  1  2  1  0  0  0  0
  2  3  2  0  0  0  0
  3  4  1  0  0  0  0
  4  5  2  0  0  0  0
  4  6  1  0  0  0  0
  6  7  2  0  0  0  0
  7  8  1  0  0  0  0
  8  9  2  0  0  0  0
  9 10  1  0  0  0  0
 10 11  1  0  0  0  0
  6 11  1  0  0  0  0
 11 12  1  0  0  0  0
 11 13  1  0  0  0  0
  7 14  1  0  0  0  0
  1 15  1  0  0  0  0
  1 16  1  0  0  0  0
  1 17  1  0  0  0  0
  2 18  1  0  0  0  0
  3 19  1  0  0  0  0
  8 20  1  0  0  0  0
  9 21  1  0  0  0  0
 10 22  1  0  0  0  0
 10 23  1  0  0  0  0
 12 24  1  0  0  0  0
 12 25  1  0  0  0  0
 12 26  1  0  0  0  0
 13 27  1  0  0  0  0
 13 28  1  0  0  0  0
 13 29  1  0  0  0  0
 14 30  1  0  0  0  0
 14 31  1  0  0  0  0
 14 32  1  0  0  0  0
M  END
$$$$
