C9H16O2
APtclcactv06281817103D 0   0.00000     0.00000
 
 27 26  0  0  0  0  0  0  0  0999 V2000
    5.5441    0.8950    0.0688 C   0  0  0  0  0  0  0  0  0  0  0  0
    4.1173    0.6481    0.5631 C   0  0  0  0  0  0  0  0  0  0  0  0
    3.4775   -0.4695   -0.2630 C   0  0  0  0  0  0  0  0  0  0  0  0
    2.0722   -0.7126    0.2239 C   0  0  0  0  0  0  0  0  0  0  0  0
    1.0689   -0.6559   -0.6164 C   0  0  0  0  0  0  0  0  0  0  0  0
   -0.3364   -0.8990   -0.1295 C   0  0  0  0  0  0  0  0  0  0  0  0
   -1.2204    0.2910   -0.5081 C   0  0  0  0  0  0  0  0  0  0  0  0
   -2.6257    0.0478   -0.0212 C   0  0  0  0  0  0  0  0  0  0  0  0
   -2.8928   -0.9725    0.5681 O   0  0  0  0  0  0  0  0  0  0  0  0
   -3.5807    0.9648   -0.2423 O   0  0  0  0  0  0  0  0  0  0  0  0
   -4.9113    0.6639    0.2548 C   0  0  0  0  0  0  0  0  0  0  0  0
    5.9999    1.6912    0.6574 H   0  0  0  0  0  0  0  0  0  0  0  0
    6.1294   -0.0180    0.1777 H   0  0  0  0  0  0  0  0  0  0  0  0
    5.5194    1.1877   -0.9809 H   0  0  0  0  0  0  0  0  0  0  0  0
    4.1420    0.3554    1.6128 H   0  0  0  0  0  0  0  0  0  0  0  0
    3.5320    1.5611    0.4542 H   0  0  0  0  0  0  0  0  0  0  0  0
    3.4528   -0.1768   -1.3127 H   0  0  0  0  0  0  0  0  0  0  0  0
    4.0629   -1.3825   -0.1541 H   0  0  0  0  0  0  0  0  0  0  0  0
    1.8923   -0.9337    1.2656 H   0  0  0  0  0  0  0  0  0  0  0  0
    1.2488   -0.4348   -1.6581 H   0  0  0  0  0  0  0  0  0  0  0  0
   -0.7293   -1.8049   -0.5912 H   0  0  0  0  0  0  0  0  0  0  0  0
   -0.3302   -1.0168    0.9541 H   0  0  0  0  0  0  0  0  0  0  0  0
   -0.8276    1.1969   -0.0465 H   0  0  0  0  0  0  0  0  0  0  0  0
   -1.2266    0.4088   -1.5917 H   0  0  0  0  0  0  0  0  0  0  0  0
   -5.5850    1.4850    0.0100 H   0  0  0  0  0  0  0  0  0  0  0  0
   -5.2735   -0.2537   -0.2088 H   0  0  0  0  0  0  0  0  0  0  0  0
   -4.8744    0.5344    1.3365 H   0  0  0  0  0  0  0  0  0  0  0  0
  1  2  1  0  0  0  0
  2  3  1  0  0  0  0
  3  4  1  0  0  0  0
  4  5  2  0  0  0  0
  5  6  1  0  0  0  0
  6  7  1  0  0  0  0
  7  8  1  0  0  0  0
  8  9  2  0  0  0  0
  8 10  1  0  0  0  0
 10 11  1  0  0  0  0
  1 12  1  0  0  0  0
  1 13  1  0  0  0  0
  1 14  1  0  0  0  0
  2 15  1  0  0  0  0
  2 16  1  0  0  0  0
  3 17  1  0  0  0  0
  3 18  1  0  0  0  0
  4 19  1  0  0  0  0
  5 20  1  0  0  0  0
  6 21  1  0  0  0  0
  6 22  1  0  0  0  0
  7 23  1  0  0  0  0
  7 24  1  0  0  0  0
 11 25  1  0  0  0  0
 11 26  1  0  0  0  0
 11 27  1  0  0  0  0
M  END
$$$$
