C12H20O
APtclcactv06281817103D 0   0.00000     0.00000
 
 33 32  0  0  0  0  0  0  0  0999 V2000
    7.2118    0.5401   -0.3369 C   0  0  0  0  0  0  0  0  0  0  0  0
    5.8776    0.8034    0.3642 C   0  0  0  0  0  0  0  0  0  0  0  0
    4.7746   -0.0093   -0.3167 C   0  0  0  0  0  0  0  0  0  0  0  0
    3.4404    0.2540    0.3844 C   0  0  0  0  0  0  0  0  0  0  0  0
    2.3373   -0.5587   -0.2965 C   0  0  0  0  0  0  0  0  0  0  0  0
    1.0032   -0.2954    0.4045 C   0  0  0  0  0  0  0  0  0  0  0  0
   -0.0999   -1.1081   -0.2764 C   0  0  0  0  0  0  0  0  0  0  0  0
   -1.4140   -0.8488    0.4141 C   0  0  0  0  0  0  0  0  0  0  0  0
   -2.4670   -0.4259   -0.2909 C   0  0  0  0  0  0  0  0  0  0  0  0
   -3.7411   -0.1744    0.3786 C   0  0  0  0  0  0  0  0  0  0  0  0
   -4.8111    0.2552   -0.3377 C   0  0  0  0  0  0  0  0  0  0  0  0
   -6.0387    0.4976    0.3074 C   0  0  0  0  0  0  0  0  0  0  0  0
   -6.9962    0.8820   -0.3337 O   0  0  0  0  0  0  0  0  0  0  0  0
    7.9977    1.1191    0.1482 H   0  0  0  0  0  0  0  0  0  0  0  0
    7.4516   -0.5214   -0.2747 H   0  0  0  0  0  0  0  0  0  0  0  0
    7.1367    0.8349   -1.3835 H   0  0  0  0  0  0  0  0  0  0  0  0
    5.9528    0.5086    1.4109 H   0  0  0  0  0  0  0  0  0  0  0  0
    5.6378    1.8649    0.3021 H   0  0  0  0  0  0  0  0  0  0  0  0
    4.6995    0.2855   -1.3634 H   0  0  0  0  0  0  0  0  0  0  0  0
    5.0144   -1.0708   -0.2546 H   0  0  0  0  0  0  0  0  0  0  0  0
    3.5155   -0.0408    1.4310 H   0  0  0  0  0  0  0  0  0  0  0  0
    3.2006    1.3155    0.3222 H   0  0  0  0  0  0  0  0  0  0  0  0
    2.2622   -0.2639   -1.3432 H   0  0  0  0  0  0  0  0  0  0  0  0
    2.5771   -1.6202   -0.2344 H   0  0  0  0  0  0  0  0  0  0  0  0
    1.0783   -0.5902    1.4512 H   0  0  0  0  0  0  0  0  0  0  0  0
    0.7634    0.7661    0.3424 H   0  0  0  0  0  0  0  0  0  0  0  0
   -0.1750   -0.8133   -1.3230 H   0  0  0  0  0  0  0  0  0  0  0  0
    0.1399   -2.1696   -0.2142 H   0  0  0  0  0  0  0  0  0  0  0  0
   -1.5045   -1.0047    1.4790 H   0  0  0  0  0  0  0  0  0  0  0  0
   -2.3765   -0.2699   -1.3557 H   0  0  0  0  0  0  0  0  0  0  0  0
   -3.8316   -0.3304    1.4435 H   0  0  0  0  0  0  0  0  0  0  0  0
   -4.7205    0.4112   -1.4026 H   0  0  0  0  0  0  0  0  0  0  0  0
   -6.1292    0.3416    1.3722 H   0  0  0  0  0  0  0  0  0  0  0  0
  1  2  1  0  0  0  0
  2  3  1  0  0  0  0
  3  4  1  0  0  0  0
  4  5  1  0  0  0  0
  5  6  1  0  0  0  0
  6  7  1  0  0  0  0
  7  8  1  0  0  0  0
  8  9  2  0  0  0  0
  9 10  1  0  0  0  0
 10 11  2  0  0  0  0
 11 12  1  0  0  0  0
 12 13  2  0  0  0  0
  1 14  1  0  0  0  0
  1 15  1  0  0  0  0
  1 16  1  0  0  0  0
  2 17  1  0  0  0  0
  2 18  1  0  0  0  0
  3 19  1  0  0  0  0
  3 20  1  0  0  0  0
  4 21  1  0  0  0  0
  4 22  1  0  0  0  0
  5 23  1  0  0  0  0
  5 24  1  0  0  0  0
  6 25  1  0  0  0  0
  6 26  1  0  0  0  0
  7 27  1  0  0  0  0
  7 28  1  0  0  0  0
  8 29  1  0  0  0  0
  9 30  1  0  0  0  0
 10 31  1  0  0  0  0
 11 32  1  0  0  0  0
 12 33  1  0  0  0  0
M  END
$$$$
