C10H14
APtclcactv06281817103D 0   0.00000     0.00000
 
 24 23  0  0  0  0  0  0  0  0999 V2000
    2.9557    1.4261    0.0000 C   0  0  0  0  0  0  0  0  0  0  0  0
    2.9176   -0.0804   -0.0000 C   0  0  0  0  0  0  0  0  0  0  0  0
    4.0562   -0.7767   -0.0000 C   0  0  0  0  0  0  0  0  0  0  0  0
    1.6329   -0.7795   -0.0000 C   0  0  0  0  0  0  0  0  0  0  0  0
    0.4777   -0.0731    0.0000 C   0  0  0  0  0  0  0  0  0  0  0  0
   -0.7633   -0.7484    0.0000 C   0  0  0  0  0  0  0  0  0  0  0  0
   -1.9185   -0.0419    0.0000 C   0  0  0  0  0  0  0  0  0  0  0  0
   -1.8805    1.4646   -0.0000 C   0  0  0  0  0  0  0  0  0  0  0  0
   -3.2032   -0.7410    0.0000 C   0  0  0  0  0  0  0  0  0  0  0  0
   -4.3418   -0.0448   -0.0000 C   0  0  0  0  0  0  0  0  0  0  0  0
    3.9922    1.7634   -0.0000 H   0  0  0  0  0  0  0  0  0  0  0  0
    2.4512    1.8023   -0.8900 H   0  0  0  0  0  0  0  0  0  0  0  0
    2.4512    1.8023    0.8900 H   0  0  0  0  0  0  0  0  0  0  0  0
    4.0290   -1.8563   -0.0000 H   0  0  0  0  0  0  0  0  0  0  0  0
    5.0049   -0.2604    0.0000 H   0  0  0  0  0  0  0  0  0  0  0  0
    1.6057   -1.8592   -0.0000 H   0  0  0  0  0  0  0  0  0  0  0  0
    0.5050    1.0066    0.0000 H   0  0  0  0  0  0  0  0  0  0  0  0
   -0.7905   -1.8280    0.0000 H   0  0  0  0  0  0  0  0  0  0  0  0
   -1.8713    1.8278   -1.0277 H   0  0  0  0  0  0  0  0  0  0  0  0
   -2.7610    1.8503    0.5138 H   0  0  0  0  0  0  0  0  0  0  0  0
   -0.9816    1.8054    0.5138 H   0  0  0  0  0  0  0  0  0  0  0  0
   -3.2305   -1.8207    0.0000 H   0  0  0  0  0  0  0  0  0  0  0  0
   -4.3145    1.0349   -0.0000 H   0  0  0  0  0  0  0  0  0  0  0  0
   -5.2904   -0.5610   -0.0000 H   0  0  0  0  0  0  0  0  0  0  0  0
  1  2  1  0  0  0  0
  2  3  2  0  0  0  0
  2  4  1  0  0  0  0
  4  5  2  0  0  0  0
  5  6  1  0  0  0  0
  6  7  2  0  0  0  0
  7  8  1  0  0  0  0
  7  9  1  0  0  0  0
  9 10  2  0  0  0  0
  1 11  1  0  0  0  0
  1 12  1  0  0  0  0
  1 13  1  0  0  0  0
  3 14  1  0  0  0  0
  3 15  1  0  0  0  0
  4 16  1  0  0  0  0
  5 17  1  0  0  0  0
  6 18  1  0  0  0  0
  8 19  1  0  0  0  0
  8 20  1  0  0  0  0
  8 21  1  0  0  0  0
  9 22  1  0  0  0  0
 10 23  1  0  0  0  0
 10 24  1  0  0  0  0
M  END
$$$$
