C22H29NO3
APtclcactv06281817103D 0   0.00000     0.00000
 
 55 56  0  0  0  0  0  0  0  0999 V2000
  -10.3885   -1.5827    1.5761 C   0  0  0  0  0  0  0  0  0  0  0  0
  -10.2440   -1.6671    0.0553 C   0  0  0  0  0  0  0  0  0  0  0  0
  -11.6251   -1.5629   -0.5948 C   0  0  0  0  0  0  0  0  0  0  0  0
   -9.3604   -0.5194   -0.4376 C   0  0  0  0  0  0  0  0  0  0  0  0
   -8.0040   -0.6858    0.0905 N   0  0  0  0  0  0  0  0  0  0  0  0
   -7.0473    0.2132   -0.2142 C   0  0  0  0  0  0  0  0  0  0  0  0
   -7.3101    1.1634   -0.9280 O   0  0  0  0  0  0  0  0  0  0  0  0
   -5.6931    0.0470    0.3130 C   0  0  0  0  0  0  0  0  0  0  0  0
   -4.7335    0.9487    0.0074 C   0  0  0  0  0  0  0  0  0  0  0  0
   -3.3786    0.7825    0.5349 C   0  0  0  0  0  0  0  0  0  0  0  0
   -2.4315    1.6724    0.2334 C   0  0  0  0  0  0  0  0  0  0  0  0
   -1.0363    1.5011    0.7765 C   0  0  0  0  0  0  0  0  0  0  0  0
   -0.0352    1.5001   -0.3805 C   0  0  0  0  0  0  0  0  0  0  0  0
    1.3814    1.3263    0.1710 C   0  0  0  0  0  0  0  0  0  0  0  0
    2.3825    1.3253   -0.9860 C   0  0  0  0  0  0  0  0  0  0  0  0
    3.7778    1.1540   -0.4429 C   0  0  0  0  0  0  0  0  0  0  0  0
    4.5471    0.1709   -0.8897 C   0  0  0  0  0  0  0  0  0  0  0  0
    5.9153    0.0030   -0.3570 C   0  0  0  0  0  0  0  0  0  0  0  0
    6.7264   -1.0311   -0.8261 C   0  0  0  0  0  0  0  0  0  0  0  0
    8.0061   -1.1851   -0.3253 C   0  0  0  0  0  0  0  0  0  0  0  0
    8.4837   -0.3075    0.6470 C   0  0  0  0  0  0  0  0  0  0  0  0
    7.6764    0.7199    1.1126 C   0  0  0  0  0  0  0  0  0  0  0  0
    6.4013    0.8818    0.6122 C   0  0  0  0  0  0  0  0  0  0  0  0
    9.7595   -0.6695    0.9711 O   0  0  0  0  0  0  0  0  0  0  0  0
   10.2025   -1.5205   -0.1025 C   0  0  0  0  0  0  0  0  0  0  0  0
    8.9834   -2.0953   -0.6090 O   0  0  0  0  0  0  0  0  0  0  0  0
  -10.8459   -0.6306    1.8453 H   0  0  0  0  0  0  0  0  0  0  0  0
  -11.0179   -2.4003    1.9272 H   0  0  0  0  0  0  0  0  0  0  0  0
   -9.4045   -1.6569    2.0392 H   0  0  0  0  0  0  0  0  0  0  0  0
   -9.7866   -2.6192   -0.2139 H   0  0  0  0  0  0  0  0  0  0  0  0
  -12.0825   -0.6109   -0.3256 H   0  0  0  0  0  0  0  0  0  0  0  0
  -11.5221   -1.6231   -1.6783 H   0  0  0  0  0  0  0  0  0  0  0  0
  -12.2545   -2.3806   -0.2437 H   0  0  0  0  0  0  0  0  0  0  0  0
   -9.3296   -0.5266   -1.5271 H   0  0  0  0  0  0  0  0  0  0  0  0
   -9.7709    0.4294   -0.0920 H   0  0  0  0  0  0  0  0  0  0  0  0
   -7.7946   -1.4430    0.6593 H   0  0  0  0  0  0  0  0  0  0  0  0
   -5.4599   -0.7961    0.9464 H   0  0  0  0  0  0  0  0  0  0  0  0
   -4.9667    1.7918   -0.6259 H   0  0  0  0  0  0  0  0  0  0  0  0
   -3.1454   -0.0606    1.1683 H   0  0  0  0  0  0  0  0  0  0  0  0
   -2.6648    2.5155   -0.4000 H   0  0  0  0  0  0  0  0  0  0  0  0
   -0.8070    2.3231    1.4547 H   0  0  0  0  0  0  0  0  0  0  0  0
   -0.9697    0.5561    1.3155 H   0  0  0  0  0  0  0  0  0  0  0  0
   -0.2645    0.6781   -1.0586 H   0  0  0  0  0  0  0  0  0  0  0  0
   -0.1018    2.4452   -0.9195 H   0  0  0  0  0  0  0  0  0  0  0  0
    1.6107    2.1483    0.8491 H   0  0  0  0  0  0  0  0  0  0  0  0
    1.4480    0.3812    0.7100 H   0  0  0  0  0  0  0  0  0  0  0  0
    2.1532    0.5033   -1.6642 H   0  0  0  0  0  0  0  0  0  0  0  0
    2.3159    2.2703   -1.5250 H   0  0  0  0  0  0  0  0  0  0  0  0
    4.1510    1.8321    0.3103 H   0  0  0  0  0  0  0  0  0  0  0  0
    4.1739   -0.5072   -1.6428 H   0  0  0  0  0  0  0  0  0  0  0  0
    6.3550   -1.7105   -1.5790 H   0  0  0  0  0  0  0  0  0  0  0  0
    8.0490    1.3980    1.8661 H   0  0  0  0  0  0  0  0  0  0  0  0
    5.7758    1.6831    0.9768 H   0  0  0  0  0  0  0  0  0  0  0  0
   10.6996   -0.9345   -0.8755 H   0  0  0  0  0  0  0  0  0  0  0  0
   10.8652   -2.2993    0.2747 H   0  0  0  0  0  0  0  0  0  0  0  0
  1  2  1  0  0  0  0
  2  3  1  0  0  0  0
  2  4  1  0  0  0  0
  4  5  1  0  0  0  0
  5  6  1  0  0  0  0
  6  7  2  0  0  0  0
  6  8  1  0  0  0  0
  8  9  2  0  0  0  0
  9 10  1  0  0  0  0
 10 11  2  0  0  0  0
 11 12  1  0  0  0  0
 12 13  1  0  0  0  0
 13 14  1  0  0  0  0
 14 15  1  0  0  0  0
 15 16  1  0  0  0  0
 16 17  2  0  0  0  0
 17 18  1  0  0  0  0
 18 19  2  0  0  0  0
 19 20  1  0  0  0  0
 20 21  2  0  0  0  0
 21 22  1  0  0  0  0
 22 23  2  0  0  0  0
 18 23  1  0  0  0  0
 21 24  1  0  0  0  0
 24 25  1  0  0  0  0
 25 26  1  0  0  0  0
 20 26  1  0  0  0  0
  1 27  1  0  0  0  0
  1 28  1  0  0  0  0
  1 29  1  0  0  0  0
  2 30  1  0  0  0  0
  3 31  1  0  0  0  0
  3 32  1  0  0  0  0
  3 33  1  0  0  0  0
  4 34  1  0  0  0  0
  4 35  1  0  0  0  0
  5 36  1  0  0  0  0
  8 37  1  0  0  0  0
  9 38  1  0  0  0  0
 10 39  1  0  0  0  0
 11 40  1  0  0  0  0
 12 41  1  0  0  0  0
 12 42  1  0  0  0  0
 13 43  1  0  0  0  0
 13 44  1  0  0  0  0
 14 45  1  0  0  0  0
 14 46  1  0  0  0  0
 15 47  1  0  0  0  0
 15 48  1  0  0  0  0
 16 49  1  0  0  0  0
 17 50  1  0  0  0  0
 19 51  1  0  0  0  0
 22 52  1  0  0  0  0
 23 53  1  0  0  0  0
 25 54  1  0  0  0  0
 25 55  1  0  0  0  0
M  END
$$$$
