C21H22O6
APtclcactv06281817103D 0   0.00000     0.00000
 
 49 50  0  0  0  0  0  0  0  0999 V2000
    6.8423   -1.2358    2.8138 C   0  0  0  0  0  0  0  0  0  0  0  0
    7.5042   -1.2510    1.5474 O   0  0  0  0  0  0  0  0  0  0  0  0
    6.8783   -0.6233    0.5161 C   0  0  0  0  0  0  0  0  0  0  0  0
    7.4657   -0.5990   -0.7451 C   0  0  0  0  0  0  0  0  0  0  0  0
    6.8240    0.0419   -1.7927 C   0  0  0  0  0  0  0  0  0  0  0  0
    5.6029    0.6554   -1.5836 C   0  0  0  0  0  0  0  0  0  0  0  0
    5.0195    0.6316   -0.3305 C   0  0  0  0  0  0  0  0  0  0  0  0
    5.6515   -0.0114    0.7175 C   0  0  0  0  0  0  0  0  0  0  0  0
    3.6884    1.3024   -0.1080 C   0  0  0  0  0  0  0  0  0  0  0  0
    2.5623    0.3005   -0.3706 C   0  0  0  0  0  0  0  0  0  0  0  0
    1.2312    0.9713   -0.1481 C   0  0  0  0  0  0  0  0  0  0  0  0
    1.1875    2.1395    0.1884 O   0  0  0  0  0  0  0  0  0  0  0  0
    0.0501    0.2531   -0.3280 C   0  0  0  0  0  0  0  0  0  0  0  0
   -1.1721    0.8690   -0.1237 C   0  0  0  0  0  0  0  0  0  0  0  0
   -2.3706    0.1403   -0.3062 C   0  0  0  0  0  0  0  0  0  0  0  0
   -3.5607    0.7094   -0.0060 C   0  0  0  0  0  0  0  0  0  0  0  0
   -4.7946   -0.0840   -0.0832 C   0  0  0  0  0  0  0  0  0  0  0  0
   -6.0274    0.5028    0.2270 C   0  0  0  0  0  0  0  0  0  0  0  0
   -7.1836   -0.2484    0.1525 C   0  0  0  0  0  0  0  0  0  0  0  0
   -7.1221   -1.5879   -0.2303 C   0  0  0  0  0  0  0  0  0  0  0  0
   -5.8998   -2.1712   -0.5378 C   0  0  0  0  0  0  0  0  0  0  0  0
   -4.7421   -1.4278   -0.4728 C   0  0  0  0  0  0  0  0  0  0  0  0
   -8.2610   -2.3245   -0.3023 O   0  0  0  0  0  0  0  0  0  0  0  0
   -8.3828    0.3182    0.4531 O   0  0  0  0  0  0  0  0  0  0  0  0
   -8.3718    1.6943    0.8381 C   0  0  0  0  0  0  0  0  0  0  0  0
   -1.2207    2.1678    0.2505 O   0  0  0  0  0  0  0  0  0  0  0  0
    8.6672   -1.2026   -0.9490 O   0  0  0  0  0  0  0  0  0  0  0  0
    6.7040   -0.2047    3.1392 H   0  0  0  0  0  0  0  0  0  0  0  0
    5.8708   -1.7212    2.7219 H   0  0  0  0  0  0  0  0  0  0  0  0
    7.4474   -1.7699    3.5465 H   0  0  0  0  0  0  0  0  0  0  0  0
    7.2779    0.0625   -2.7725 H   0  0  0  0  0  0  0  0  0  0  0  0
    5.1038    1.1546   -2.4010 H   0  0  0  0  0  0  0  0  0  0  0  0
    5.1936   -0.0285    1.6955 H   0  0  0  0  0  0  0  0  0  0  0  0
    3.6274    1.6562    0.9212 H   0  0  0  0  0  0  0  0  0  0  0  0
    3.5891    2.1475   -0.7892 H   0  0  0  0  0  0  0  0  0  0  0  0
    2.6233   -0.0532   -1.3998 H   0  0  0  0  0  0  0  0  0  0  0  0
    2.6616   -0.5446    0.3106 H   0  0  0  0  0  0  0  0  0  0  0  0
    0.0889   -0.7840   -0.6268 H   0  0  0  0  0  0  0  0  0  0  0  0
   -2.3356   -0.8704   -0.6852 H   0  0  0  0  0  0  0  0  0  0  0  0
   -3.6036    1.7471    0.2904 H   0  0  0  0  0  0  0  0  0  0  0  0
   -6.0738    1.5401    0.5240 H   0  0  0  0  0  0  0  0  0  0  0  0
   -5.8576   -3.2090   -0.8334 H   0  0  0  0  0  0  0  0  0  0  0  0
   -3.7930   -1.8840   -0.7128 H   0  0  0  0  0  0  0  0  0  0  0  0
   -8.6906   -2.3009   -1.1683 H   0  0  0  0  0  0  0  0  0  0  0  0
   -7.7581    1.8171    1.7305 H   0  0  0  0  0  0  0  0  0  0  0  0
   -7.9590    2.2951    0.0277 H   0  0  0  0  0  0  0  0  0  0  0  0
   -9.3901    2.0205    1.0498 H   0  0  0  0  0  0  0  0  0  0  0  0
   -2.1121    2.4877    0.4457 H   0  0  0  0  0  0  0  0  0  0  0  0
    8.6014   -2.1299   -1.2150 H   0  0  0  0  0  0  0  0  0  0  0  0
  1  2  1  0  0  0  0
  2  3  1  0  0  0  0
  3  4  2  0  0  0  0
  4  5  1  0  0  0  0
  5  6  2  0  0  0  0
  6  7  1  0  0  0  0
  7  8  2  0  0  0  0
  3  8  1  0  0  0  0
  7  9  1  0  0  0  0
  9 10  1  0  0  0  0
 10 11  1  0  0  0  0
 11 12  2  0  0  0  0
 11 13  1  0  0  0  0
 13 14  2  0  0  0  0
 14 15  1  0  0  0  0
 15 16  2  0  0  0  0
 16 17  1  0  0  0  0
 17 18  2  0  0  0  0
 18 19  1  0  0  0  0
 19 20  2  0  0  0  0
 20 21  1  0  0  0  0
 21 22  2  0  0  0  0
 17 22  1  0  0  0  0
 20 23  1  0  0  0  0
 19 24  1  0  0  0  0
 24 25  1  0  0  0  0
 14 26  1  0  0  0  0
  4 27  1  0  0  0  0
  1 28  1  0  0  0  0
  1 29  1  0  0  0  0
  1 30  1  0  0  0  0
  5 31  1  0  0  0  0
  6 32  1  0  0  0  0
  8 33  1  0  0  0  0
  9 34  1  0  0  0  0
  9 35  1  0  0  0  0
 10 36  1  0  0  0  0
 10 37  1  0  0  0  0
 13 38  1  0  0  0  0
 15 39  1  0  0  0  0
 16 40  1  0  0  0  0
 18 41  1  0  0  0  0
 21 42  1  0  0  0  0
 22 43  1  0  0  0  0
 23 44  1  0  0  0  0
 25 45  1  0  0  0  0
 25 46  1  0  0  0  0
 25 47  1  0  0  0  0
 26 48  1  0  0  0  0
 27 49  1  0  0  0  0
M  END
$$$$
