C17H22N2O10S2
APtclcactv06281817103D 0   0.00000     0.00000
 
 53 55  0  0  0  0  0  0  0  0999 V2000
   -2.4198    2.3714    3.1661 C   0  0  0  0  0  0  0  0  0  0  0  0
   -2.0797    2.0080    1.8265 O   0  0  0  0  0  0  0  0  0  0  0  0
   -3.0836    2.0176    0.9110 C   0  0  0  0  0  0  0  0  0  0  0  0
   -4.3655    2.3674    1.2883 C   0  0  0  0  0  0  0  0  0  0  0  0
   -5.3924    2.3779    0.3548 C   0  0  0  0  0  0  0  0  0  0  0  0
   -5.1525    2.0410   -0.9588 C   0  0  0  0  0  0  0  0  0  0  0  0
   -3.8688    1.6849   -1.3634 C   0  0  0  0  0  0  0  0  0  0  0  0
   -2.8245    1.6785   -0.4230 C   0  0  0  0  0  0  0  0  0  0  0  0
   -1.6231    1.2668   -1.1530 C   0  0  0  0  0  0  0  0  0  0  0  0
   -1.9903    1.0586   -2.4270 C   0  0  0  0  0  0  0  0  0  0  0  0
   -3.3288    1.3082   -2.5727 N   0  0  0  0  0  0  0  0  0  0  0  0
   -0.2375    1.1081   -0.5820 C   0  0  0  0  0  0  0  0  0  0  0  0
   -0.0976   -0.2652    0.0227 C   0  0  0  0  0  0  0  0  0  0  0  0
   -1.0929   -1.0900   -0.0091 N   0  0  0  0  0  0  0  0  0  0  0  0
   -0.9283   -2.4164    0.4583 O   0  0  0  0  0  0  0  0  0  0  0  0
   -2.1855   -3.2685    0.3583 S   0  0  0  0  0  0  0  0  0  0  0  0
   -1.9043   -4.4807    1.0443 O   0  0  0  0  0  0  0  0  0  0  0  0
   -3.2737   -2.4191    0.6953 O   0  0  0  0  0  0  0  0  0  0  0  0
   -2.3652   -3.6360   -1.1077 O   0  0  0  0  0  0  0  0  0  0  0  0
    1.4222   -0.7469    0.7729 S   0  0  0  0  0  0  0  0  0  0  0  0
    2.3565    0.7945    0.6080 C   0  0  0  0  0  0  0  0  0  0  0  0
    3.5713    0.7573    1.5389 C   0  0  0  0  0  0  0  0  0  0  0  0
    4.4924   -0.3919    1.1180 C   0  0  0  0  0  0  0  0  0  0  0  0
    4.8899   -0.2019   -0.3491 C   0  0  0  0  0  0  0  0  0  0  0  0
    3.6242   -0.1276   -1.2071 C   0  0  0  0  0  0  0  0  0  0  0  0
    2.7979    0.9420   -0.7432 O   0  0  0  0  0  0  0  0  0  0  0  0
    4.0108    0.1223   -2.6662 C   0  0  0  0  0  0  0  0  0  0  0  0
    2.8399    0.0757   -3.4840 O   0  0  0  0  0  0  0  0  0  0  0  0
    5.6336    1.0103   -0.4892 O   0  0  0  0  0  0  0  0  0  0  0  0
    5.6647   -0.3888    1.9351 O   0  0  0  0  0  0  0  0  0  0  0  0
    4.2800    1.9949    1.4488 O   0  0  0  0  0  0  0  0  0  0  0  0
   -2.8169    3.3864    3.1775 H   0  0  0  0  0  0  0  0  0  0  0  0
   -3.1724    1.6824    3.5495 H   0  0  0  0  0  0  0  0  0  0  0  0
   -1.5295    2.3225    3.7930 H   0  0  0  0  0  0  0  0  0  0  0  0
   -4.5696    2.6338    2.3149 H   0  0  0  0  0  0  0  0  0  0  0  0
   -6.3907    2.6528    0.6619 H   0  0  0  0  0  0  0  0  0  0  0  0
   -5.9604    2.0528   -1.6754 H   0  0  0  0  0  0  0  0  0  0  0  0
   -1.3278    0.7450   -3.2202 H   0  0  0  0  0  0  0  0  0  0  0  0
   -3.8238    1.2262   -3.4028 H   0  0  0  0  0  0  0  0  0  0  0  0
    0.4991    1.2322   -1.3758 H   0  0  0  0  0  0  0  0  0  0  0  0
   -0.0730    1.8624    0.1875 H   0  0  0  0  0  0  0  0  0  0  0  0
   -3.1432   -4.1826   -1.2836 H   0  0  0  0  0  0  0  0  0  0  0  0
    1.7187    1.6367    0.8762 H   0  0  0  0  0  0  0  0  0  0  0  0
    3.2390    0.6006    2.5652 H   0  0  0  0  0  0  0  0  0  0  0  0
    3.9681   -1.3405    1.2338 H   0  0  0  0  0  0  0  0  0  0  0  0
    5.5006   -1.0446   -0.6731 H   0  0  0  0  0  0  0  0  0  0  0  0
    3.0781   -1.0679   -1.1315 H   0  0  0  0  0  0  0  0  0  0  0  0
    4.4776    1.1032   -2.7555 H   0  0  0  0  0  0  0  0  0  0  0  0
    4.7127   -0.6452   -2.9926 H   0  0  0  0  0  0  0  0  0  0  0  0
    3.0103    0.2261   -4.4239 H   0  0  0  0  0  0  0  0  0  0  0  0
    6.4477    1.0347    0.0320 H   0  0  0  0  0  0  0  0  0  0  0  0
    5.4863   -0.4982    2.8792 H   0  0  0  0  0  0  0  0  0  0  0  0
    3.7547    2.7679    1.6968 H   0  0  0  0  0  0  0  0  0  0  0  0
  1  2  1  0  0  0  0
  2  3  1  0  0  0  0
  3  4  2  0  0  0  0
  4  5  1  0  0  0  0
  5  6  2  0  0  0  0
  6  7  1  0  0  0  0
  7  8  2  0  0  0  0
  3  8  1  0  0  0  0
  8  9  1  0  0  0  0
  9 10  2  0  0  0  0
 10 11  1  0  0  0  0
  7 11  1  0  0  0  0
  9 12  1  0  0  0  0
 12 13  1  0  0  0  0
 13 14  2  0  0  0  0
 14 15  1  0  0  0  0
 15 16  1  0  0  0  0
 16 17  2  0  0  0  0
 16 18  2  0  0  0  0
 16 19  1  0  0  0  0
 13 20  1  0  0  0  0
 20 21  1  0  0  0  0
 21 22  1  0  0  0  0
 22 23  1  0  0  0  0
 23 24  1  0  0  0  0
 24 25  1  0  0  0  0
 25 26  1  0  0  0  0
 21 26  1  0  0  0  0
 25 27  1  0  0  0  0
 27 28  1  0  0  0  0
 24 29  1  0  0  0  0
 23 30  1  0  0  0  0
 22 31  1  0  0  0  0
  1 32  1  0  0  0  0
  1 33  1  0  0  0  0
  1 34  1  0  0  0  0
  4 35  1  0  0  0  0
  5 36  1  0  0  0  0
  6 37  1  0  0  0  0
 10 38  1  0  0  0  0
 11 39  1  0  0  0  0
 12 40  1  0  0  0  0
 12 41  1  0  0  0  0
 19 42  1  0  0  0  0
 21 43  1  0  0  0  0
 22 44  1  0  0  0  0
 23 45  1  0  0  0  0
 24 46  1  0  0  0  0
 25 47  1  0  0  0  0
 27 48  1  0  0  0  0
 27 49  1  0  0  0  0
 28 50  1  0  0  0  0
 29 51  1  0  0  0  0
 30 52  1  0  0  0  0
 31 53  1  0  0  0  0
M  END
$$$$
