C11H12O3
APtclcactv06281817103D 0   0.00000     0.00000
 
 26 26  0  0  0  0  0  0  0  0999 V2000
    3.3606    2.4903   -0.0013 C   0  0  0  0  0  0  0  0  0  0  0  0
    3.1478    1.0773   -0.0007 O   0  0  0  0  0  0  0  0  0  0  0  0
    1.8597    0.6478   -0.0007 C   0  0  0  0  0  0  0  0  0  0  0  0
    1.5826   -0.7193   -0.0001 C   0  0  0  0  0  0  0  0  0  0  0  0
    0.2741   -1.1590    0.0003 C   0  0  0  0  0  0  0  0  0  0  0  0
   -0.7733   -0.2288    0.0001 C   0  0  0  0  0  0  0  0  0  0  0  0
   -0.4865    1.1422   -0.0006 C   0  0  0  0  0  0  0  0  0  0  0  0
    0.8219    1.5712    0.0044 C   0  0  0  0  0  0  0  0  0  0  0  0
   -2.1669   -0.6894   -0.0000 C   0  0  0  0  0  0  0  0  0  0  0  0
   -3.1789    0.2126   -0.0002 C   0  0  0  0  0  0  0  0  0  0  0  0
   -4.5156   -0.2292   -0.0003 C   0  0  0  0  0  0  0  0  0  0  0  0
   -5.4224    0.5791   -0.0005 O   0  0  0  0  0  0  0  0  0  0  0  0
    2.6021   -1.6194   -0.0003 O   0  0  0  0  0  0  0  0  0  0  0  0
    2.2457   -3.0033    0.0003 C   0  0  0  0  0  0  0  0  0  0  0  0
    2.9067    2.9257   -0.8916 H   0  0  0  0  0  0  0  0  0  0  0  0
    2.9063    2.9266    0.8884 H   0  0  0  0  0  0  0  0  0  0  0  0
    4.4309    2.6967   -0.0012 H   0  0  0  0  0  0  0  0  0  0  0  0
    0.0585   -2.2172    0.0004 H   0  0  0  0  0  0  0  0  0  0  0  0
   -1.2912    1.8625   -0.0007 H   0  0  0  0  0  0  0  0  0  0  0  0
    1.0420    2.6286    0.0043 H   0  0  0  0  0  0  0  0  0  0  0  0
   -2.3862   -1.7469    0.0001 H   0  0  0  0  0  0  0  0  0  0  0  0
   -2.9597    1.2701   -0.0003 H   0  0  0  0  0  0  0  0  0  0  0  0
   -4.7348   -1.2867   -0.0002 H   0  0  0  0  0  0  0  0  0  0  0  0
    3.1502   -3.6114    0.0001 H   0  0  0  0  0  0  0  0  0  0  0  0
    1.6579   -3.2267    0.8907 H   0  0  0  0  0  0  0  0  0  0  0  0
    1.6570   -3.2273   -0.8893 H   0  0  0  0  0  0  0  0  0  0  0  0
  1  2  1  0  0  0  0
  2  3  1  0  0  0  0
  3  4  2  0  0  0  0
  4  5  1  0  0  0  0
  5  6  2  0  0  0  0
  6  7  1  0  0  0  0
  7  8  2  0  0  0  0
  3  8  1  0  0  0  0
  6  9  1  0  0  0  0
  9 10  2  0  0  0  0
 10 11  1  0  0  0  0
 11 12  2  0  0  0  0
  4 13  1  0  0  0  0
 13 14  1  0  0  0  0
  1 15  1  0  0  0  0
  1 16  1  0  0  0  0
  1 17  1  0  0  0  0
  5 18  1  0  0  0  0
  7 19  1  0  0  0  0
  8 20  1  0  0  0  0
  9 21  1  0  0  0  0
 10 22  1  0  0  0  0
 11 23  1  0  0  0  0
 14 24  1  0  0  0  0
 14 25  1  0  0  0  0
 14 26  1  0  0  0  0
M  END
$$$$
