C15H16O4
APtclcactv06281817103D 0   0.00000     0.00000
 
 35 36  0  0  0  0  0  0  0  0999 V2000
    4.7111    1.5244   -1.2499 C   0  0  0  0  0  0  0  0  0  0  0  0
    4.1969    0.8066   -0.0004 C   0  0  0  0  0  0  0  0  0  0  0  0
    4.7109    1.5254    1.2486 C   0  0  0  0  0  0  0  0  0  0  0  0
    2.6899    0.8152   -0.0006 C   0  0  0  0  0  0  0  0  0  0  0  0
    2.0203   -0.3295   -0.0002 C   0  0  0  0  0  0  0  0  0  0  0  0
    0.5430   -0.3211   -0.0004 C   0  0  0  0  0  0  0  0  0  0  0  0
   -0.1672   -1.5343   -0.0000 C   0  0  0  0  0  0  0  0  0  0  0  0
   -1.5498   -1.5357   -0.0001 C   0  0  0  0  0  0  0  0  0  0  0  0
   -2.2476   -0.3366   -0.0002 C   0  0  0  0  0  0  0  0  0  0  0  0
   -1.5418    0.8825   -0.0001 C   0  0  0  0  0  0  0  0  0  0  0  0
   -0.1447    0.8852    0.0049 C   0  0  0  0  0  0  0  0  0  0  0  0
   -2.2952    2.1390   -0.0002 C   0  0  0  0  0  0  0  0  0  0  0  0
   -3.6519    2.0741   -0.0003 C   0  0  0  0  0  0  0  0  0  0  0  0
   -4.2937    0.8185   -0.0004 C   0  0  0  0  0  0  0  0  0  0  0  0
   -5.5108    0.7745   -0.0005 O   0  0  0  0  0  0  0  0  0  0  0  0
   -3.5983   -0.3293   -0.0008 O   0  0  0  0  0  0  0  0  0  0  0  0
    0.5083   -2.7110    0.0000 O   0  0  0  0  0  0  0  0  0  0  0  0
   -0.2729   -3.9076    0.0004 C   0  0  0  0  0  0  0  0  0  0  0  0
    4.6655   -0.5434    0.0002 O   0  0  0  0  0  0  0  0  0  0  0  0
    5.8011    1.5182   -1.2497 H   0  0  0  0  0  0  0  0  0  0  0  0
    4.3450    1.0123   -2.1397 H   0  0  0  0  0  0  0  0  0  0  0  0
    4.3537    2.5541   -1.2503 H   0  0  0  0  0  0  0  0  0  0  0  0
    4.3534    2.5551    1.2482 H   0  0  0  0  0  0  0  0  0  0  0  0
    4.3445    1.0139    2.1388 H   0  0  0  0  0  0  0  0  0  0  0  0
    5.8008    1.5191    1.2488 H   0  0  0  0  0  0  0  0  0  0  0  0
    2.1553    1.7535   -0.0010 H   0  0  0  0  0  0  0  0  0  0  0  0
    2.5549   -1.2679    0.0002 H   0  0  0  0  0  0  0  0  0  0  0  0
   -2.0877   -2.4722   -0.0006 H   0  0  0  0  0  0  0  0  0  0  0  0
    0.3970    1.8195    0.0053 H   0  0  0  0  0  0  0  0  0  0  0  0
   -1.7857    3.0912    0.0003 H   0  0  0  0  0  0  0  0  0  0  0  0
   -4.2375    2.9815    0.0000 H   0  0  0  0  0  0  0  0  0  0  0  0
    0.3889   -4.7736    0.0004 H   0  0  0  0  0  0  0  0  0  0  0  0
   -0.9016   -3.9307    0.8906 H   0  0  0  0  0  0  0  0  0  0  0  0
   -0.9020   -3.9310   -0.8894 H   0  0  0  0  0  0  0  0  0  0  0  0
    5.6291   -0.6253    0.0003 H   0  0  0  0  0  0  0  0  0  0  0  0
  1  2  1  0  0  0  0
  2  3  1  0  0  0  0
  2  4  1  0  0  0  0
  4  5  2  0  0  0  0
  5  6  1  0  0  0  0
  6  7  2  0  0  0  0
  7  8  1  0  0  0  0
  8  9  2  0  0  0  0
  9 10  1  0  0  0  0
 10 11  2  0  0  0  0
  6 11  1  0  0  0  0
 10 12  1  0  0  0  0
 12 13  2  0  0  0  0
 13 14  1  0  0  0  0
 14 15  2  0  0  0  0
 14 16  1  0  0  0  0
  9 16  1  0  0  0  0
  7 17  1  0  0  0  0
 17 18  1  0  0  0  0
  2 19  1  0  0  0  0
  1 20  1  0  0  0  0
  1 21  1  0  0  0  0
  1 22  1  0  0  0  0
  3 23  1  0  0  0  0
  3 24  1  0  0  0  0
  3 25  1  0  0  0  0
  4 26  1  0  0  0  0
  5 27  1  0  0  0  0
  8 28  1  0  0  0  0
 11 29  1  0  0  0  0
 12 30  1  0  0  0  0
 13 31  1  0  0  0  0
 18 32  1  0  0  0  0
 18 33  1  0  0  0  0
 18 34  1  0  0  0  0
 19 35  1  0  0  0  0
M  END
$$$$
