C18H22O5
APtclcactv06281816453D 0   0.00000     0.00000
 
 45 46  0  0  0  0  0  0  0  0999 V2000
    1.0062    4.4292    0.3812 C   0  0  0  0  0  0  0  0  0  0  0  0
    1.0616    3.0254   -0.2248 C   0  0  0  0  0  0  0  0  0  0  0  0
    1.9886    2.1431    0.6147 C   0  0  0  0  0  0  0  0  0  0  0  0
    2.9038    1.3376   -0.3091 C   0  0  0  0  0  0  0  0  0  0  0  0
    3.8404    0.4632    0.5277 C   0  0  0  0  0  0  0  0  0  0  0  0
    3.7889   -0.9552    0.0184 C   0  0  0  0  0  0  0  0  0  0  0  0
    4.4942   -1.2941   -0.9014 O   0  0  0  0  0  0  0  0  0  0  0  0
    2.8554   -1.9487    0.6605 C   0  0  0  0  0  0  0  0  0  0  0  0
    2.1319   -2.7496   -0.4229 C   0  0  0  0  0  0  0  0  0  0  0  0
    1.1031   -3.6784    0.2267 C   0  0  0  0  0  0  0  0  0  0  0  0
   -0.2572   -3.0229    0.1824 C   0  0  0  0  0  0  0  0  0  0  0  0
   -0.3378   -1.7079    0.0671 C   0  0  0  0  0  0  0  0  0  0  0  0
   -1.6307   -1.0056    0.0144 C   0  0  0  0  0  0  0  0  0  0  0  0
   -2.8330   -1.6931    0.0653 C   0  0  0  0  0  0  0  0  0  0  0  0
   -4.0353   -0.9991    0.0092 C   0  0  0  0  0  0  0  0  0  0  0  0
   -4.0442    0.3853   -0.0970 C   0  0  0  0  0  0  0  0  0  0  0  0
   -2.8523    1.0914   -0.1467 C   0  0  0  0  0  0  0  0  0  0  0  0
   -1.6341    0.4063   -0.0899 C   0  0  0  0  0  0  0  0  0  0  0  0
   -0.3517    1.1133   -0.1314 C   0  0  0  0  0  0  0  0  0  0  0  0
    0.6768    0.4678   -0.0710 O   0  0  0  0  0  0  0  0  0  0  0  0
   -0.2734    2.4491   -0.2362 O   0  0  0  0  0  0  0  0  0  0  0  0
   -2.8673    2.4437   -0.2513 O   0  0  0  0  0  0  0  0  0  0  0  0
   -5.2089   -1.6788    0.0591 O   0  0  0  0  0  0  0  0  0  0  0  0
    2.0073    4.8603    0.3911 H   0  0  0  0  0  0  0  0  0  0  0  0
    0.3460    5.0573   -0.2168 H   0  0  0  0  0  0  0  0  0  0  0  0
    0.6260    4.3700    1.4010 H   0  0  0  0  0  0  0  0  0  0  0  0
    1.4412    3.0844   -1.2448 H   0  0  0  0  0  0  0  0  0  0  0  0
    2.5941    2.7712    1.2681 H   0  0  0  0  0  0  0  0  0  0  0  0
    1.3911    1.4606    1.2191 H   0  0  0  0  0  0  0  0  0  0  0  0
    2.2983    0.7038   -0.9570 H   0  0  0  0  0  0  0  0  0  0  0  0
    3.4944    2.0204   -0.9199 H   0  0  0  0  0  0  0  0  0  0  0  0
    4.8595    0.8415    0.4474 H   0  0  0  0  0  0  0  0  0  0  0  0
    3.5247    0.4867    1.5707 H   0  0  0  0  0  0  0  0  0  0  0  0
    3.4274   -2.6279    1.2926 H   0  0  0  0  0  0  0  0  0  0  0  0
    2.1232   -1.4178    1.2690 H   0  0  0  0  0  0  0  0  0  0  0  0
    1.6247   -2.0650   -1.1027 H   0  0  0  0  0  0  0  0  0  0  0  0
    2.8564   -3.3436   -0.9800 H   0  0  0  0  0  0  0  0  0  0  0  0
    1.0702   -4.6223   -0.3174 H   0  0  0  0  0  0  0  0  0  0  0  0
    1.3839   -3.8644    1.2633 H   0  0  0  0  0  0  0  0  0  0  0  0
   -1.1539   -3.6215    0.2445 H   0  0  0  0  0  0  0  0  0  0  0  0
    0.5734   -1.1310    0.0103 H   0  0  0  0  0  0  0  0  0  0  0  0
   -2.8354   -2.7699    0.1483 H   0  0  0  0  0  0  0  0  0  0  0  0
   -4.9845    0.9147   -0.1414 H   0  0  0  0  0  0  0  0  0  0  0  0
   -2.8752    2.9039    0.5992 H   0  0  0  0  0  0  0  0  0  0  0  0
   -5.5509   -1.8079    0.9544 H   0  0  0  0  0  0  0  0  0  0  0  0
  1  2  1  0  0  0  0
  2  3  1  0  0  0  0
  3  4  1  0  0  0  0
  4  5  1  0  0  0  0
  5  6  1  0  0  0  0
  6  7  2  0  0  0  0
  6  8  1  0  0  0  0
  8  9  1  0  0  0  0
  9 10  1  0  0  0  0
 10 11  1  0  0  0  0
 11 12  2  0  0  0  0
 12 13  1  0  0  0  0
 13 14  2  0  0  0  0
 14 15  1  0  0  0  0
 15 16  2  0  0  0  0
 16 17  1  0  0  0  0
 17 18  2  0  0  0  0
 13 18  1  0  0  0  0
 18 19  1  0  0  0  0
 19 20  2  0  0  0  0
 19 21  1  0  0  0  0
  2 21  1  0  0  0  0
 17 22  1  0  0  0  0
 15 23  1  0  0  0  0
  1 24  1  0  0  0  0
  1 25  1  0  0  0  0
  1 26  1  0  0  0  0
  2 27  1  0  0  0  0
  3 28  1  0  0  0  0
  3 29  1  0  0  0  0
  4 30  1  0  0  0  0
  4 31  1  0  0  0  0
  5 32  1  0  0  0  0
  5 33  1  0  0  0  0
  8 34  1  0  0  0  0
  8 35  1  0  0  0  0
  9 36  1  0  0  0  0
  9 37  1  0  0  0  0
 10 38  1  0  0  0  0
 10 39  1  0  0  0  0
 11 40  1  0  0  0  0
 12 41  1  0  0  0  0
 14 42  1  0  0  0  0
 16 43  1  0  0  0  0
 22 44  1  0  0  0  0
 23 45  1  0  0  0  0
M  END
$$$$
