C17H12N2O4
APtclcactv06281817103D 0   0.00000     0.00000
 
 35 38  0  0  0  0  0  0  0  0999 V2000
   -4.3753   -2.7880    0.1206 C   0  0  0  0  0  0  0  0  0  0  0  0
   -3.4652   -3.8218   -0.0383 C   0  0  0  0  0  0  0  0  0  0  0  0
   -2.1185   -3.5571   -0.1637 C   0  0  0  0  0  0  0  0  0  0  0  0
   -1.6604   -2.2436   -0.1309 C   0  0  0  0  0  0  0  0  0  0  0  0
   -2.5835   -1.1978    0.0301 C   0  0  0  0  0  0  0  0  0  0  0  0
   -3.9416   -1.4804    0.1551 C   0  0  0  0  0  0  0  0  0  0  0  0
   -1.8007    0.0481    0.0247 C   0  0  0  0  0  0  0  0  0  0  0  0
   -2.1164    1.4005    0.1405 C   0  0  0  0  0  0  0  0  0  0  0  0
   -1.0885    2.3385    0.0901 C   0  0  0  0  0  0  0  0  0  0  0  0
    0.1769    1.9584   -0.0664 N   0  0  0  0  0  0  0  0  0  0  0  0
    0.5222    0.6863   -0.1805 C   0  0  0  0  0  0  0  0  0  0  0  0
   -0.4566   -0.3253   -0.1392 C   0  0  0  0  0  0  0  0  0  0  0  0
   -0.3947   -1.6955   -0.2299 N   0  0  0  0  0  0  0  0  0  0  0  0
    1.9426    0.3250   -0.3526 C   0  0  0  0  0  0  0  0  0  0  0  0
    2.8708    1.0410   -1.0436 C   0  0  0  0  0  0  0  0  0  0  0  0
    4.0839    0.3321   -0.9473 C   0  0  0  0  0  0  0  0  0  0  0  0
    3.8401   -0.7701   -0.2103 C   0  0  0  0  0  0  0  0  0  0  0  0
    2.5474   -0.7681    0.1520 O   0  0  0  0  0  0  0  0  0  0  0  0
    4.8521   -1.8264    0.1516 C   0  0  0  0  0  0  0  0  0  0  0  0
    5.4818   -1.4795    1.3865 O   0  0  0  0  0  0  0  0  0  0  0  0
   -1.4076    3.7761    0.2115 C   0  0  0  0  0  0  0  0  0  0  0  0
   -2.5601    4.1325    0.3542 O   0  0  0  0  0  0  0  0  0  0  0  0
   -0.4204    4.6916    0.1639 O   0  0  0  0  0  0  0  0  0  0  0  0
   -5.4286   -3.0081    0.2133 H   0  0  0  0  0  0  0  0  0  0  0  0
   -3.8146   -4.8434   -0.0638 H   0  0  0  0  0  0  0  0  0  0  0  0
   -1.4181   -4.3698   -0.2871 H   0  0  0  0  0  0  0  0  0  0  0  0
   -4.6528   -0.6770    0.2787 H   0  0  0  0  0  0  0  0  0  0  0  0
   -3.1415    1.7160    0.2670 H   0  0  0  0  0  0  0  0  0  0  0  0
    0.4217   -2.2059   -0.3479 H   0  0  0  0  0  0  0  0  0  0  0  0
    2.7086    1.9726   -1.5653 H   0  0  0  0  0  0  0  0  0  0  0  0
    5.0305    0.6175   -1.3817 H   0  0  0  0  0  0  0  0  0  0  0  0
    4.3511   -2.7887    0.2569 H   0  0  0  0  0  0  0  0  0  0  0  0
    5.6048   -1.8927   -0.6340 H   0  0  0  0  0  0  0  0  0  0  0  0
    6.1468   -2.1166    1.6815 H   0  0  0  0  0  0  0  0  0  0  0  0
   -0.6781    5.6199    0.2477 H   0  0  0  0  0  0  0  0  0  0  0  0
  1  2  2  0  0  0  0
  2  3  1  0  0  0  0
  3  4  2  0  0  0  0
  4  5  1  0  0  0  0
  5  6  2  0  0  0  0
  1  6  1  0  0  0  0
  5  7  1  0  0  0  0
  7  8  2  0  0  0  0
  8  9  1  0  0  0  0
  9 10  2  0  0  0  0
 10 11  1  0  0  0  0
 11 12  2  0  0  0  0
  7 12  1  0  0  0  0
 12 13  1  0  0  0  0
  4 13  1  0  0  0  0
 11 14  1  0  0  0  0
 14 15  2  0  0  0  0
 15 16  1  0  0  0  0
 16 17  2  0  0  0  0
 17 18  1  0  0  0  0
 14 18  1  0  0  0  0
 17 19  1  0  0  0  0
 19 20  1  0  0  0  0
  9 21  1  0  0  0  0
 21 22  2  0  0  0  0
 21 23  1  0  0  0  0
  1 24  1  0  0  0  0
  2 25  1  0  0  0  0
  3 26  1  0  0  0  0
  6 27  1  0  0  0  0
  8 28  1  0  0  0  0
 13 29  1  0  0  0  0
 15 30  1  0  0  0  0
 16 31  1  0  0  0  0
 19 32  1  0  0  0  0
 19 33  1  0  0  0  0
 20 34  1  0  0  0  0
 23 35  1  0  0  0  0
M  END
$$$$
