C20H18O6
APtclcactv06281817113D 0   0.00000     0.00000
 
 44 46  0  0  0  0  0  0  0  0999 V2000
    4.6549   -2.3579   -1.5176 C   0  0  0  0  0  0  0  0  0  0  0  0
    4.7069   -1.8431   -0.1022 C   0  0  0  0  0  0  0  0  0  0  0  0
    4.4084   -0.5930    0.1515 C   0  0  0  0  0  0  0  0  0  0  0  0
    3.8945    0.2975   -0.9502 C   0  0  0  0  0  0  0  0  0  0  0  0
    2.5925    0.9247   -0.5231 C   0  0  0  0  0  0  0  0  0  0  0  0
    2.5949    2.1444    0.1448 C   0  0  0  0  0  0  0  0  0  0  0  0
    1.4072    2.7381    0.5413 C   0  0  0  0  0  0  0  0  0  0  0  0
    0.1948    2.1168    0.2757 C   0  0  0  0  0  0  0  0  0  0  0  0
    0.1935    0.8780   -0.3910 C   0  0  0  0  0  0  0  0  0  0  0  0
    1.3958    0.2896   -0.8007 C   0  0  0  0  0  0  0  0  0  0  0  0
    1.3877   -0.8992   -1.4550 O   0  0  0  0  0  0  0  0  0  0  0  0
   -1.1039    0.2267   -0.6400 C   0  0  0  0  0  0  0  0  0  0  0  0
   -1.2172   -0.7243   -1.3945 O   0  0  0  0  0  0  0  0  0  0  0  0
   -2.2586    0.7973    0.0816 C   0  0  0  0  0  0  0  0  0  0  0  0
   -2.1018    2.0024    0.6872 C   0  0  0  0  0  0  0  0  0  0  0  0
   -0.9637    2.6958    0.6447 O   0  0  0  0  0  0  0  0  0  0  0  0
   -3.5528    0.0752    0.1429 C   0  0  0  0  0  0  0  0  0  0  0  0
   -4.6840    0.6164   -0.4657 C   0  0  0  0  0  0  0  0  0  0  0  0
   -5.8861   -0.0576   -0.4069 C   0  0  0  0  0  0  0  0  0  0  0  0
   -5.9700   -1.2735    0.2574 C   0  0  0  0  0  0  0  0  0  0  0  0
   -4.8453   -1.8150    0.8644 C   0  0  0  0  0  0  0  0  0  0  0  0
   -3.6390   -1.1488    0.8042 C   0  0  0  0  0  0  0  0  0  0  0  0
   -7.1559   -1.9349    0.3139 O   0  0  0  0  0  0  0  0  0  0  0  0
    3.7746    2.7605    0.4120 O   0  0  0  0  0  0  0  0  0  0  0  0
    5.1024   -2.7663    1.0213 C   0  0  0  0  0  0  0  0  0  0  0  0
    5.0770   -2.0502    2.2576 O   0  0  0  0  0  0  0  0  0  0  0  0
    5.2814   -1.7335   -2.1546 H   0  0  0  0  0  0  0  0  0  0  0  0
    5.0191   -3.3849   -1.5443 H   0  0  0  0  0  0  0  0  0  0  0  0
    3.6265   -2.3276   -1.8776 H   0  0  0  0  0  0  0  0  0  0  0  0
    4.5305   -0.2007    1.1503 H   0  0  0  0  0  0  0  0  0  0  0  0
    4.6249    1.0803   -1.1551 H   0  0  0  0  0  0  0  0  0  0  0  0
    3.7343   -0.2947   -1.8512 H   0  0  0  0  0  0  0  0  0  0  0  0
    1.4250    3.6860    1.0585 H   0  0  0  0  0  0  0  0  0  0  0  0
    1.3304   -0.8183   -2.4169 H   0  0  0  0  0  0  0  0  0  0  0  0
   -2.9383    2.4189    1.2288 H   0  0  0  0  0  0  0  0  0  0  0  0
   -4.6195    1.5626   -0.9824 H   0  0  0  0  0  0  0  0  0  0  0  0
   -6.7630    0.3614   -0.8779 H   0  0  0  0  0  0  0  0  0  0  0  0
   -4.9138   -2.7611    1.3808 H   0  0  0  0  0  0  0  0  0  0  0  0
   -2.7643   -1.5707    1.2767 H   0  0  0  0  0  0  0  0  0  0  0  0
   -7.2989   -2.5494   -0.4189 H   0  0  0  0  0  0  0  0  0  0  0  0
    4.0703    3.3628   -0.2843 H   0  0  0  0  0  0  0  0  0  0  0  0
    4.4021   -3.6002    1.0700 H   0  0  0  0  0  0  0  0  0  0  0  0
    6.1082   -3.1465    0.8422 H   0  0  0  0  0  0  0  0  0  0  0  0
    5.3215   -2.5836    3.0263 H   0  0  0  0  0  0  0  0  0  0  0  0
  1  2  1  0  0  0  0
  2  3  2  0  0  0  0
  3  4  1  0  0  0  0
  4  5  1  0  0  0  0
  5  6  2  0  0  0  0
  6  7  1  0  0  0  0
  7  8  2  0  0  0  0
  8  9  1  0  0  0  0
  9 10  2  0  0  0  0
  5 10  1  0  0  0  0
 10 11  1  0  0  0  0
  9 12  1  0  0  0  0
 12 13  2  0  0  0  0
 12 14  1  0  0  0  0
 14 15  2  0  0  0  0
 15 16  1  0  0  0  0
  8 16  1  0  0  0  0
 14 17  1  0  0  0  0
 17 18  2  0  0  0  0
 18 19  1  0  0  0  0
 19 20  2  0  0  0  0
 20 21  1  0  0  0  0
 21 22  2  0  0  0  0
 17 22  1  0  0  0  0
 20 23  1  0  0  0  0
  6 24  1  0  0  0  0
  2 25  1  0  0  0  0
 25 26  1  0  0  0  0
  1 27  1  0  0  0  0
  1 28  1  0  0  0  0
  1 29  1  0  0  0  0
  3 30  1  0  0  0  0
  4 31  1  0  0  0  0
  4 32  1  0  0  0  0
  7 33  1  0  0  0  0
 11 34  1  0  0  0  0
 15 35  1  0  0  0  0
 18 36  1  0  0  0  0
 19 37  1  0  0  0  0
 21 38  1  0  0  0  0
 22 39  1  0  0  0  0
 23 40  1  0  0  0  0
 24 41  1  0  0  0  0
 25 42  1  0  0  0  0
 25 43  1  0  0  0  0
 26 44  1  0  0  0  0
M  END
$$$$
