C16H12O5
APtclcactv06281817113D 0   0.00000     0.00000
 
 33 35  0  0  0  0  0  0  0  0999 V2000
    5.5991    1.6991   -0.1315 C   0  0  0  0  0  0  0  0  0  0  0  0
    5.3551    0.2913   -0.1116 O   0  0  0  0  0  0  0  0  0  0  0  0
    4.0576   -0.1094   -0.0379 C   0  0  0  0  0  0  0  0  0  0  0  0
    3.7483   -1.4692   -0.0146 C   0  0  0  0  0  0  0  0  0  0  0  0
    2.4249   -1.8837    0.0602 C   0  0  0  0  0  0  0  0  0  0  0  0
    1.4100   -0.9541    0.1122 C   0  0  0  0  0  0  0  0  0  0  0  0
    1.7121    0.4134    0.0897 C   0  0  0  0  0  0  0  0  0  0  0  0
    3.0475    0.8300    0.0195 C   0  0  0  0  0  0  0  0  0  0  0  0
    0.6328    1.4067    0.1445 C   0  0  0  0  0  0  0  0  0  0  0  0
   -0.6630    1.0050    0.0909 C   0  0  0  0  0  0  0  0  0  0  0  0
   -1.8419    1.8808    0.0284 C   0  0  0  0  0  0  0  0  0  0  0  0
   -1.8660    3.0994    0.0139 O   0  0  0  0  0  0  0  0  0  0  0  0
   -2.9885    0.9551   -0.0136 C   0  0  0  0  0  0  0  0  0  0  0  0
   -2.4517   -0.3417    0.0243 C   0  0  0  0  0  0  0  0  0  0  0  0
   -1.1037   -0.2752    0.0794 O   0  0  0  0  0  0  0  0  0  0  0  0
   -3.3177   -1.4281   -0.0034 C   0  0  0  0  0  0  0  0  0  0  0  0
   -4.6860   -1.2217   -0.0674 C   0  0  0  0  0  0  0  0  0  0  0  0
   -5.2066    0.0692   -0.1050 C   0  0  0  0  0  0  0  0  0  0  0  0
   -4.3691    1.1480   -0.0776 C   0  0  0  0  0  0  0  0  0  0  0  0
   -5.5265   -2.2872   -0.0942 O   0  0  0  0  0  0  0  0  0  0  0  0
    4.7445   -2.3910   -0.0656 O   0  0  0  0  0  0  0  0  0  0  0  0
    6.6721    1.8811   -0.1918 H   0  0  0  0  0  0  0  0  0  0  0  0
    5.1064    2.1411   -0.9975 H   0  0  0  0  0  0  0  0  0  0  0  0
    5.2049    2.1491    0.7797 H   0  0  0  0  0  0  0  0  0  0  0  0
    2.1909   -2.9379    0.0772 H   0  0  0  0  0  0  0  0  0  0  0  0
    0.3818   -1.2795    0.1699 H   0  0  0  0  0  0  0  0  0  0  0  0
    3.2859    1.8832    0.0019 H   0  0  0  0  0  0  0  0  0  0  0  0
    0.8695    2.4572    0.2275 H   0  0  0  0  0  0  0  0  0  0  0  0
   -2.9240   -2.4334    0.0246 H   0  0  0  0  0  0  0  0  0  0  0  0
   -6.2752    0.2179   -0.1552 H   0  0  0  0  0  0  0  0  0  0  0  0
   -4.7746    2.1485   -0.1065 H   0  0  0  0  0  0  0  0  0  0  0  0
   -5.8100   -2.5867    0.7805 H   0  0  0  0  0  0  0  0  0  0  0  0
    5.0819   -2.6539    0.8017 H   0  0  0  0  0  0  0  0  0  0  0  0
  1  2  1  0  0  0  0
  2  3  1  0  0  0  0
  3  4  2  0  0  0  0
  4  5  1  0  0  0  0
  5  6  2  0  0  0  0
  6  7  1  0  0  0  0
  7  8  2  0  0  0  0
  3  8  1  0  0  0  0
  7  9  1  0  0  0  0
  9 10  2  0  0  0  0
 10 11  1  0  0  0  0
 11 12  2  0  0  0  0
 11 13  1  0  0  0  0
 13 14  2  0  0  0  0
 14 15  1  0  0  0  0
 10 15  1  0  0  0  0
 14 16  1  0  0  0  0
 16 17  2  0  0  0  0
 17 18  1  0  0  0  0
 18 19  2  0  0  0  0
 13 19  1  0  0  0  0
 17 20  1  0  0  0  0
  4 21  1  0  0  0  0
  1 22  1  0  0  0  0
  1 23  1  0  0  0  0
  1 24  1  0  0  0  0
  5 25  1  0  0  0  0
  6 26  1  0  0  0  0
  8 27  1  0  0  0  0
  9 28  1  0  0  0  0
 16 29  1  0  0  0  0
 18 30  1  0  0  0  0
 19 31  1  0  0  0  0
 20 32  1  0  0  0  0
 21 33  1  0  0  0  0
M  END
$$$$
