C16H14O6
APtclcactv06281817113D 0   0.00000     0.00000
 
 36 38  0  0  0  0  0  0  0  0999 V2000
    5.8212    0.3490   -0.5810 C   0  0  0  0  0  0  0  0  0  0  0  0
    4.7221   -0.5519   -0.4313 O   0  0  0  0  0  0  0  0  0  0  0  0
    3.4938   -0.0012   -0.2488 C   0  0  0  0  0  0  0  0  0  0  0  0
    2.3866   -0.8246   -0.0971 C   0  0  0  0  0  0  0  0  0  0  0  0
    1.1255   -0.2635    0.0899 C   0  0  0  0  0  0  0  0  0  0  0  0
    1.0030    1.1351    0.1137 C   0  0  0  0  0  0  0  0  0  0  0  0
    2.1259    1.9491   -0.0361 C   0  0  0  0  0  0  0  0  0  0  0  0
    3.3579    1.3832   -0.2098 C   0  0  0  0  0  0  0  0  0  0  0  0
   -0.3420    1.7203    0.2935 C   0  0  0  0  0  0  0  0  0  0  0  0
   -0.5047    2.9005    0.5464 O   0  0  0  0  0  0  0  0  0  0  0  0
   -1.4748    0.7885    0.1475 C   0  0  0  0  0  0  0  0  0  0  0  0
   -2.7879    1.2622    0.0335 C   0  0  0  0  0  0  0  0  0  0  0  0
   -3.8266    0.3610   -0.1164 C   0  0  0  0  0  0  0  0  0  0  0  0
   -3.5630   -1.0034   -0.1505 C   0  0  0  0  0  0  0  0  0  0  0  0
   -2.2656   -1.4781   -0.0313 C   0  0  0  0  0  0  0  0  0  0  0  0
   -1.2088   -0.5921    0.1219 C   0  0  0  0  0  0  0  0  0  0  0  0
    0.0491   -1.0605    0.2508 O   0  0  0  0  0  0  0  0  0  0  0  0
   -4.5872   -1.8810   -0.3017 O   0  0  0  0  0  0  0  0  0  0  0  0
   -5.9009   -1.3310   -0.4187 C   0  0  0  0  0  0  0  0  0  0  0  0
   -3.0393    2.5950    0.0703 O   0  0  0  0  0  0  0  0  0  0  0  0
    2.5328   -2.1772   -0.1315 O   0  0  0  0  0  0  0  0  0  0  0  0
    2.7843   -2.8344    1.1122 C   0  0  0  0  0  0  0  0  0  0  0  0
    5.9077    0.9682    0.3118 H   0  0  0  0  0  0  0  0  0  0  0  0
    6.7408   -0.2197   -0.7192 H   0  0  0  0  0  0  0  0  0  0  0  0
    5.6536    0.9855   -1.4498 H   0  0  0  0  0  0  0  0  0  0  0  0
    2.0227    3.0239   -0.0106 H   0  0  0  0  0  0  0  0  0  0  0  0
    4.2276    2.0128   -0.3260 H   0  0  0  0  0  0  0  0  0  0  0  0
   -4.8421    0.7174   -0.2067 H   0  0  0  0  0  0  0  0  0  0  0  0
   -2.0770   -2.5411   -0.0582 H   0  0  0  0  0  0  0  0  0  0  0  0
   -6.6240   -2.1384   -0.5341 H   0  0  0  0  0  0  0  0  0  0  0  0
   -6.1362   -0.7580    0.4782 H   0  0  0  0  0  0  0  0  0  0  0  0
   -5.9447   -0.6769   -1.2896 H   0  0  0  0  0  0  0  0  0  0  0  0
   -3.0211    3.0228   -0.7967 H   0  0  0  0  0  0  0  0  0  0  0  0
    3.7080   -2.4509    1.5455 H   0  0  0  0  0  0  0  0  0  0  0  0
    1.9567   -2.6466    1.7962 H   0  0  0  0  0  0  0  0  0  0  0  0
    2.8801   -3.9070    0.9435 H   0  0  0  0  0  0  0  0  0  0  0  0
  1  2  1  0  0  0  0
  2  3  1  0  0  0  0
  3  4  2  0  0  0  0
  4  5  1  0  0  0  0
  5  6  2  0  0  0  0
  6  7  1  0  0  0  0
  7  8  2  0  0  0  0
  3  8  1  0  0  0  0
  6  9  1  0  0  0  0
  9 10  2  0  0  0  0
  9 11  1  0  0  0  0
 11 12  2  0  0  0  0
 12 13  1  0  0  0  0
 13 14  2  0  0  0  0
 14 15  1  0  0  0  0
 15 16  2  0  0  0  0
 11 16  1  0  0  0  0
 16 17  1  0  0  0  0
  5 17  1  0  0  0  0
 14 18  1  0  0  0  0
 18 19  1  0  0  0  0
 12 20  1  0  0  0  0
  4 21  1  0  0  0  0
 21 22  1  0  0  0  0
  1 23  1  0  0  0  0
  1 24  1  0  0  0  0
  1 25  1  0  0  0  0
  7 26  1  0  0  0  0
  8 27  1  0  0  0  0
 13 28  1  0  0  0  0
 15 29  1  0  0  0  0
 19 30  1  0  0  0  0
 19 31  1  0  0  0  0
 19 32  1  0  0  0  0
 20 33  1  0  0  0  0
 22 34  1  0  0  0  0
 22 35  1  0  0  0  0
 22 36  1  0  0  0  0
M  END
$$$$
