C16H14O6
APtclcactv06281817113D 0   0.00000     0.00000
 
 36 38  0  0  0  0  0  0  0  0999 V2000
    5.7330    1.1525   -0.4876 C   0  0  0  0  0  0  0  0  0  0  0  0
    4.7416    0.1246   -0.4351 O   0  0  0  0  0  0  0  0  0  0  0  0
    3.4579    0.5155   -0.2096 C   0  0  0  0  0  0  0  0  0  0  0  0
    2.4435   -0.4319   -0.1463 C   0  0  0  0  0  0  0  0  0  0  0  0
    1.1294   -0.0159    0.0859 C   0  0  0  0  0  0  0  0  0  0  0  0
    0.8338    1.3456    0.2628 C   0  0  0  0  0  0  0  0  0  0  0  0
    1.8649    2.2744    0.1917 C   0  0  0  0  0  0  0  0  0  0  0  0
    3.1617    1.8599   -0.0369 C   0  0  0  0  0  0  0  0  0  0  0  0
   -0.4281    1.7576    0.5052 O   0  0  0  0  0  0  0  0  0  0  0  0
   -1.4927    0.9638    0.2711 C   0  0  0  0  0  0  0  0  0  0  0  0
   -2.7646    1.5138    0.2013 C   0  0  0  0  0  0  0  0  0  0  0  0
   -3.8646    0.7019   -0.0300 C   0  0  0  0  0  0  0  0  0  0  0  0
   -3.7133   -0.6703   -0.1925 C   0  0  0  0  0  0  0  0  0  0  0  0
   -2.4540   -1.2394   -0.1296 C   0  0  0  0  0  0  0  0  0  0  0  0
   -1.3387   -0.4227    0.0941 C   0  0  0  0  0  0  0  0  0  0  0  0
    0.0210   -0.9904    0.1427 C   0  0  0  0  0  0  0  0  0  0  0  0
    0.2182   -2.1896    0.2245 O   0  0  0  0  0  0  0  0  0  0  0  0
   -2.3007   -2.5786   -0.2839 O   0  0  0  0  0  0  0  0  0  0  0  0
   -5.1029    1.2531   -0.0981 O   0  0  0  0  0  0  0  0  0  0  0  0
   -6.1961    0.3648   -0.3386 C   0  0  0  0  0  0  0  0  0  0  0  0
    2.7261   -1.7500   -0.3091 O   0  0  0  0  0  0  0  0  0  0  0  0
    3.0468   -2.4948    0.8675 C   0  0  0  0  0  0  0  0  0  0  0  0
    5.7523    1.6875    0.4619 H   0  0  0  0  0  0  0  0  0  0  0  0
    6.7099    0.7059   -0.6728 H   0  0  0  0  0  0  0  0  0  0  0  0
    5.4931    1.8480   -1.2918 H   0  0  0  0  0  0  0  0  0  0  0  0
    1.6514    3.3253    0.3200 H   0  0  0  0  0  0  0  0  0  0  0  0
    3.9541    2.5917   -0.0899 H   0  0  0  0  0  0  0  0  0  0  0  0
   -2.8984    2.5780    0.3279 H   0  0  0  0  0  0  0  0  0  0  0  0
   -4.5789   -1.2921   -0.3675 H   0  0  0  0  0  0  0  0  0  0  0  0
   -2.1624   -2.8557   -1.2000 H   0  0  0  0  0  0  0  0  0  0  0  0
   -7.1259    0.9329   -0.3695 H   0  0  0  0  0  0  0  0  0  0  0  0
   -6.0488   -0.1429   -1.2918 H   0  0  0  0  0  0  0  0  0  0  0  0
   -6.2476   -0.3731    0.4620 H   0  0  0  0  0  0  0  0  0  0  0  0
    3.9278   -2.0628    1.3421 H   0  0  0  0  0  0  0  0  0  0  0  0
    2.2063   -2.4589    1.5606 H   0  0  0  0  0  0  0  0  0  0  0  0
    3.2509   -3.5309    0.5973 H   0  0  0  0  0  0  0  0  0  0  0  0
  1  2  1  0  0  0  0
  2  3  1  0  0  0  0
  3  4  2  0  0  0  0
  4  5  1  0  0  0  0
  5  6  2  0  0  0  0
  6  7  1  0  0  0  0
  7  8  2  0  0  0  0
  3  8  1  0  0  0  0
  6  9  1  0  0  0  0
  9 10  1  0  0  0  0
 10 11  2  0  0  0  0
 11 12  1  0  0  0  0
 12 13  2  0  0  0  0
 13 14  1  0  0  0  0
 14 15  2  0  0  0  0
 10 15  1  0  0  0  0
 15 16  1  0  0  0  0
  5 16  1  0  0  0  0
 16 17  2  0  0  0  0
 14 18  1  0  0  0  0
 12 19  1  0  0  0  0
 19 20  1  0  0  0  0
  4 21  1  0  0  0  0
 21 22  1  0  0  0  0
  1 23  1  0  0  0  0
  1 24  1  0  0  0  0
  1 25  1  0  0  0  0
  7 26  1  0  0  0  0
  8 27  1  0  0  0  0
 11 28  1  0  0  0  0
 13 29  1  0  0  0  0
 18 30  1  0  0  0  0
 20 31  1  0  0  0  0
 20 32  1  0  0  0  0
 20 33  1  0  0  0  0
 22 34  1  0  0  0  0
 22 35  1  0  0  0  0
 22 36  1  0  0  0  0
M  END
$$$$
