C22H22O11
APtclcactv06281817113D 0   0.00000     0.00000
 
 55 58  0  0  0  0  0  0  0  0999 V2000
    9.1930    0.8333   -0.5365 C   0  0  0  0  0  0  0  0  0  0  0  0
    8.0772    1.7106   -0.3707 O   0  0  0  0  0  0  0  0  0  0  0  0
    6.8540    1.1346   -0.2386 C   0  0  0  0  0  0  0  0  0  0  0  0
    5.7236    1.9332   -0.0735 C   0  0  0  0  0  0  0  0  0  0  0  0
    4.4788    1.3492    0.0606 C   0  0  0  0  0  0  0  0  0  0  0  0
    4.3566   -0.0427    0.0302 C   0  0  0  0  0  0  0  0  0  0  0  0
    5.4942   -0.8373   -0.1356 C   0  0  0  0  0  0  0  0  0  0  0  0
    6.7322   -0.2477   -0.2740 C   0  0  0  0  0  0  0  0  0  0  0  0
    3.0300   -0.6717    0.1734 C   0  0  0  0  0  0  0  0  0  0  0  0
    2.9424   -2.0287    0.1400 C   0  0  0  0  0  0  0  0  0  0  0  0
    1.6784   -2.6499    0.2762 C   0  0  0  0  0  0  0  0  0  0  0  0
    1.5629   -3.8646    0.2512 O   0  0  0  0  0  0  0  0  0  0  0  0
    0.5077   -1.7734    0.4498 C   0  0  0  0  0  0  0  0  0  0  0  0
   -0.7813   -2.3015    0.5926 C   0  0  0  0  0  0  0  0  0  0  0  0
   -1.8544   -1.4443    0.7539 C   0  0  0  0  0  0  0  0  0  0  0  0
   -1.6528   -0.0688    0.7738 C   0  0  0  0  0  0  0  0  0  0  0  0
   -0.3792    0.4609    0.6324 C   0  0  0  0  0  0  0  0  0  0  0  0
    0.7087   -0.3822    0.4702 C   0  0  0  0  0  0  0  0  0  0  0  0
    1.9559    0.1169    0.3372 O   0  0  0  0  0  0  0  0  0  0  0  0
   -2.7132    0.7638    0.9327 O   0  0  0  0  0  0  0  0  0  0  0  0
   -3.9993    0.1569    1.0727 C   0  0  0  0  0  0  0  0  0  0  0  0
   -5.0444    1.2368    1.3646 C   0  0  0  0  0  0  0  0  0  0  0  0
   -5.1133    2.2036    0.1785 C   0  0  0  0  0  0  0  0  0  0  0  0
   -5.4346    1.4122   -1.0931 C   0  0  0  0  0  0  0  0  0  0  0  0
   -4.3744    0.3256   -1.2901 C   0  0  0  0  0  0  0  0  0  0  0  0
   -4.3412   -0.5200   -0.1386 O   0  0  0  0  0  0  0  0  0  0  0  0
   -4.7214   -0.5079   -2.5253 C   0  0  0  0  0  0  0  0  0  0  0  0
   -3.6732   -1.4460   -2.7768 O   0  0  0  0  0  0  0  0  0  0  0  0
   -6.7221    0.8057   -0.9656 O   0  0  0  0  0  0  0  0  0  0  0  0
   -6.1378    3.1724    0.4103 O   0  0  0  0  0  0  0  0  0  0  0  0
   -6.3217    0.6255    1.5572 O   0  0  0  0  0  0  0  0  0  0  0  0
   -0.9760   -3.6444    0.5725 O   0  0  0  0  0  0  0  0  0  0  0  0
    5.8462    3.2874   -0.0440 O   0  0  0  0  0  0  0  0  0  0  0  0
    9.2706    0.1765    0.3299 H   0  0  0  0  0  0  0  0  0  0  0  0
    9.0530    0.2334   -1.4358 H   0  0  0  0  0  0  0  0  0  0  0  0
   10.1063    1.4207   -0.6301 H   0  0  0  0  0  0  0  0  0  0  0  0
    3.6021    1.9668    0.1889 H   0  0  0  0  0  0  0  0  0  0  0  0
    5.4028   -1.9132   -0.1590 H   0  0  0  0  0  0  0  0  0  0  0  0
    7.6105   -0.8628   -0.4024 H   0  0  0  0  0  0  0  0  0  0  0  0
    3.8315   -2.6279    0.0100 H   0  0  0  0  0  0  0  0  0  0  0  0
   -2.8515   -1.8442    0.8644 H   0  0  0  0  0  0  0  0  0  0  0  0
   -0.2348    1.5311    0.6491 H   0  0  0  0  0  0  0  0  0  0  0  0
   -3.9762   -0.5583    1.8949 H   0  0  0  0  0  0  0  0  0  0  0  0
   -4.7618    1.7835    2.2642 H   0  0  0  0  0  0  0  0  0  0  0  0
   -4.1534    2.7068    0.0620 H   0  0  0  0  0  0  0  0  0  0  0  0
   -5.4310    2.0845   -1.9512 H   0  0  0  0  0  0  0  0  0  0  0  0
   -3.3983    0.7907   -1.4278 H   0  0  0  0  0  0  0  0  0  0  0  0
   -5.6546   -1.0437   -2.3516 H   0  0  0  0  0  0  0  0  0  0  0  0
   -4.8350    0.1497   -3.3872 H   0  0  0  0  0  0  0  0  0  0  0  0
   -3.8263   -2.0096   -3.5475 H   0  0  0  0  0  0  0  0  0  0  0  0
   -7.4428    1.4367   -0.8330 H   0  0  0  0  0  0  0  0  0  0  0  0
   -6.0019    3.7061    1.2051 H   0  0  0  0  0  0  0  0  0  0  0  0
   -6.3499   -0.0039    2.2908 H   0  0  0  0  0  0  0  0  0  0  0  0
   -0.9234   -4.0625    1.4429 H   0  0  0  0  0  0  0  0  0  0  0  0
    5.7740    3.7078   -0.9119 H   0  0  0  0  0  0  0  0  0  0  0  0
  1  2  1  0  0  0  0
  2  3  1  0  0  0  0
  3  4  2  0  0  0  0
  4  5  1  0  0  0  0
  5  6  2  0  0  0  0
  6  7  1  0  0  0  0
  7  8  2  0  0  0  0
  3  8  1  0  0  0  0
  6  9  1  0  0  0  0
  9 10  2  0  0  0  0
 10 11  1  0  0  0  0
 11 12  2  0  0  0  0
 11 13  1  0  0  0  0
 13 14  2  0  0  0  0
 14 15  1  0  0  0  0
 15 16  2  0  0  0  0
 16 17  1  0  0  0  0
 17 18  2  0  0  0  0
 13 18  1  0  0  0  0
 18 19  1  0  0  0  0
  9 19  1  0  0  0  0
 16 20  1  0  0  0  0
 20 21  1  0  0  0  0
 21 22  1  0  0  0  0
 22 23  1  0  0  0  0
 23 24  1  0  0  0  0
 24 25  1  0  0  0  0
 25 26  1  0  0  0  0
 21 26  1  0  0  0  0
 25 27  1  0  0  0  0
 27 28  1  0  0  0  0
 24 29  1  0  0  0  0
 23 30  1  0  0  0  0
 22 31  1  0  0  0  0
 14 32  1  0  0  0  0
  4 33  1  0  0  0  0
  1 34  1  0  0  0  0
  1 35  1  0  0  0  0
  1 36  1  0  0  0  0
  5 37  1  0  0  0  0
  7 38  1  0  0  0  0
  8 39  1  0  0  0  0
 10 40  1  0  0  0  0
 15 41  1  0  0  0  0
 17 42  1  0  0  0  0
 21 43  1  0  0  0  0
 22 44  1  0  0  0  0
 23 45  1  0  0  0  0
 24 46  1  0  0  0  0
 25 47  1  0  0  0  0
 27 48  1  0  0  0  0
 27 49  1  0  0  0  0
 28 50  1  0  0  0  0
 29 51  1  0  0  0  0
 30 52  1  0  0  0  0
 31 53  1  0  0  0  0
 32 54  1  0  0  0  0
 33 55  1  0  0  0  0
M  END
$$$$
