C15H10O6
APtclcactv06281817113D 0   0.00000     0.00000
 
 31 33  0  0  0  0  0  0  0  0999 V2000
    4.2185    0.5733   -1.1537 C   0  0  0  0  0  0  0  0  0  0  0  0
    2.8447    0.5109   -1.2629 C   0  0  0  0  0  0  0  0  0  0  0  0
    2.0911   -0.0702   -0.2454 C   0  0  0  0  0  0  0  0  0  0  0  0
    2.7314   -0.5887    0.8845 C   0  0  0  0  0  0  0  0  0  0  0  0
    4.1105   -0.5218    0.9859 C   0  0  0  0  0  0  0  0  0  0  0  0
    4.8536    0.0583   -0.0314 C   0  0  0  0  0  0  0  0  0  0  0  0
    6.2073    0.1228    0.0704 O   0  0  0  0  0  0  0  0  0  0  0  0
    2.0018   -1.1563    1.8805 O   0  0  0  0  0  0  0  0  0  0  0  0
    0.6139   -0.1383   -0.3600 C   0  0  0  0  0  0  0  0  0  0  0  0
   -0.0111   -1.3082   -0.6540 C   0  0  0  0  0  0  0  0  0  0  0  0
   -1.3335   -1.4142   -0.7847 O   0  0  0  0  0  0  0  0  0  0  0  0
   -2.1612   -0.4532   -0.3320 C   0  0  0  0  0  0  0  0  0  0  0  0
   -1.6670    0.8218   -0.0067 C   0  0  0  0  0  0  0  0  0  0  0  0
   -0.2195    1.0614   -0.1520 C   0  0  0  0  0  0  0  0  0  0  0  0
    0.2589    2.1819   -0.1120 O   0  0  0  0  0  0  0  0  0  0  0  0
   -2.5262    1.8210    0.4499 C   0  0  0  0  0  0  0  0  0  0  0  0
   -3.8598    1.5576    0.5898 C   0  0  0  0  0  0  0  0  0  0  0  0
   -4.3635    0.2976    0.2787 C   0  0  0  0  0  0  0  0  0  0  0  0
   -3.5231   -0.7063   -0.1805 C   0  0  0  0  0  0  0  0  0  0  0  0
   -4.0270   -1.9339   -0.4818 O   0  0  0  0  0  0  0  0  0  0  0  0
   -5.6909    0.0486    0.4261 O   0  0  0  0  0  0  0  0  0  0  0  0
    4.8019    1.0200   -1.9453 H   0  0  0  0  0  0  0  0  0  0  0  0
    2.3535    0.9126   -2.1368 H   0  0  0  0  0  0  0  0  0  0  0  0
    4.6077   -0.9214    1.8573 H   0  0  0  0  0  0  0  0  0  0  0  0
    6.6665   -0.6440   -0.2987 H   0  0  0  0  0  0  0  0  0  0  0  0
    1.8578   -2.1061    1.7702 H   0  0  0  0  0  0  0  0  0  0  0  0
    0.5919   -2.1940   -0.7885 H   0  0  0  0  0  0  0  0  0  0  0  0
   -2.1389    2.7996    0.6924 H   0  0  0  0  0  0  0  0  0  0  0  0
   -4.5261    2.3304    0.9437 H   0  0  0  0  0  0  0  0  0  0  0  0
   -4.3139   -2.0266   -1.4005 H   0  0  0  0  0  0  0  0  0  0  0  0
   -6.2167    0.2385   -0.3629 H   0  0  0  0  0  0  0  0  0  0  0  0
  1  2  2  0  0  0  0
  2  3  1  0  0  0  0
  3  4  2  0  0  0  0
  4  5  1  0  0  0  0
  5  6  2  0  0  0  0
  1  6  1  0  0  0  0
  6  7  1  0  0  0  0
  4  8  1  0  0  0  0
  3  9  1  0  0  0  0
  9 10  2  0  0  0  0
 10 11  1  0  0  0  0
 11 12  1  0  0  0  0
 12 13  2  0  0  0  0
 13 14  1  0  0  0  0
  9 14  1  0  0  0  0
 14 15  2  0  0  0  0
 13 16  1  0  0  0  0
 16 17  2  0  0  0  0
 17 18  1  0  0  0  0
 18 19  2  0  0  0  0
 12 19  1  0  0  0  0
 19 20  1  0  0  0  0
 18 21  1  0  0  0  0
  1 22  1  0  0  0  0
  2 23  1  0  0  0  0
  5 24  1  0  0  0  0
  7 25  1  0  0  0  0
  8 26  1  0  0  0  0
 10 27  1  0  0  0  0
 16 28  1  0  0  0  0
 17 29  1  0  0  0  0
 20 30  1  0  0  0  0
 21 31  1  0  0  0  0
M  END
$$$$
