C21H20O10
APtclcactv06281817113D 0   0.00000     0.00000
 
 51 54  0  0  0  0  0  0  0  0999 V2000
   -4.5702   -0.3334    0.0219 C   0  0  0  0  0  0  0  0  0  0  0  0
   -5.3955   -1.4358   -0.0022 C   0  0  0  0  0  0  0  0  0  0  0  0
   -4.8504   -2.7139   -0.0316 C   0  0  0  0  0  0  0  0  0  0  0  0
   -3.4714   -2.8856   -0.0368 C   0  0  0  0  0  0  0  0  0  0  0  0
   -2.6387   -1.7888   -0.0128 C   0  0  0  0  0  0  0  0  0  0  0  0
   -3.1826   -0.5015    0.0163 C   0  0  0  0  0  0  0  0  0  0  0  0
   -2.2948    0.6762    0.0416 C   0  0  0  0  0  0  0  0  0  0  0  0
   -2.8535    1.9161    0.0697 C   0  0  0  0  0  0  0  0  0  0  0  0
   -2.0175    3.0575    0.0942 C   0  0  0  0  0  0  0  0  0  0  0  0
   -2.4843    4.1848    0.1201 O   0  0  0  0  0  0  0  0  0  0  0  0
   -0.5622    2.8319    0.0875 C   0  0  0  0  0  0  0  0  0  0  0  0
   -0.0888    1.5090    0.0577 C   0  0  0  0  0  0  0  0  0  0  0  0
   -0.9663    0.4833    0.0414 O   0  0  0  0  0  0  0  0  0  0  0  0
    1.2774    1.2743    0.0509 C   0  0  0  0  0  0  0  0  0  0  0  0
    2.1645    2.3391    0.0740 C   0  0  0  0  0  0  0  0  0  0  0  0
    1.6988    3.6492    0.1036 C   0  0  0  0  0  0  0  0  0  0  0  0
    0.3398    3.9032    0.1099 C   0  0  0  0  0  0  0  0  0  0  0  0
   -0.1168    5.1809    0.1383 O   0  0  0  0  0  0  0  0  0  0  0  0
    3.5010    2.1009    0.0680 O   0  0  0  0  0  0  0  0  0  0  0  0
    1.7985   -0.1394    0.0190 C   0  0  0  0  0  0  0  0  0  0  0  0
    2.3239   -0.4583   -1.3831 C   0  0  0  0  0  0  0  0  0  0  0  0
    2.9063   -1.8750   -1.3917 C   0  0  0  0  0  0  0  0  0  0  0  0
    4.0011   -1.9716   -0.3247 C   0  0  0  0  0  0  0  0  0  0  0  0
    3.4109   -1.5943    1.0365 C   0  0  0  0  0  0  0  0  0  0  0  0
    2.8591   -0.2779    0.9666 O   0  0  0  0  0  0  0  0  0  0  0  0
    2.3103   -2.5897    1.4091 C   0  0  0  0  0  0  0  0  0  0  0  0
    1.8655   -2.3310    2.7422 O   0  0  0  0  0  0  0  0  0  0  0  0
    4.5018   -3.3091   -0.2740 O   0  0  0  0  0  0  0  0  0  0  0  0
    1.8727   -2.8185   -1.1028 O   0  0  0  0  0  0  0  0  0  0  0  0
    1.2521   -0.3769   -2.3247 O   0  0  0  0  0  0  0  0  0  0  0  0
   -5.6676   -3.7978   -0.0548 O   0  0  0  0  0  0  0  0  0  0  0  0
   -4.9946    0.6595    0.0406 H   0  0  0  0  0  0  0  0  0  0  0  0
   -6.4678   -1.3069    0.0021 H   0  0  0  0  0  0  0  0  0  0  0  0
   -3.0520   -3.8806   -0.0593 H   0  0  0  0  0  0  0  0  0  0  0  0
   -1.5671   -1.9231   -0.0162 H   0  0  0  0  0  0  0  0  0  0  0  0
   -3.9276    2.0286    0.0729 H   0  0  0  0  0  0  0  0  0  0  0  0
    2.4003    4.4701    0.1217 H   0  0  0  0  0  0  0  0  0  0  0  0
   -0.2496    5.5707   -0.7366 H   0  0  0  0  0  0  0  0  0  0  0  0
    3.8877    2.0513   -0.8169 H   0  0  0  0  0  0  0  0  0  0  0  0
    0.9932   -0.8294    0.2710 H   0  0  0  0  0  0  0  0  0  0  0  0
    3.1014    0.2567   -1.6521 H   0  0  0  0  0  0  0  0  0  0  0  0
    3.3327   -2.0881   -2.3720 H   0  0  0  0  0  0  0  0  0  0  0  0
    4.8124   -1.2871   -0.5724 H   0  0  0  0  0  0  0  0  0  0  0  0
    4.1956   -1.6198    1.7926 H   0  0  0  0  0  0  0  0  0  0  0  0
    1.4734   -2.4810    0.7193 H   0  0  0  0  0  0  0  0  0  0  0  0
    2.7025   -3.6048    1.3475 H   0  0  0  0  0  0  0  0  0  0  0  0
    1.1663   -2.9260    3.0460 H   0  0  0  0  0  0  0  0  0  0  0  0
    4.8868   -3.6167   -1.1059 H   0  0  0  0  0  0  0  0  0  0  0  0
    2.1714   -3.7382   -1.0919 H   0  0  0  0  0  0  0  0  0  0  0  0
    1.5137   -0.5676   -3.2359 H   0  0  0  0  0  0  0  0  0  0  0  0
   -5.9055   -4.0920   -0.9448 H   0  0  0  0  0  0  0  0  0  0  0  0
  1  2  2  0  0  0  0
  2  3  1  0  0  0  0
  3  4  2  0  0  0  0
  4  5  1  0  0  0  0
  5  6  2  0  0  0  0
  1  6  1  0  0  0  0
  6  7  1  0  0  0  0
  7  8  2  0  0  0  0
  8  9  1  0  0  0  0
  9 10  2  0  0  0  0
  9 11  1  0  0  0  0
 11 12  2  0  0  0  0
 12 13  1  0  0  0  0
  7 13  1  0  0  0  0
 12 14  1  0  0  0  0
 14 15  2  0  0  0  0
 15 16  1  0  0  0  0
 16 17  2  0  0  0  0
 11 17  1  0  0  0  0
 17 18  1  0  0  0  0
 15 19  1  0  0  0  0
 14 20  1  0  0  0  0
 20 21  1  0  0  0  0
 21 22  1  0  0  0  0
 22 23  1  0  0  0  0
 23 24  1  0  0  0  0
 24 25  1  0  0  0  0
 20 25  1  0  0  0  0
 24 26  1  0  0  0  0
 26 27  1  0  0  0  0
 23 28  1  0  0  0  0
 22 29  1  0  0  0  0
 21 30  1  0  0  0  0
  3 31  1  0  0  0  0
  1 32  1  0  0  0  0
  2 33  1  0  0  0  0
  4 34  1  0  0  0  0
  5 35  1  0  0  0  0
  8 36  1  0  0  0  0
 16 37  1  0  0  0  0
 18 38  1  0  0  0  0
 19 39  1  0  0  0  0
 20 40  1  0  0  0  0
 21 41  1  0  0  0  0
 22 42  1  0  0  0  0
 23 43  1  0  0  0  0
 24 44  1  0  0  0  0
 26 45  1  0  0  0  0
 26 46  1  0  0  0  0
 27 47  1  0  0  0  0
 28 48  1  0  0  0  0
 29 49  1  0  0  0  0
 30 50  1  0  0  0  0
 31 51  1  0  0  0  0
M  END
$$$$
