C29H46O
APtclcactv06281817113D 0   0.00000     0.00000
 
 76 79  0  0  0  0  0  0  0  0999 V2000
   -0.2335   -2.0024    0.2652 C   0  0  0  0  0  0  0  0  0  0  0  0
   -1.3972   -2.8401   -0.2684 C   0  0  0  0  0  0  0  0  0  0  0  0
   -2.7198   -2.1477    0.0667 C   0  0  0  0  0  0  0  0  0  0  0  0
   -2.8030   -0.8380   -0.6741 C   0  0  0  0  0  0  0  0  0  0  0  0
   -3.0507    0.2698   -0.0202 C   0  0  0  0  0  0  0  0  0  0  0  0
   -3.2679    1.5568   -0.7734 C   0  0  0  0  0  0  0  0  0  0  0  0
   -4.7227    2.0027   -0.6124 C   0  0  0  0  0  0  0  0  0  0  0  0
   -2.3421    2.6332   -0.2180 C   0  0  0  0  0  0  0  0  0  0  0  0
   -2.5017    2.7367    1.3244 C   0  0  0  0  0  0  0  0  0  0  0  0
   -1.1895    2.1688    1.9398 C   0  0  0  0  0  0  0  0  0  0  0  0
   -0.6448    1.3110    0.7892 C   0  0  0  0  0  0  0  0  0  0  0  0
   -0.8631    2.2655   -0.4093 C   0  0  0  0  0  0  0  0  0  0  0  0
   -0.4476    1.6089   -1.6879 C   0  0  0  0  0  0  0  0  0  0  0  0
    0.9716    1.0358   -1.6303 C   0  0  0  0  0  0  0  0  0  0  0  0
    1.6832    1.2211   -0.3011 C   0  0  0  0  0  0  0  0  0  0  0  0
    0.7934    0.9118    0.8606 C   0  0  0  0  0  0  0  0  0  0  0  0
    1.2152    0.2373    1.9222 C   0  0  0  0  0  0  0  0  0  0  0  0
    2.5727   -0.3057    1.9849 C   0  0  0  0  0  0  0  0  0  0  0  0
    3.3986   -0.1726    0.9619 C   0  0  0  0  0  0  0  0  0  0  0  0
    3.0408    0.5677   -0.2862 C   0  0  0  0  0  0  0  0  0  0  0  0
    3.2639   -0.3359   -1.4967 C   0  0  0  0  0  0  0  0  0  0  0  0
    4.6731   -0.9285   -1.4751 C   0  0  0  0  0  0  0  0  0  0  0  0
    4.9150   -1.7309   -0.1994 C   0  0  0  0  0  0  0  0  0  0  0  0
    4.7638   -0.8328    1.0330 C   0  0  0  0  0  0  0  0  0  0  0  0
    3.9780   -2.8069   -0.1236 O   0  0  0  0  0  0  0  0  0  0  0  0
    4.0359    1.7266   -0.4066 C   0  0  0  0  0  0  0  0  0  0  0  0
   -0.0989    3.5832   -0.2312 C   0  0  0  0  0  0  0  0  0  0  0  0
   -3.8858   -3.0454   -0.3520 C   0  0  0  0  0  0  0  0  0  0  0  0
   -3.8014   -4.3751    0.4001 C   0  0  0  0  0  0  0  0  0  0  0  0
   -5.2084   -2.3531   -0.0169 C   0  0  0  0  0  0  0  0  0  0  0  0
   -0.1857   -1.0588   -0.2784 H   0  0  0  0  0  0  0  0  0  0  0  0
   -0.3856   -1.8032    1.3260 H   0  0  0  0  0  0  0  0  0  0  0  0
    0.7000   -2.5482    0.1282 H   0  0  0  0  0  0  0  0  0  0  0  0
   -1.3049   -2.9433   -1.3496 H   0  0  0  0  0  0  0  0  0  0  0  0
   -1.3764   -3.8270    0.1939 H   0  0  0  0  0  0  0  0  0  0  0  0
   -2.7711   -1.9622    1.1396 H   0  0  0  0  0  0  0  0  0  0  0  0
   -2.6583   -0.8127   -1.7441 H   0  0  0  0  0  0  0  0  0  0  0  0
   -3.0993    0.2607    1.0587 H   0  0  0  0  0  0  0  0  0  0  0  0
   -3.0506    1.4006   -1.8301 H   0  0  0  0  0  0  0  0  0  0  0  0
   -4.9154    2.2430    0.4331 H   0  0  0  0  0  0  0  0  0  0  0  0
   -4.9025    2.8846   -1.2271 H   0  0  0  0  0  0  0  0  0  0  0  0
   -5.3864    1.1979   -0.9286 H   0  0  0  0  0  0  0  0  0  0  0  0
   -2.5438    3.5956   -0.6835 H   0  0  0  0  0  0  0  0  0  0  0  0
   -2.6306    3.7777    1.6157 H   0  0  0  0  0  0  0  0  0  0  0  0
   -3.3536    2.1428    1.6507 H   0  0  0  0  0  0  0  0  0  0  0  0
   -0.5066    2.9547    2.2321 H   0  0  0  0  0  0  0  0  0  0  0  0
   -1.4255    1.5360    2.8011 H   0  0  0  0  0  0  0  0  0  0  0  0
   -1.2700    0.4040    0.6876 H   0  0  0  0  0  0  0  0  0  0  0  0
   -1.1326    0.7935   -1.9464 H   0  0  0  0  0  0  0  0  0  0  0  0
   -0.4968    2.3462   -2.5027 H   0  0  0  0  0  0  0  0  0  0  0  0
    0.9195   -0.0366   -1.8598 H   0  0  0  0  0  0  0  0  0  0  0  0
    1.5686    1.5070   -2.4220 H   0  0  0  0  0  0  0  0  0  0  0  0
    1.9426    2.2819   -0.2265 H   0  0  0  0  0  0  0  0  0  0  0  0
    0.5370    0.0920    2.7499 H   0  0  0  0  0  0  0  0  0  0  0  0
    2.9046   -0.8215    2.8746 H   0  0  0  0  0  0  0  0  0  0  0  0
    2.5311   -1.1452   -1.4884 H   0  0  0  0  0  0  0  0  0  0  0  0
    3.1362    0.2456   -2.4135 H   0  0  0  0  0  0  0  0  0  0  0  0
    4.7772   -1.6037   -2.3353 H   0  0  0  0  0  0  0  0  0  0  0  0
    5.4236   -0.1490   -1.5735 H   0  0  0  0  0  0  0  0  0  0  0  0
    5.9278   -2.1408   -0.2202 H   0  0  0  0  0  0  0  0  0  0  0  0
    5.5511   -0.0838    1.0505 H   0  0  0  0  0  0  0  0  0  0  0  0
    4.8251   -1.4447    1.9363 H   0  0  0  0  0  0  0  0  0  0  0  0
    4.0756   -3.3586    0.6646 H   0  0  0  0  0  0  0  0  0  0  0  0
    5.0496    1.3304   -0.4663 H   0  0  0  0  0  0  0  0  0  0  0  0
    3.8169    2.3015   -1.3064 H   0  0  0  0  0  0  0  0  0  0  0  0
    3.9491    2.3724    0.4672 H   0  0  0  0  0  0  0  0  0  0  0  0
    0.9731    3.3860   -0.2439 H   0  0  0  0  0  0  0  0  0  0  0  0
   -0.3529    4.2633   -1.0442 H   0  0  0  0  0  0  0  0  0  0  0  0
   -0.3736    4.0367    0.7211 H   0  0  0  0  0  0  0  0  0  0  0  0
   -3.8345   -3.2310   -1.4249 H   0  0  0  0  0  0  0  0  0  0  0  0
   -3.8528   -4.1896    1.4730 H   0  0  0  0  0  0  0  0  0  0  0  0
   -4.6321   -5.0147    0.1018 H   0  0  0  0  0  0  0  0  0  0  0  0
   -2.8592   -4.8684    0.1614 H   0  0  0  0  0  0  0  0  0  0  0  0
   -5.2686   -1.4058   -0.5527 H   0  0  0  0  0  0  0  0  0  0  0  0
   -6.0391   -2.9926   -0.3152 H   0  0  0  0  0  0  0  0  0  0  0  0
   -5.2598   -2.1675    1.0560 H   0  0  0  0  0  0  0  0  0  0  0  0
  1  2  1  0  0  0  0
  2  3  1  0  0  0  0
  3  4  1  0  0  0  0
  4  5  2  0  0  0  0
  5  6  1  0  0  0  0
  6  7  1  0  0  0  0
  6  8  1  0  0  0  0
  8  9  1  0  0  0  0
  9 10  1  0  0  0  0
 10 11  1  0  0  0  0
 11 12  1  0  0  0  0
  8 12  1  0  0  0  0
 12 13  1  0  0  0  0
 13 14  1  0  0  0  0
 14 15  1  0  0  0  0
 15 16  1  0  0  0  0
 11 16  1  0  0  0  0
 16 17  2  0  0  0  0
 17 18  1  0  0  0  0
 18 19  2  0  0  0  0
 19 20  1  0  0  0  0
 15 20  1  0  0  0  0
 20 21  1  0  0  0  0
 21 22  1  0  0  0  0
 22 23  1  0  0  0  0
 23 24  1  0  0  0  0
 19 24  1  0  0  0  0
 23 25  1  0  0  0  0
 20 26  1  0  0  0  0
 12 27  1  0  0  0  0
  3 28  1  0  0  0  0
 28 29  1  0  0  0  0
 28 30  1  0  0  0  0
  1 31  1  0  0  0  0
  1 32  1  0  0  0  0
  1 33  1  0  0  0  0
  2 34  1  0  0  0  0
  2 35  1  0  0  0  0
  3 36  1  0  0  0  0
  4 37  1  0  0  0  0
  5 38  1  0  0  0  0
  6 39  1  0  0  0  0
  7 40  1  0  0  0  0
  7 41  1  0  0  0  0
  7 42  1  0  0  0  0
  8 43  1  0  0  0  0
  9 44  1  0  0  0  0
  9 45  1  0  0  0  0
 10 46  1  0  0  0  0
 10 47  1  0  0  0  0
 11 48  1  0  0  0  0
 13 49  1  0  0  0  0
 13 50  1  0  0  0  0
 14 51  1  0  0  0  0
 14 52  1  0  0  0  0
 15 53  1  0  0  0  0
 17 54  1  0  0  0  0
 18 55  1  0  0  0  0
 21 56  1  0  0  0  0
 21 57  1  0  0  0  0
 22 58  1  0  0  0  0
 22 59  1  0  0  0  0
 23 60  1  0  0  0  0
 24 61  1  0  0  0  0
 24 62  1  0  0  0  0
 25 63  1  0  0  0  0
 26 64  1  0  0  0  0
 26 65  1  0  0  0  0
 26 66  1  0  0  0  0
 27 67  1  0  0  0  0
 27 68  1  0  0  0  0
 27 69  1  0  0  0  0
 28 70  1  0  0  0  0
 29 71  1  0  0  0  0
 29 72  1  0  0  0  0
 29 73  1  0  0  0  0
 30 74  1  0  0  0  0
 30 75  1  0  0  0  0
 30 76  1  0  0  0  0
M  END
$$$$
