C21H20O5
APtclcactv06281817113D 0   0.00000     0.00000
 
 46 48  0  0  0  0  0  0  0  0999 V2000
    2.8548   -3.8781   -0.8385 C   0  0  0  0  0  0  0  0  0  0  0  0
    3.3455   -3.2304    0.4306 C   0  0  0  0  0  0  0  0  0  0  0  0
    3.7013   -1.9696    0.4273 C   0  0  0  0  0  0  0  0  0  0  0  0
    3.5029   -1.1339   -0.8109 C   0  0  0  0  0  0  0  0  0  0  0  0
    2.7189    0.1046   -0.4608 C   0  0  0  0  0  0  0  0  0  0  0  0
    3.3833    1.2559   -0.0707 C   0  0  0  0  0  0  0  0  0  0  0  0
    2.6774    2.4096    0.2543 C   0  0  0  0  0  0  0  0  0  0  0  0
    1.2962    2.4159    0.1947 C   0  0  0  0  0  0  0  0  0  0  0  0
    0.6187    1.2531   -0.1918 C   0  0  0  0  0  0  0  0  0  0  0  0
    1.3326    0.0910   -0.5354 C   0  0  0  0  0  0  0  0  0  0  0  0
    0.6815   -1.0205   -0.9282 O   0  0  0  0  0  0  0  0  0  0  0  0
   -0.6249   -1.1721   -0.7083 C   0  0  0  0  0  0  0  0  0  0  0  0
   -1.4458   -0.1415   -0.3804 C   0  0  0  0  0  0  0  0  0  0  0  0
   -0.8523    1.2053   -0.2499 C   0  0  0  0  0  0  0  0  0  0  0  0
   -1.5375    2.2117   -0.1858 O   0  0  0  0  0  0  0  0  0  0  0  0
   -2.8970   -0.3606   -0.1651 C   0  0  0  0  0  0  0  0  0  0  0  0
   -3.3341   -1.1495    0.8977 C   0  0  0  0  0  0  0  0  0  0  0  0
   -4.6842   -1.3509    1.0955 C   0  0  0  0  0  0  0  0  0  0  0  0
   -5.6072   -0.7690    0.2376 C   0  0  0  0  0  0  0  0  0  0  0  0
   -5.1752    0.0168   -0.8219 C   0  0  0  0  0  0  0  0  0  0  0  0
   -3.8266    0.2267   -1.0217 C   0  0  0  0  0  0  0  0  0  0  0  0
   -6.9369   -0.9693    0.4352 O   0  0  0  0  0  0  0  0  0  0  0  0
    0.6029    3.5395    0.5084 O   0  0  0  0  0  0  0  0  0  0  0  0
    1.3647    4.6854    0.8939 C   0  0  0  0  0  0  0  0  0  0  0  0
    4.7391    1.2580   -0.0043 O   0  0  0  0  0  0  0  0  0  0  0  0
    3.4269   -4.0330    1.7035 C   0  0  0  0  0  0  0  0  0  0  0  0
    3.5987   -3.7473   -1.6244 H   0  0  0  0  0  0  0  0  0  0  0  0
    2.6933   -4.9420   -0.6645 H   0  0  0  0  0  0  0  0  0  0  0  0
    1.9174   -3.4136   -1.1446 H   0  0  0  0  0  0  0  0  0  0  0  0
    4.1369   -1.5291    1.3120 H   0  0  0  0  0  0  0  0  0  0  0  0
    4.4737   -0.8472   -1.2152 H   0  0  0  0  0  0  0  0  0  0  0  0
    2.9556   -1.7120   -1.5555 H   0  0  0  0  0  0  0  0  0  0  0  0
    3.2087    3.3010    0.5537 H   0  0  0  0  0  0  0  0  0  0  0  0
   -1.0500   -2.1611   -0.7955 H   0  0  0  0  0  0  0  0  0  0  0  0
   -2.6163   -1.6028    1.5653 H   0  0  0  0  0  0  0  0  0  0  0  0
   -5.0235   -1.9624    1.9186 H   0  0  0  0  0  0  0  0  0  0  0  0
   -5.8958    0.4676   -1.4881 H   0  0  0  0  0  0  0  0  0  0  0  0
   -3.4910    0.8382   -1.8462 H   0  0  0  0  0  0  0  0  0  0  0  0
   -7.3525   -0.3124    1.0104 H   0  0  0  0  0  0  0  0  0  0  0  0
    1.9546    4.4485    1.7792 H   0  0  0  0  0  0  0  0  0  0  0  0
    2.0304    4.9700    0.0791 H   0  0  0  0  0  0  0  0  0  0  0  0
    0.6900    5.5118    1.1173 H   0  0  0  0  0  0  0  0  0  0  0  0
    5.1728    1.5206   -0.8277 H   0  0  0  0  0  0  0  0  0  0  0  0
    3.0922   -5.0525    1.5122 H   0  0  0  0  0  0  0  0  0  0  0  0
    4.4577   -4.0493    2.0574 H   0  0  0  0  0  0  0  0  0  0  0  0
    2.7897   -3.5775    2.4616 H   0  0  0  0  0  0  0  0  0  0  0  0
  1  2  1  0  0  0  0
  2  3  2  0  0  0  0
  3  4  1  0  0  0  0
  4  5  1  0  0  0  0
  5  6  2  0  0  0  0
  6  7  1  0  0  0  0
  7  8  2  0  0  0  0
  8  9  1  0  0  0  0
  9 10  2  0  0  0  0
  5 10  1  0  0  0  0
 10 11  1  0  0  0  0
 11 12  1  0  0  0  0
 12 13  2  0  0  0  0
 13 14  1  0  0  0  0
  9 14  1  0  0  0  0
 14 15  2  0  0  0  0
 13 16  1  0  0  0  0
 16 17  2  0  0  0  0
 17 18  1  0  0  0  0
 18 19  2  0  0  0  0
 19 20  1  0  0  0  0
 20 21  2  0  0  0  0
 16 21  1  0  0  0  0
 19 22  1  0  0  0  0
  8 23  1  0  0  0  0
 23 24  1  0  0  0  0
  6 25  1  0  0  0  0
  2 26  1  0  0  0  0
  1 27  1  0  0  0  0
  1 28  1  0  0  0  0
  1 29  1  0  0  0  0
  3 30  1  0  0  0  0
  4 31  1  0  0  0  0
  4 32  1  0  0  0  0
  7 33  1  0  0  0  0
 12 34  1  0  0  0  0
 17 35  1  0  0  0  0
 18 36  1  0  0  0  0
 20 37  1  0  0  0  0
 21 38  1  0  0  0  0
 22 39  1  0  0  0  0
 24 40  1  0  0  0  0
 24 41  1  0  0  0  0
 24 42  1  0  0  0  0
 25 43  1  0  0  0  0
 26 44  1  0  0  0  0
 26 45  1  0  0  0  0
 26 46  1  0  0  0  0
M  END
$$$$
