C18H16O7
APtclcactv06281817113D 0   0.00000     0.00000
 
 41 43  0  0  0  0  0  0  0  0999 V2000
    2.5930    3.6866    0.1572 C   0  0  0  0  0  0  0  0  0  0  0  0
    3.5273    2.6055    0.1751 O   0  0  0  0  0  0  0  0  0  0  0  0
    3.0147    1.3460    0.1502 C   0  0  0  0  0  0  0  0  0  0  0  0
    1.6457    1.1582    0.1096 C   0  0  0  0  0  0  0  0  0  0  0  0
    1.1197   -0.1362    0.0835 C   0  0  0  0  0  0  0  0  0  0  0  0
    1.9799   -1.2375    0.0987 C   0  0  0  0  0  0  0  0  0  0  0  0
    3.3481   -1.0437    0.1394 C   0  0  0  0  0  0  0  0  0  0  0  0
    3.8694    0.2471    0.1599 C   0  0  0  0  0  0  0  0  0  0  0  0
    5.2152    0.4347    0.1995 O   0  0  0  0  0  0  0  0  0  0  0  0
    5.8942    0.5296   -1.0544 C   0  0  0  0  0  0  0  0  0  0  0  0
    4.1858   -2.1150    0.1546 O   0  0  0  0  0  0  0  0  0  0  0  0
    3.5830   -3.4103    0.1268 C   0  0  0  0  0  0  0  0  0  0  0  0
   -0.3406   -0.3398    0.0406 C   0  0  0  0  0  0  0  0  0  0  0  0
   -0.8234   -1.6112    0.0160 C   0  0  0  0  0  0  0  0  0  0  0  0
   -2.2214   -1.8260   -0.0252 C   0  0  0  0  0  0  0  0  0  0  0  0
   -2.6893   -2.9530   -0.0478 O   0  0  0  0  0  0  0  0  0  0  0  0
   -3.0897   -0.6366   -0.0393 C   0  0  0  0  0  0  0  0  0  0  0  0
   -4.4844   -0.7549   -0.0791 C   0  0  0  0  0  0  0  0  0  0  0  0
   -5.2646    0.3868   -0.0906 C   0  0  0  0  0  0  0  0  0  0  0  0
   -4.6668    1.6417   -0.0630 C   0  0  0  0  0  0  0  0  0  0  0  0
   -3.2863    1.7661   -0.0240 C   0  0  0  0  0  0  0  0  0  0  0  0
   -2.4878    0.6335   -0.0114 C   0  0  0  0  0  0  0  0  0  0  0  0
   -1.1426    0.7369    0.0328 O   0  0  0  0  0  0  0  0  0  0  0  0
   -5.4420    2.7561   -0.0747 O   0  0  0  0  0  0  0  0  0  0  0  0
   -5.0660   -1.9807   -0.1065 O   0  0  0  0  0  0  0  0  0  0  0  0
    3.1324    4.6334    0.1804 H   0  0  0  0  0  0  0  0  0  0  0  0
    1.9923    3.6327   -0.7507 H   0  0  0  0  0  0  0  0  0  0  0  0
    1.9415    3.6182    1.0284 H   0  0  0  0  0  0  0  0  0  0  0  0
    0.9832    2.0111    0.0983 H   0  0  0  0  0  0  0  0  0  0  0  0
    1.5762   -2.2390    0.0790 H   0  0  0  0  0  0  0  0  0  0  0  0
    5.7431   -0.3899   -1.6199 H   0  0  0  0  0  0  0  0  0  0  0  0
    5.4974    1.3730   -1.6194 H   0  0  0  0  0  0  0  0  0  0  0  0
    6.9598    0.6781   -0.8801 H   0  0  0  0  0  0  0  0  0  0  0  0
    4.3611   -4.1735    0.1428 H   0  0  0  0  0  0  0  0  0  0  0  0
    2.9387   -3.5300    0.9978 H   0  0  0  0  0  0  0  0  0  0  0  0
    2.9896   -3.5155   -0.7814 H   0  0  0  0  0  0  0  0  0  0  0  0
   -0.1444   -2.4510    0.0274 H   0  0  0  0  0  0  0  0  0  0  0  0
   -6.3410    0.3035   -0.1216 H   0  0  0  0  0  0  0  0  0  0  0  0
   -2.8331    2.7462   -0.0035 H   0  0  0  0  0  0  0  0  0  0  0  0
   -5.6911    3.0712    0.8050 H   0  0  0  0  0  0  0  0  0  0  0  0
   -5.2591   -2.3441    0.7686 H   0  0  0  0  0  0  0  0  0  0  0  0
  1  2  1  0  0  0  0
  2  3  1  0  0  0  0
  3  4  2  0  0  0  0
  4  5  1  0  0  0  0
  5  6  2  0  0  0  0
  6  7  1  0  0  0  0
  7  8  2  0  0  0  0
  3  8  1  0  0  0  0
  8  9  1  0  0  0  0
  9 10  1  0  0  0  0
  7 11  1  0  0  0  0
 11 12  1  0  0  0  0
  5 13  1  0  0  0  0
 13 14  2  0  0  0  0
 14 15  1  0  0  0  0
 15 16  2  0  0  0  0
 15 17  1  0  0  0  0
 17 18  2  0  0  0  0
 18 19  1  0  0  0  0
 19 20  2  0  0  0  0
 20 21  1  0  0  0  0
 21 22  2  0  0  0  0
 17 22  1  0  0  0  0
 22 23  1  0  0  0  0
 13 23  1  0  0  0  0
 20 24  1  0  0  0  0
 18 25  1  0  0  0  0
  1 26  1  0  0  0  0
  1 27  1  0  0  0  0
  1 28  1  0  0  0  0
  4 29  1  0  0  0  0
  6 30  1  0  0  0  0
 10 31  1  0  0  0  0
 10 32  1  0  0  0  0
 10 33  1  0  0  0  0
 12 34  1  0  0  0  0
 12 35  1  0  0  0  0
 12 36  1  0  0  0  0
 14 37  1  0  0  0  0
 19 38  1  0  0  0  0
 21 39  1  0  0  0  0
 24 40  1  0  0  0  0
 25 41  1  0  0  0  0
M  END
$$$$
