C17H14O7
APtclcactv06281817113D 0   0.00000     0.00000
 
 38 40  0  0  0  0  0  0  0  0999 V2000
   -6.1440   -1.8320    0.8858 C   0  0  0  0  0  0  0  0  0  0  0  0
   -5.6415   -0.8329   -0.0038 O   0  0  0  0  0  0  0  0  0  0  0  0
   -4.2978   -0.6310   -0.0091 C   0  0  0  0  0  0  0  0  0  0  0  0
   -3.7424    0.3287   -0.8534 C   0  0  0  0  0  0  0  0  0  0  0  0
   -2.3762    0.5355   -0.8603 C   0  0  0  0  0  0  0  0  0  0  0  0
   -1.5542   -0.2197   -0.0190 C   0  0  0  0  0  0  0  0  0  0  0  0
   -2.1182   -1.1804    0.8250 C   0  0  0  0  0  0  0  0  0  0  0  0
   -3.4824   -1.3771    0.8304 C   0  0  0  0  0  0  0  0  0  0  0  0
   -0.0956   -0.0037   -0.0224 C   0  0  0  0  0  0  0  0  0  0  0  0
    0.3789    1.2719    0.0439 C   0  0  0  0  0  0  0  0  0  0  0  0
    1.7800    1.4964    0.0421 C   0  0  0  0  0  0  0  0  0  0  0  0
    2.2415    2.6250    0.1008 O   0  0  0  0  0  0  0  0  0  0  0  0
    2.6550    0.3156   -0.0327 C   0  0  0  0  0  0  0  0  0  0  0  0
    4.0500    0.4439   -0.0392 C   0  0  0  0  0  0  0  0  0  0  0  0
    4.8378   -0.6901   -0.1101 C   0  0  0  0  0  0  0  0  0  0  0  0
    4.2480   -1.9477   -0.1748 C   0  0  0  0  0  0  0  0  0  0  0  0
    2.8683   -2.0824   -0.1692 C   0  0  0  0  0  0  0  0  0  0  0  0
    2.0613   -0.9574   -0.0977 C   0  0  0  0  0  0  0  0  0  0  0  0
    0.7168   -1.0726   -0.0853 O   0  0  0  0  0  0  0  0  0  0  0  0
    5.0310   -3.0545   -0.2445 O   0  0  0  0  0  0  0  0  0  0  0  0
    4.6239    1.6722    0.0231 O   0  0  0  0  0  0  0  0  0  0  0  0
   -0.4840    2.3221    0.1109 O   0  0  0  0  0  0  0  0  0  0  0  0
   -0.4769    3.0918    1.3149 C   0  0  0  0  0  0  0  0  0  0  0  0
   -4.5451    1.0614   -1.6710 O   0  0  0  0  0  0  0  0  0  0  0  0
   -5.8832   -1.5698    1.9111 H   0  0  0  0  0  0  0  0  0  0  0  0
   -7.2282   -1.8913    0.7904 H   0  0  0  0  0  0  0  0  0  0  0  0
   -5.7038   -2.7969    0.6343 H   0  0  0  0  0  0  0  0  0  0  0  0
   -1.9446    1.2787   -1.5144 H   0  0  0  0  0  0  0  0  0  0  0  0
   -1.4856   -1.7657    1.4759 H   0  0  0  0  0  0  0  0  0  0  0  0
   -3.9171   -2.1195    1.4833 H   0  0  0  0  0  0  0  0  0  0  0  0
    5.9139   -0.5989   -0.1156 H   0  0  0  0  0  0  0  0  0  0  0  0
    2.4217   -3.0644   -0.2202 H   0  0  0  0  0  0  0  0  0  0  0  0
    5.2666   -3.4246    0.6172 H   0  0  0  0  0  0  0  0  0  0  0  0
    4.7988    1.9794    0.9231 H   0  0  0  0  0  0  0  0  0  0  0  0
   -0.6319    2.4322    2.1687 H   0  0  0  0  0  0  0  0  0  0  0  0
    0.4828    3.5984    1.4166 H   0  0  0  0  0  0  0  0  0  0  0  0
   -1.2763    3.8319    1.2776 H   0  0  0  0  0  0  0  0  0  0  0  0
   -4.8666    1.8824   -1.2738 H   0  0  0  0  0  0  0  0  0  0  0  0
  1  2  1  0  0  0  0
  2  3  1  0  0  0  0
  3  4  2  0  0  0  0
  4  5  1  0  0  0  0
  5  6  2  0  0  0  0
  6  7  1  0  0  0  0
  7  8  2  0  0  0  0
  3  8  1  0  0  0  0
  6  9  1  0  0  0  0
  9 10  2  0  0  0  0
 10 11  1  0  0  0  0
 11 12  2  0  0  0  0
 11 13  1  0  0  0  0
 13 14  2  0  0  0  0
 14 15  1  0  0  0  0
 15 16  2  0  0  0  0
 16 17  1  0  0  0  0
 17 18  2  0  0  0  0
 13 18  1  0  0  0  0
 18 19  1  0  0  0  0
  9 19  1  0  0  0  0
 16 20  1  0  0  0  0
 14 21  1  0  0  0  0
 10 22  1  0  0  0  0
 22 23  1  0  0  0  0
  4 24  1  0  0  0  0
  1 25  1  0  0  0  0
  1 26  1  0  0  0  0
  1 27  1  0  0  0  0
  5 28  1  0  0  0  0
  7 29  1  0  0  0  0
  8 30  1  0  0  0  0
 15 31  1  0  0  0  0
 17 32  1  0  0  0  0
 20 33  1  0  0  0  0
 21 34  1  0  0  0  0
 23 35  1  0  0  0  0
 23 36  1  0  0  0  0
 23 37  1  0  0  0  0
 24 38  1  0  0  0  0
M  END
$$$$
