C21H20O11
APtclcactv06281817113D 0   0.00000     0.00000
 
 52 55  0  0  0  0  0  0  0  0999 V2000
   -4.4197   -0.6581   -0.0324 C   0  0  0  0  0  0  0  0  0  0  0  0
   -5.4398    0.2683   -0.0130 C   0  0  0  0  0  0  0  0  0  0  0  0
   -5.1490    1.6254    0.0130 C   0  0  0  0  0  0  0  0  0  0  0  0
   -3.8238    2.0575    0.0199 C   0  0  0  0  0  0  0  0  0  0  0  0
   -2.7960    1.1344    0.0005 C   0  0  0  0  0  0  0  0  0  0  0  0
   -3.0887   -0.2320   -0.0256 C   0  0  0  0  0  0  0  0  0  0  0  0
   -1.9954   -1.2220   -0.0459 C   0  0  0  0  0  0  0  0  0  0  0  0
   -2.3112   -2.5448   -0.0712 C   0  0  0  0  0  0  0  0  0  0  0  0
   -1.2756   -3.5089   -0.0914 C   0  0  0  0  0  0  0  0  0  0  0  0
   -1.5222   -4.7039   -0.1147 O   0  0  0  0  0  0  0  0  0  0  0  0
    0.1114   -3.0140   -0.0837 C   0  0  0  0  0  0  0  0  0  0  0  0
    0.3278   -1.6256   -0.0570 C   0  0  0  0  0  0  0  0  0  0  0  0
   -0.7267   -0.7829   -0.0444 O   0  0  0  0  0  0  0  0  0  0  0  0
    1.6256   -1.1383   -0.0493 C   0  0  0  0  0  0  0  0  0  0  0  0
    2.6970   -2.0176   -0.0682 C   0  0  0  0  0  0  0  0  0  0  0  0
    2.4857   -3.3920   -0.0946 C   0  0  0  0  0  0  0  0  0  0  0  0
    1.1987   -3.8968   -0.1018 C   0  0  0  0  0  0  0  0  0  0  0  0
    0.9903   -5.2375   -0.1272 O   0  0  0  0  0  0  0  0  0  0  0  0
    3.9649   -1.5325   -0.0613 O   0  0  0  0  0  0  0  0  0  0  0  0
    1.8718    0.3482   -0.0207 C   0  0  0  0  0  0  0  0  0  0  0  0
    2.3255    0.7637    1.3811 C   0  0  0  0  0  0  0  0  0  0  0  0
    2.6314    2.2646    1.3863 C   0  0  0  0  0  0  0  0  0  0  0  0
    3.6904    2.5624    0.3204 C   0  0  0  0  0  0  0  0  0  0  0  0
    3.1839    2.0774   -1.0405 C   0  0  0  0  0  0  0  0  0  0  0  0
    2.8891    0.6810   -0.9675 O   0  0  0  0  0  0  0  0  0  0  0  0
    1.9166    2.8474   -1.4173 C   0  0  0  0  0  0  0  0  0  0  0  0
    1.5306    2.5063   -2.7502 O   0  0  0  0  0  0  0  0  0  0  0  0
    3.9309    3.9700    0.2664 O   0  0  0  0  0  0  0  0  0  0  0  0
    1.4394    2.9964    1.0934 O   0  0  0  0  0  0  0  0  0  0  0  0
    1.2864    0.4848    2.3216 O   0  0  0  0  0  0  0  0  0  0  0  0
   -3.5425    3.3878    0.0453 O   0  0  0  0  0  0  0  0  0  0  0  0
   -6.1582    2.5345    0.0312 O   0  0  0  0  0  0  0  0  0  0  0  0
   -4.6488   -1.7134   -0.0484 H   0  0  0  0  0  0  0  0  0  0  0  0
   -6.4679   -0.0623   -0.0182 H   0  0  0  0  0  0  0  0  0  0  0  0
   -1.7688    1.4679    0.0055 H   0  0  0  0  0  0  0  0  0  0  0  0
   -3.3450   -2.8571   -0.0754 H   0  0  0  0  0  0  0  0  0  0  0  0
    3.3290   -4.0665   -0.1092 H   0  0  0  0  0  0  0  0  0  0  0  0
    0.9316   -5.6431    0.7487 H   0  0  0  0  0  0  0  0  0  0  0  0
    4.3339   -1.4089    0.8239 H   0  0  0  0  0  0  0  0  0  0  0  0
    0.9516    0.8739   -0.2757 H   0  0  0  0  0  0  0  0  0  0  0  0
    3.2230    0.2081    1.6531 H   0  0  0  0  0  0  0  0  0  0  0  0
    3.0084    2.5565    2.3665 H   0  0  0  0  0  0  0  0  0  0  0  0
    4.6154    2.0432    0.5709 H   0  0  0  0  0  0  0  0  0  0  0  0
    3.9511    2.2479   -1.7957 H   0  0  0  0  0  0  0  0  0  0  0  0
    1.1138    2.5852   -0.7282 H   0  0  0  0  0  0  0  0  0  0  0  0
    2.1110    3.9183   -1.3581 H   0  0  0  0  0  0  0  0  0  0  0  0
    0.7326    2.9585   -3.0565 H   0  0  0  0  0  0  0  0  0  0  0  0
    4.2499    4.3467    1.0979 H   0  0  0  0  0  0  0  0  0  0  0  0
    1.5600    3.9557    1.0803 H   0  0  0  0  0  0  0  0  0  0  0  0
    1.5060    0.7236    3.2326 H   0  0  0  0  0  0  0  0  0  0  0  0
   -3.4602    3.7555    0.9359 H   0  0  0  0  0  0  0  0  0  0  0  0
   -6.4498    2.7807    0.9197 H   0  0  0  0  0  0  0  0  0  0  0  0
  1  2  2  0  0  0  0
  2  3  1  0  0  0  0
  3  4  2  0  0  0  0
  4  5  1  0  0  0  0
  5  6  2  0  0  0  0
  1  6  1  0  0  0  0
  6  7  1  0  0  0  0
  7  8  2  0  0  0  0
  8  9  1  0  0  0  0
  9 10  2  0  0  0  0
  9 11  1  0  0  0  0
 11 12  2  0  0  0  0
 12 13  1  0  0  0  0
  7 13  1  0  0  0  0
 12 14  1  0  0  0  0
 14 15  2  0  0  0  0
 15 16  1  0  0  0  0
 16 17  2  0  0  0  0
 11 17  1  0  0  0  0
 17 18  1  0  0  0  0
 15 19  1  0  0  0  0
 14 20  1  0  0  0  0
 20 21  1  0  0  0  0
 21 22  1  0  0  0  0
 22 23  1  0  0  0  0
 23 24  1  0  0  0  0
 24 25  1  0  0  0  0
 20 25  1  0  0  0  0
 24 26  1  0  0  0  0
 26 27  1  0  0  0  0
 23 28  1  0  0  0  0
 22 29  1  0  0  0  0
 21 30  1  0  0  0  0
  4 31  1  0  0  0  0
  3 32  1  0  0  0  0
  1 33  1  0  0  0  0
  2 34  1  0  0  0  0
  5 35  1  0  0  0  0
  8 36  1  0  0  0  0
 16 37  1  0  0  0  0
 18 38  1  0  0  0  0
 19 39  1  0  0  0  0
 20 40  1  0  0  0  0
 21 41  1  0  0  0  0
 22 42  1  0  0  0  0
 23 43  1  0  0  0  0
 24 44  1  0  0  0  0
 26 45  1  0  0  0  0
 26 46  1  0  0  0  0
 27 47  1  0  0  0  0
 28 48  1  0  0  0  0
 29 49  1  0  0  0  0
 30 50  1  0  0  0  0
 31 51  1  0  0  0  0
 32 52  1  0  0  0  0
M  END
$$$$
