C36H38N4O5
APtclcactv06281817113D 0   0.00000     0.00000
 
 83 88  0  0  0  0  0  0  0  0999 V2000
   -6.1479   -3.7096    1.8518 C   0  0  0  0  0  0  0  0  0  0  0  0
   -6.0764   -3.2599    0.3911 C   0  0  0  0  0  0  0  0  0  0  0  0
   -5.2067   -2.0337    0.2850 C   0  0  0  0  0  0  0  0  0  0  0  0
   -3.8223   -2.0210    0.0683 C   0  0  0  0  0  0  0  0  0  0  0  0
   -3.0087   -3.1440   -0.0677 C   0  0  0  0  0  0  0  0  0  0  0  0
   -1.6326   -2.9570   -0.2904 C   0  0  0  0  0  0  0  0  0  0  0  0
   -0.6641   -3.9700   -0.4209 C   0  0  0  0  0  0  0  0  0  0  0  0
    0.5489   -3.3329   -0.6496 C   0  0  0  0  0  0  0  0  0  0  0  0
    1.9766   -3.5178   -0.8910 C   0  0  0  0  0  0  0  0  0  0  0  0
    2.5734   -4.5737   -0.9353 O   0  0  0  0  0  0  0  0  0  0  0  0
    2.5677   -2.1375   -1.0753 C   0  0  0  0  0  0  0  0  0  0  0  0
    1.4372   -1.1624   -0.8764 C   0  0  0  0  0  0  0  0  0  0  0  0
    1.5126    0.2101   -0.9122 C   0  0  0  0  0  0  0  0  0  0  0  0
    2.7578    1.0236   -1.1832 C   0  0  0  0  0  0  0  0  0  0  0  0
    2.2481    2.4775   -1.1021 C   0  0  0  0  0  0  0  0  0  0  0  0
    0.7757    2.3087   -0.7721 C   0  0  0  0  0  0  0  0  0  0  0  0
    0.4931    1.0281   -0.7050 N   0  0  0  0  0  0  0  0  0  0  0  0
   -0.1034    3.3514   -0.5690 C   0  0  0  0  0  0  0  0  0  0  0  0
   -1.4539    3.1936   -0.2786 C   0  0  0  0  0  0  0  0  0  0  0  0
   -2.3268    4.2711   -0.0544 C   0  0  0  0  0  0  0  0  0  0  0  0
   -3.5846    3.7533    0.1893 C   0  0  0  0  0  0  0  0  0  0  0  0
   -3.4845    2.3336    0.1109 C   0  0  0  0  0  0  0  0  0  0  0  0
   -4.5567    1.4844    0.2798 C   0  0  0  0  0  0  0  0  0  0  0  0
   -4.5075    0.0968    0.2269 C   0  0  0  0  0  0  0  0  0  0  0  0
   -5.6285   -0.7414    0.3770 C   0  0  0  0  0  0  0  0  0  0  0  0
   -7.0478   -0.2883    0.6034 C   0  0  0  0  0  0  0  0  0  0  0  0
   -3.4092   -0.7030    0.0196 N   0  0  0  0  0  0  0  0  0  0  0  0
   -2.1711    2.0242   -0.1603 N   0  0  0  0  0  0  0  0  0  0  0  0
   -4.8055    4.5270    0.4782 C   0  0  0  0  0  0  0  0  0  0  0  0
   -5.1197    5.5774   -0.2727 C   0  0  0  0  0  0  0  0  0  0  0  0
   -1.9572    5.7320   -0.0752 C   0  0  0  0  0  0  0  0  0  0  0  0
    2.9679    3.2419    0.0108 C   0  0  0  0  0  0  0  0  0  0  0  0
    3.8194    0.7614   -0.1131 C   0  0  0  0  0  0  0  0  0  0  0  0
    5.1548    1.3577   -0.5627 C   0  0  0  0  0  0  0  0  0  0  0  0
    6.1602    1.2363    0.5533 C   0  0  0  0  0  0  0  0  0  0  0  0
    5.8745    0.6340    1.5610 O   0  0  0  0  0  0  0  0  0  0  0  0
    7.3732    1.7973    0.4277 O   0  0  0  0  0  0  0  0  0  0  0  0
    8.3295    1.5446    1.4908 C   0  0  0  0  0  0  0  0  0  0  0  0
    0.2522   -1.8931   -0.6423 C   0  0  0  0  0  0  0  0  0  0  0  0
   -1.0514   -1.7548   -0.4133 N   0  0  0  0  0  0  0  0  0  0  0  0
    3.6463   -1.8954   -0.0511 C   0  0  0  0  0  0  0  0  0  0  0  0
    4.8015   -1.8191   -0.3969 O   0  0  0  0  0  0  0  0  0  0  0  0
    3.3237   -1.7647    1.2453 O   0  0  0  0  0  0  0  0  0  0  0  0
    4.4069   -1.4771    2.1684 C   0  0  0  0  0  0  0  0  0  0  0  0
   -0.8974   -5.4560   -0.3295 C   0  0  0  0  0  0  0  0  0  0  0  0
   -6.5725   -2.9094    2.4580 H   0  0  0  0  0  0  0  0  0  0  0  0
   -6.7769   -4.5964    1.9286 H   0  0  0  0  0  0  0  0  0  0  0  0
   -5.1451   -3.9433    2.2095 H   0  0  0  0  0  0  0  0  0  0  0  0
   -5.6517   -4.0601   -0.2150 H   0  0  0  0  0  0  0  0  0  0  0  0
   -7.0791   -3.0262    0.0334 H   0  0  0  0  0  0  0  0  0  0  0  0
   -3.4263   -4.1379   -0.0032 H   0  0  0  0  0  0  0  0  0  0  0  0
    2.9766   -2.0366   -2.0806 H   0  0  0  0  0  0  0  0  0  0  0  0
    3.1511    0.8076   -2.1766 H   0  0  0  0  0  0  0  0  0  0  0  0
    2.3731    2.9838   -2.0593 H   0  0  0  0  0  0  0  0  0  0  0  0
    0.2828    4.3575   -0.6399 H   0  0  0  0  0  0  0  0  0  0  0  0
   -5.5187    1.9368    0.4701 H   0  0  0  0  0  0  0  0  0  0  0  0
   -7.5441   -0.1542   -0.3578 H   0  0  0  0  0  0  0  0  0  0  0  0
   -7.5807   -1.0399    1.1857 H   0  0  0  0  0  0  0  0  0  0  0  0
   -7.0452    0.6571    1.1459 H   0  0  0  0  0  0  0  0  0  0  0  0
   -2.5021   -0.3959   -0.1347 H   0  0  0  0  0  0  0  0  0  0  0  0
   -1.8099    1.1288   -0.2535 H   0  0  0  0  0  0  0  0  0  0  0  0
   -5.4448    4.2403    1.3001 H   0  0  0  0  0  0  0  0  0  0  0  0
   -5.9664    6.1946   -0.0108 H   0  0  0  0  0  0  0  0  0  0  0  0
   -4.5284    5.8139   -1.1449 H   0  0  0  0  0  0  0  0  0  0  0  0
   -2.0783    6.1231   -1.0854 H   0  0  0  0  0  0  0  0  0  0  0  0
   -2.6064    6.2807    0.6071 H   0  0  0  0  0  0  0  0  0  0  0  0
   -0.9197    5.8487    0.2377 H   0  0  0  0  0  0  0  0  0  0  0  0
    4.0135    3.3828   -0.2628 H   0  0  0  0  0  0  0  0  0  0  0  0
    2.4943    4.2139    0.1489 H   0  0  0  0  0  0  0  0  0  0  0  0
    2.9086    2.6736    0.9390 H   0  0  0  0  0  0  0  0  0  0  0  0
    3.5121    1.2243    0.8246 H   0  0  0  0  0  0  0  0  0  0  0  0
    3.9317   -0.3130    0.0317 H   0  0  0  0  0  0  0  0  0  0  0  0
    5.5169    0.8189   -1.4383 H   0  0  0  0  0  0  0  0  0  0  0  0
    5.0167    2.4092   -0.8146 H   0  0  0  0  0  0  0  0  0  0  0  0
    9.2358    2.1224    1.3091 H   0  0  0  0  0  0  0  0  0  0  0  0
    7.8964    1.8392    2.4467 H   0  0  0  0  0  0  0  0  0  0  0  0
    8.5742    0.4827    1.5145 H   0  0  0  0  0  0  0  0  0  0  0  0
    4.5222   -0.3978    2.2683 H   0  0  0  0  0  0  0  0  0  0  0  0
    4.1788   -1.9099    3.1424 H   0  0  0  0  0  0  0  0  0  0  0  0
    5.3330   -1.9076    1.7873 H   0  0  0  0  0  0  0  0  0  0  0  0
   -1.9542   -5.6470   -0.1425 H   0  0  0  0  0  0  0  0  0  0  0  0
   -0.6031   -5.9284   -1.2666 H   0  0  0  0  0  0  0  0  0  0  0  0
   -0.3039   -5.8674    0.4870 H   0  0  0  0  0  0  0  0  0  0  0  0
  1  2  1  0  0  0  0
  2  3  1  0  0  0  0
  3  4  2  0  0  0  0
  4  5  1  0  0  0  0
  5  6  2  0  0  0  0
  6  7  1  0  0  0  0
  7  8  2  0  0  0  0
  8  9  1  0  0  0  0
  9 10  2  0  0  0  0
  9 11  1  0  0  0  0
 11 12  1  0  0  0  0
 12 13  2  0  0  0  0
 13 14  1  0  0  0  0
 14 15  1  0  0  0  0
 15 16  1  0  0  0  0
 16 17  2  0  0  0  0
 13 17  1  0  0  0  0
 16 18  1  0  0  0  0
 18 19  2  0  0  0  0
 19 20  1  0  0  0  0
 20 21  2  0  0  0  0
 21 22  1  0  0  0  0
 22 23  2  0  0  0  0
 23 24  1  0  0  0  0
 24 25  2  0  0  0  0
  3 25  1  0  0  0  0
 25 26  1  0  0  0  0
 24 27  1  0  0  0  0
  4 27  1  0  0  0  0
 22 28  1  0  0  0  0
 19 28  1  0  0  0  0
 21 29  1  0  0  0  0
 29 30  2  0  0  0  0
 20 31  1  0  0  0  0
 15 32  1  0  0  0  0
 14 33  1  0  0  0  0
 33 34  1  0  0  0  0
 34 35  1  0  0  0  0
 35 36  2  0  0  0  0
 35 37  1  0  0  0  0
 37 38  1  0  0  0  0
 12 39  1  0  0  0  0
  8 39  1  0  0  0  0
 39 40  2  0  0  0  0
  6 40  1  0  0  0  0
 11 41  1  0  0  0  0
 41 42  2  0  0  0  0
 41 43  1  0  0  0  0
 43 44  1  0  0  0  0
  7 45  1  0  0  0  0
  1 46  1  0  0  0  0
  1 47  1  0  0  0  0
  1 48  1  0  0  0  0
  2 49  1  0  0  0  0
  2 50  1  0  0  0  0
  5 51  1  0  0  0  0
 11 52  1  0  0  0  0
 14 53  1  0  0  0  0
 15 54  1  0  0  0  0
 18 55  1  0  0  0  0
 23 56  1  0  0  0  0
 26 57  1  0  0  0  0
 26 58  1  0  0  0  0
 26 59  1  0  0  0  0
 27 60  1  0  0  0  0
 28 61  1  0  0  0  0
 29 62  1  0  0  0  0
 30 63  1  0  0  0  0
 30 64  1  0  0  0  0
 31 65  1  0  0  0  0
 31 66  1  0  0  0  0
 31 67  1  0  0  0  0
 32 68  1  0  0  0  0
 32 69  1  0  0  0  0
 32 70  1  0  0  0  0
 33 71  1  0  0  0  0
 33 72  1  0  0  0  0
 34 73  1  0  0  0  0
 34 74  1  0  0  0  0
 38 75  1  0  0  0  0
 38 76  1  0  0  0  0
 38 77  1  0  0  0  0
 44 78  1  0  0  0  0
 44 79  1  0  0  0  0
 44 80  1  0  0  0  0
 45 81  1  0  0  0  0
 45 82  1  0  0  0  0
 45 83  1  0  0  0  0
M  END
$$$$
