C19H18O9
APtclcactv06281817113D 0   0.00000     0.00000
 
 46 48  0  0  0  0  0  0  0  0999 V2000
   -4.9700   -1.3472    2.2517 C   0  0  0  0  0  0  0  0  0  0  0  0
   -5.4445   -0.3526    1.3419 O   0  0  0  0  0  0  0  0  0  0  0  0
   -4.5302    0.2023    0.5019 C   0  0  0  0  0  0  0  0  0  0  0  0
   -4.9251    1.1785   -0.4110 C   0  0  0  0  0  0  0  0  0  0  0  0
   -3.9950    1.7472   -1.2699 C   0  0  0  0  0  0  0  0  0  0  0  0
   -2.6761    1.3493   -1.2242 C   0  0  0  0  0  0  0  0  0  0  0  0
   -2.2728    0.3711   -0.3109 C   0  0  0  0  0  0  0  0  0  0  0  0
   -3.2088   -0.1977    0.5576 C   0  0  0  0  0  0  0  0  0  0  0  0
   -0.8624   -0.0561   -0.2602 C   0  0  0  0  0  0  0  0  0  0  0  0
   -0.5810   -1.3894   -0.2388 C   0  0  0  0  0  0  0  0  0  0  0  0
    0.7707   -1.8170   -0.1905 C   0  0  0  0  0  0  0  0  0  0  0  0
    1.0603   -3.0028   -0.1707 O   0  0  0  0  0  0  0  0  0  0  0  0
    1.8105   -0.7756   -0.1658 C   0  0  0  0  0  0  0  0  0  0  0  0
    1.4116    0.5723   -0.1911 C   0  0  0  0  0  0  0  0  0  0  0  0
    0.0980    0.8835   -0.2423 O   0  0  0  0  0  0  0  0  0  0  0  0
    2.3777    1.5715   -0.1683 C   0  0  0  0  0  0  0  0  0  0  0  0
    3.7234    1.2351   -0.1209 C   0  0  0  0  0  0  0  0  0  0  0  0
    4.1198   -0.1006   -0.0958 C   0  0  0  0  0  0  0  0  0  0  0  0
    3.1699   -1.1085   -0.1175 C   0  0  0  0  0  0  0  0  0  0  0  0
    3.5546   -2.4119   -0.0931 O   0  0  0  0  0  0  0  0  0  0  0  0
    5.4435   -0.4156   -0.0493 O   0  0  0  0  0  0  0  0  0  0  0  0
    6.0324   -0.5542    1.2453 C   0  0  0  0  0  0  0  0  0  0  0  0
    4.6631    2.2173   -0.0993 O   0  0  0  0  0  0  0  0  0  0  0  0
    2.0037    2.8805   -0.1930 O   0  0  0  0  0  0  0  0  0  0  0  0
    1.7832    3.5161    1.0678 C   0  0  0  0  0  0  0  0  0  0  0  0
   -1.5889   -2.3035   -0.2632 O   0  0  0  0  0  0  0  0  0  0  0  0
   -1.6785   -3.1399   -1.4184 C   0  0  0  0  0  0  0  0  0  0  0  0
   -6.2241    1.5742   -0.4606 O   0  0  0  0  0  0  0  0  0  0  0  0
   -4.5446   -2.1794    1.6907 H   0  0  0  0  0  0  0  0  0  0  0  0
   -4.2047   -0.9146    2.8962 H   0  0  0  0  0  0  0  0  0  0  0  0
   -5.7986   -1.7063    2.8620 H   0  0  0  0  0  0  0  0  0  0  0  0
   -4.3054    2.5032   -1.9760 H   0  0  0  0  0  0  0  0  0  0  0  0
   -1.9546    1.7929   -1.8941 H   0  0  0  0  0  0  0  0  0  0  0  0
   -2.9014   -0.9535    1.2650 H   0  0  0  0  0  0  0  0  0  0  0  0
    3.6372   -2.7810    0.7969 H   0  0  0  0  0  0  0  0  0  0  0  0
    5.9353    0.3844    1.7910 H   0  0  0  0  0  0  0  0  0  0  0  0
    5.5232   -1.3472    1.7931 H   0  0  0  0  0  0  0  0  0  0  0  0
    7.0877   -0.8055    1.1395 H   0  0  0  0  0  0  0  0  0  0  0  0
    4.9059    2.5098    0.7898 H   0  0  0  0  0  0  0  0  0  0  0  0
    0.9899    2.9949    1.6036 H   0  0  0  0  0  0  0  0  0  0  0  0
    2.7004    3.4845    1.6559 H   0  0  0  0  0  0  0  0  0  0  0  0
    1.4912    4.5536    0.9055 H   0  0  0  0  0  0  0  0  0  0  0  0
   -2.5792   -3.7506   -1.3559 H   0  0  0  0  0  0  0  0  0  0  0  0
   -1.7217   -2.5195   -2.3136 H   0  0  0  0  0  0  0  0  0  0  0  0
   -0.8031   -3.7874   -1.4669 H   0  0  0  0  0  0  0  0  0  0  0  0
   -6.4317    2.3164    0.1234 H   0  0  0  0  0  0  0  0  0  0  0  0
  1  2  1  0  0  0  0
  2  3  1  0  0  0  0
  3  4  2  0  0  0  0
  4  5  1  0  0  0  0
  5  6  2  0  0  0  0
  6  7  1  0  0  0  0
  7  8  2  0  0  0  0
  3  8  1  0  0  0  0
  7  9  1  0  0  0  0
  9 10  2  0  0  0  0
 10 11  1  0  0  0  0
 11 12  2  0  0  0  0
 11 13  1  0  0  0  0
 13 14  2  0  0  0  0
 14 15  1  0  0  0  0
  9 15  1  0  0  0  0
 14 16  1  0  0  0  0
 16 17  2  0  0  0  0
 17 18  1  0  0  0  0
 18 19  2  0  0  0  0
 13 19  1  0  0  0  0
 19 20  1  0  0  0  0
 18 21  1  0  0  0  0
 21 22  1  0  0  0  0
 17 23  1  0  0  0  0
 16 24  1  0  0  0  0
 24 25  1  0  0  0  0
 10 26  1  0  0  0  0
 26 27  1  0  0  0  0
  4 28  1  0  0  0  0
  1 29  1  0  0  0  0
  1 30  1  0  0  0  0
  1 31  1  0  0  0  0
  5 32  1  0  0  0  0
  6 33  1  0  0  0  0
  8 34  1  0  0  0  0
 20 35  1  0  0  0  0
 22 36  1  0  0  0  0
 22 37  1  0  0  0  0
 22 38  1  0  0  0  0
 23 39  1  0  0  0  0
 25 40  1  0  0  0  0
 25 41  1  0  0  0  0
 25 42  1  0  0  0  0
 27 43  1  0  0  0  0
 27 44  1  0  0  0  0
 27 45  1  0  0  0  0
 28 46  1  0  0  0  0
M  END
$$$$
