C14H9NO5
APtclcactv06281817113D 0   0.00000     0.00000
 
 29 32  0  0  0  0  0  0  0  0999 V2000
    4.5608   -1.1318   -0.3228 C   0  0  0  0  0  0  0  0  0  0  0  0
    3.4798   -1.9916    0.0825 O   0  0  0  0  0  0  0  0  0  0  0  0
    2.3632   -1.2077    0.0656 C   0  0  0  0  0  0  0  0  0  0  0  0
    2.7588    0.1299    0.0641 C   0  0  0  0  0  0  0  0  0  0  0  0
    4.1247    0.1797    0.0800 O   0  0  0  0  0  0  0  0  0  0  0  0
    1.8098    1.1421    0.0482 C   0  0  0  0  0  0  0  0  0  0  0  0
    0.4490    0.8155    0.0329 C   0  0  0  0  0  0  0  0  0  0  0  0
    0.0560   -0.5414    0.0350 C   0  0  0  0  0  0  0  0  0  0  0  0
    1.0167   -1.5416    0.0510 C   0  0  0  0  0  0  0  0  0  0  0  0
   -1.3864   -0.8536    0.0183 C   0  0  0  0  0  0  0  0  0  0  0  0
   -2.3126    0.1974   -0.0012 C   0  0  0  0  0  0  0  0  0  0  0  0
   -3.6772   -0.0964   -0.0177 C   0  0  0  0  0  0  0  0  0  0  0  0
   -4.1014   -1.4125   -0.0133 C   0  0  0  0  0  0  0  0  0  0  0  0
   -3.1806   -2.4481    0.0062 C   0  0  0  0  0  0  0  0  0  0  0  0
   -1.8297   -2.1761    0.0223 C   0  0  0  0  0  0  0  0  0  0  0  0
   -4.5894    0.9117   -0.0375 O   0  0  0  0  0  0  0  0  0  0  0  0
   -1.8880    1.5182   -0.0037 N   0  0  0  0  0  0  0  0  0  0  0  0
   -0.5858    1.8534    0.0135 C   0  0  0  0  0  0  0  0  0  0  0  0
   -0.2640    3.0276    0.0124 O   0  0  0  0  0  0  0  0  0  0  0  0
    2.1994    2.4429    0.0479 O   0  0  0  0  0  0  0  0  0  0  0  0
    5.4813   -1.4046    0.1934 H   0  0  0  0  0  0  0  0  0  0  0  0
    4.6995   -1.1743   -1.4031 H   0  0  0  0  0  0  0  0  0  0  0  0
    0.7170   -2.5792    0.0532 H   0  0  0  0  0  0  0  0  0  0  0  0
   -5.1581   -1.6351   -0.0257 H   0  0  0  0  0  0  0  0  0  0  0  0
   -3.5231   -3.4723    0.0098 H   0  0  0  0  0  0  0  0  0  0  0  0
   -1.1152   -2.9858    0.0371 H   0  0  0  0  0  0  0  0  0  0  0  0
   -4.8412    1.1969   -0.9266 H   0  0  0  0  0  0  0  0  0  0  0  0
   -2.5532    2.2240   -0.0180 H   0  0  0  0  0  0  0  0  0  0  0  0
    2.3233    2.8162   -0.8355 H   0  0  0  0  0  0  0  0  0  0  0  0
  1  2  1  0  0  0  0
  2  3  1  0  0  0  0
  3  4  2  0  0  0  0
  4  5  1  0  0  0  0
  1  5  1  0  0  0  0
  4  6  1  0  0  0  0
  6  7  2  0  0  0  0
  7  8  1  0  0  0  0
  8  9  2  0  0  0  0
  3  9  1  0  0  0  0
  8 10  1  0  0  0  0
 10 11  2  0  0  0  0
 11 12  1  0  0  0  0
 12 13  2  0  0  0  0
 13 14  1  0  0  0  0
 14 15  2  0  0  0  0
 10 15  1  0  0  0  0
 12 16  1  0  0  0  0
 11 17  1  0  0  0  0
 17 18  1  0  0  0  0
  7 18  1  0  0  0  0
 18 19  2  0  0  0  0
  6 20  1  0  0  0  0
  1 21  1  0  0  0  0
  1 22  1  0  0  0  0
  9 23  1  0  0  0  0
 13 24  1  0  0  0  0
 14 25  1  0  0  0  0
 15 26  1  0  0  0  0
 16 27  1  0  0  0  0
 17 28  1  0  0  0  0
 20 29  1  0  0  0  0
M  END
$$$$
