C15H28O2
APtclcactv06291802533D 0   0.00000     0.00000
 
 45 44  0  0  0  0  0  0  0  0999 V2000
    9.7341    0.7515   -0.1629 C   0  0  0  0  0  0  0  0  0  0  0  0
    8.5401   -0.2006   -0.2561 C   0  0  0  0  0  0  0  0  0  0  0  0
    7.2434    0.5863   -0.0549 C   0  0  0  0  0  0  0  0  0  0  0  0
    6.0494   -0.3659   -0.1481 C   0  0  0  0  0  0  0  0  0  0  0  0
    4.7527    0.4210    0.0531 C   0  0  0  0  0  0  0  0  0  0  0  0
    3.5587   -0.5312   -0.0401 C   0  0  0  0  0  0  0  0  0  0  0  0
    2.2621    0.2557    0.1611 C   0  0  0  0  0  0  0  0  0  0  0  0
    1.0681   -0.6965    0.0680 C   0  0  0  0  0  0  0  0  0  0  0  0
   -0.2286    0.0904    0.2691 C   0  0  0  0  0  0  0  0  0  0  0  0
   -1.4226   -0.8618    0.1760 C   0  0  0  0  0  0  0  0  0  0  0  0
   -2.7193   -0.0749    0.3771 C   0  0  0  0  0  0  0  0  0  0  0  0
   -3.9133   -1.0271    0.2840 C   0  0  0  0  0  0  0  0  0  0  0  0
   -5.1904   -0.2521    0.4821 C   0  0  0  0  0  0  0  0  0  0  0  0
   -6.1541   -0.3120   -0.4339 C   0  0  0  0  0  0  0  0  0  0  0  0
   -7.3994    0.4437   -0.2407 C   0  0  0  0  0  0  0  0  0  0  0  0
   -7.5494    1.1235    0.7555 O   0  0  0  0  0  0  0  0  0  0  0  0
   -8.3755    0.3830   -1.1685 O   0  0  0  0  0  0  0  0  0  0  0  0
    9.7452    1.2255    0.8186 H   0  0  0  0  0  0  0  0  0  0  0  0
   10.6578    0.1910   -0.3062 H   0  0  0  0  0  0  0  0  0  0  0  0
    9.6498    1.5165   -0.9348 H   0  0  0  0  0  0  0  0  0  0  0  0
    8.5289   -0.6745   -1.2376 H   0  0  0  0  0  0  0  0  0  0  0  0
    8.6243   -0.9656    0.5158 H   0  0  0  0  0  0  0  0  0  0  0  0
    7.2545    1.0602    0.9266 H   0  0  0  0  0  0  0  0  0  0  0  0
    7.1592    1.3512   -0.8268 H   0  0  0  0  0  0  0  0  0  0  0  0
    6.0383   -0.8398   -1.1296 H   0  0  0  0  0  0  0  0  0  0  0  0
    6.1336   -1.1309    0.6238 H   0  0  0  0  0  0  0  0  0  0  0  0
    4.7638    0.8949    1.0346 H   0  0  0  0  0  0  0  0  0  0  0  0
    4.6685    1.1859   -0.7188 H   0  0  0  0  0  0  0  0  0  0  0  0
    3.5476   -1.0051   -1.0216 H   0  0  0  0  0  0  0  0  0  0  0  0
    3.6430   -1.2962    0.7318 H   0  0  0  0  0  0  0  0  0  0  0  0
    2.2732    0.7296    1.1426 H   0  0  0  0  0  0  0  0  0  0  0  0
    2.1778    1.0206   -0.6108 H   0  0  0  0  0  0  0  0  0  0  0  0
    1.0570   -1.1704   -0.9136 H   0  0  0  0  0  0  0  0  0  0  0  0
    1.1523   -1.4615    0.8398 H   0  0  0  0  0  0  0  0  0  0  0  0
   -0.2175    0.5643    1.2506 H   0  0  0  0  0  0  0  0  0  0  0  0
   -0.3128    0.8553   -0.5028 H   0  0  0  0  0  0  0  0  0  0  0  0
   -1.4337   -1.3357   -0.8056 H   0  0  0  0  0  0  0  0  0  0  0  0
   -1.3384   -1.6268    0.9478 H   0  0  0  0  0  0  0  0  0  0  0  0
   -2.7082    0.3990    1.3586 H   0  0  0  0  0  0  0  0  0  0  0  0
   -2.8035    0.6900   -0.3948 H   0  0  0  0  0  0  0  0  0  0  0  0
   -3.9244   -1.5010   -0.6976 H   0  0  0  0  0  0  0  0  0  0  0  0
   -3.8290   -1.7921    1.0558 H   0  0  0  0  0  0  0  0  0  0  0  0
   -5.3237    0.3520    1.3673 H   0  0  0  0  0  0  0  0  0  0  0  0
   -6.0208   -0.9161   -1.3192 H   0  0  0  0  0  0  0  0  0  0  0  0
   -9.1763    0.8973   -0.9975 H   0  0  0  0  0  0  0  0  0  0  0  0
  1  2  1  0  0  0  0
  2  3  1  0  0  0  0
  3  4  1  0  0  0  0
  4  5  1  0  0  0  0
  5  6  1  0  0  0  0
  6  7  1  0  0  0  0
  7  8  1  0  0  0  0
  8  9  1  0  0  0  0
  9 10  1  0  0  0  0
 10 11  1  0  0  0  0
 11 12  1  0  0  0  0
 12 13  1  0  0  0  0
 13 14  2  0  0  0  0
 14 15  1  0  0  0  0
 15 16  2  0  0  0  0
 15 17  1  0  0  0  0
  1 18  1  0  0  0  0
  1 19  1  0  0  0  0
  1 20  1  0  0  0  0
  2 21  1  0  0  0  0
  2 22  1  0  0  0  0
  3 23  1  0  0  0  0
  3 24  1  0  0  0  0
  4 25  1  0  0  0  0
  4 26  1  0  0  0  0
  5 27  1  0  0  0  0
  5 28  1  0  0  0  0
  6 29  1  0  0  0  0
  6 30  1  0  0  0  0
  7 31  1  0  0  0  0
  7 32  1  0  0  0  0
  8 33  1  0  0  0  0
  8 34  1  0  0  0  0
  9 35  1  0  0  0  0
  9 36  1  0  0  0  0
 10 37  1  0  0  0  0
 10 38  1  0  0  0  0
 11 39  1  0  0  0  0
 11 40  1  0  0  0  0
 12 41  1  0  0  0  0
 12 42  1  0  0  0  0
 13 43  1  0  0  0  0
 14 44  1  0  0  0  0
 17 45  1  0  0  0  0
M  END
$$$$
