C42H32O9
APtclcactv06281817113D 0   0.00000     0.00000
 
 83 90  0  0  0  0  0  0  0  0999 V2000
   -4.8718   -2.0420   -0.0963 C   0  0  0  0  0  0  0  0  0  0  0  0
   -5.9405   -2.6629    0.5129 C   0  0  0  0  0  0  0  0  0  0  0  0
   -7.1902   -2.0565    0.5144 C   0  0  0  0  0  0  0  0  0  0  0  0
   -7.3690   -0.8224   -0.0975 C   0  0  0  0  0  0  0  0  0  0  0  0
   -6.3062   -0.1936   -0.7089 C   0  0  0  0  0  0  0  0  0  0  0  0
   -5.0467   -0.7999   -0.7130 C   0  0  0  0  0  0  0  0  0  0  0  0
   -3.9070   -0.1314   -1.3650 C   0  0  0  0  0  0  0  0  0  0  0  0
   -2.6765   -0.6611   -1.2742 C   0  0  0  0  0  0  0  0  0  0  0  0
   -1.5177    0.0693   -1.8184 C   0  0  0  0  0  0  0  0  0  0  0  0
   -1.6730    1.3712   -2.3026 C   0  0  0  0  0  0  0  0  0  0  0  0
   -0.5755    2.0458   -2.8108 C   0  0  0  0  0  0  0  0  0  0  0  0
    0.6698    1.4393   -2.8377 C   0  0  0  0  0  0  0  0  0  0  0  0
    0.8369    0.1431   -2.3539 C   0  0  0  0  0  0  0  0  0  0  0  0
   -0.2621   -0.5327   -1.8470 C   0  0  0  0  0  0  0  0  0  0  0  0
    0.2158   -1.9084   -1.4245 C   0  0  0  0  0  0  0  0  0  0  0  0
    1.5895   -2.0002   -2.1301 C   0  0  0  0  0  0  0  0  0  0  0  0
    1.9635   -0.6180   -2.2739 O   0  0  0  0  0  0  0  0  0  0  0  0
    2.5849   -2.7331   -1.2681 C   0  0  0  0  0  0  0  0  0  0  0  0
    2.5701   -4.1148   -1.2192 C   0  0  0  0  0  0  0  0  0  0  0  0
    3.4815   -4.7890   -0.4298 C   0  0  0  0  0  0  0  0  0  0  0  0
    4.4121   -4.0785    0.3144 C   0  0  0  0  0  0  0  0  0  0  0  0
    4.4248   -2.6922    0.2637 C   0  0  0  0  0  0  0  0  0  0  0  0
    3.5150   -2.0229   -0.5317 C   0  0  0  0  0  0  0  0  0  0  0  0
    5.3094   -4.7394    1.0922 O   0  0  0  0  0  0  0  0  0  0  0  0
    0.3727   -1.9878    0.0722 C   0  0  0  0  0  0  0  0  0  0  0  0
    0.7255   -3.1848    0.6673 C   0  0  0  0  0  0  0  0  0  0  0  0
    0.8685   -3.2518    2.0462 C   0  0  0  0  0  0  0  0  0  0  0  0
    0.6630   -2.1251    2.8237 C   0  0  0  0  0  0  0  0  0  0  0  0
    0.3116   -0.9176    2.2274 C   0  0  0  0  0  0  0  0  0  0  0  0
    0.1701   -0.8659    0.8462 C   0  0  0  0  0  0  0  0  0  0  0  0
   -0.2351    0.5525    0.4940 C   0  0  0  0  0  0  0  0  0  0  0  0
   -0.6657    1.1136    1.8698 C   0  0  0  0  0  0  0  0  0  0  0  0
    0.0821    0.2999    2.7918 O   0  0  0  0  0  0  0  0  0  0  0  0
   -0.2737    2.5627    2.0019 C   0  0  0  0  0  0  0  0  0  0  0  0
   -1.1572    3.5544    1.6176 C   0  0  0  0  0  0  0  0  0  0  0  0
   -0.8002    4.8836    1.7377 C   0  0  0  0  0  0  0  0  0  0  0  0
    0.4459    5.2229    2.2444 C   0  0  0  0  0  0  0  0  0  0  0  0
    1.3305    4.2259    2.6293 C   0  0  0  0  0  0  0  0  0  0  0  0
    0.9666    2.8984    2.5124 C   0  0  0  0  0  0  0  0  0  0  0  0
    0.7995    6.5297    2.3631 O   0  0  0  0  0  0  0  0  0  0  0  0
    0.9343    1.3247   -0.0604 C   0  0  0  0  0  0  0  0  0  0  0  0
    0.7173    2.4910   -0.7687 C   0  0  0  0  0  0  0  0  0  0  0  0
    1.7925    3.2036   -1.2805 C   0  0  0  0  0  0  0  0  0  0  0  0
    3.0852    2.7446   -1.0803 C   0  0  0  0  0  0  0  0  0  0  0  0
    3.3004    1.5743   -0.3688 C   0  0  0  0  0  0  0  0  0  0  0  0
    2.2221    0.8681    0.1454 C   0  0  0  0  0  0  0  0  0  0  0  0
    4.5664    1.1216   -0.1712 O   0  0  0  0  0  0  0  0  0  0  0  0
    1.5784    4.3502   -1.9779 O   0  0  0  0  0  0  0  0  0  0  0  0
    1.2111   -4.4276    2.6351 O   0  0  0  0  0  0  0  0  0  0  0  0
   -0.7211    3.3105   -3.2864 O   0  0  0  0  0  0  0  0  0  0  0  0
   -8.2410   -2.6726    1.1160 O   0  0  0  0  0  0  0  0  0  0  0  0
   -3.8996   -2.5124   -0.0935 H   0  0  0  0  0  0  0  0  0  0  0  0
   -5.8064   -3.6226    0.9896 H   0  0  0  0  0  0  0  0  0  0  0  0
   -8.3427   -0.3551   -0.0944 H   0  0  0  0  0  0  0  0  0  0  0  0
   -6.4463    0.7657   -1.1847 H   0  0  0  0  0  0  0  0  0  0  0  0
   -4.0612    0.7846   -1.9159 H   0  0  0  0  0  0  0  0  0  0  0  0
   -2.5359   -1.6224   -0.8024 H   0  0  0  0  0  0  0  0  0  0  0  0
   -2.6420    1.8475   -2.2809 H   0  0  0  0  0  0  0  0  0  0  0  0
    1.5180    1.9753   -3.2372 H   0  0  0  0  0  0  0  0  0  0  0  0
   -0.4602   -2.6835   -1.7855 H   0  0  0  0  0  0  0  0  0  0  0  0
    1.4924   -2.4807   -3.1037 H   0  0  0  0  0  0  0  0  0  0  0  0
    1.8452   -4.6675   -1.7985 H   0  0  0  0  0  0  0  0  0  0  0  0
    3.4693   -5.8683   -0.3917 H   0  0  0  0  0  0  0  0  0  0  0  0
    5.1483   -2.1368    0.8421 H   0  0  0  0  0  0  0  0  0  0  0  0
    3.5245   -0.9437   -0.5715 H   0  0  0  0  0  0  0  0  0  0  0  0
    6.1345   -4.9610    0.6392 H   0  0  0  0  0  0  0  0  0  0  0  0
    0.8888   -4.0641    0.0618 H   0  0  0  0  0  0  0  0  0  0  0  0
    0.7754   -2.1834    3.8962 H   0  0  0  0  0  0  0  0  0  0  0  0
   -1.0700    0.5565   -0.2068 H   0  0  0  0  0  0  0  0  0  0  0  0
   -1.7379    0.9872    2.0200 H   0  0  0  0  0  0  0  0  0  0  0  0
   -2.1270    3.2898    1.2229 H   0  0  0  0  0  0  0  0  0  0  0  0
   -1.4905    5.6578    1.4371 H   0  0  0  0  0  0  0  0  0  0  0  0
    2.3012    4.4875    3.0240 H   0  0  0  0  0  0  0  0  0  0  0  0
    1.6549    2.1219    2.8119 H   0  0  0  0  0  0  0  0  0  0  0  0
    0.5653    6.9248    3.2140 H   0  0  0  0  0  0  0  0  0  0  0  0
   -0.2900    2.8482   -0.9245 H   0  0  0  0  0  0  0  0  0  0  0  0
    3.9233    3.2976   -1.4781 H   0  0  0  0  0  0  0  0  0  0  0  0
    2.3892   -0.0436    0.6997 H   0  0  0  0  0  0  0  0  0  0  0  0
    4.9820    1.4554    0.6356 H   0  0  0  0  0  0  0  0  0  0  0  0
    1.5651    5.1470   -1.4302 H   0  0  0  0  0  0  0  0  0  0  0  0
    2.1648   -4.5583    2.7271 H   0  0  0  0  0  0  0  0  0  0  0  0
   -0.5892    3.9989   -2.6202 H   0  0  0  0  0  0  0  0  0  0  0  0
   -8.3478   -2.4459    2.0499 H   0  0  0  0  0  0  0  0  0  0  0  0
  1  2  2  0  0  0  0
  2  3  1  0  0  0  0
  3  4  2  0  0  0  0
  4  5  1  0  0  0  0
  5  6  2  0  0  0  0
  1  6  1  0  0  0  0
  6  7  1  0  0  0  0
  7  8  2  0  0  0  0
  8  9  1  0  0  0  0
  9 10  2  0  0  0  0
 10 11  1  0  0  0  0
 11 12  2  0  0  0  0
 12 13  1  0  0  0  0
 13 14  2  0  0  0  0
  9 14  1  0  0  0  0
 14 15  1  0  0  0  0
 15 16  1  0  0  0  0
 16 17  1  0  0  0  0
 13 17  1  0  0  0  0
 16 18  1  0  0  0  0
 18 19  2  0  0  0  0
 19 20  1  0  0  0  0
 20 21  2  0  0  0  0
 21 22  1  0  0  0  0
 22 23  2  0  0  0  0
 18 23  1  0  0  0  0
 21 24  1  0  0  0  0
 15 25  1  0  0  0  0
 25 26  2  0  0  0  0
 26 27  1  0  0  0  0
 27 28  2  0  0  0  0
 28 29  1  0  0  0  0
 29 30  2  0  0  0  0
 25 30  1  0  0  0  0
 30 31  1  0  0  0  0
 31 32  1  0  0  0  0
 32 33  1  0  0  0  0
 29 33  1  0  0  0  0
 32 34  1  0  0  0  0
 34 35  2  0  0  0  0
 35 36  1  0  0  0  0
 36 37  2  0  0  0  0
 37 38  1  0  0  0  0
 38 39  2  0  0  0  0
 34 39  1  0  0  0  0
 37 40  1  0  0  0  0
 31 41  1  0  0  0  0
 41 42  2  0  0  0  0
 42 43  1  0  0  0  0
 43 44  2  0  0  0  0
 44 45  1  0  0  0  0
 45 46  2  0  0  0  0
 41 46  1  0  0  0  0
 45 47  1  0  0  0  0
 43 48  1  0  0  0  0
 27 49  1  0  0  0  0
 11 50  1  0  0  0  0
  3 51  1  0  0  0  0
  1 52  1  0  0  0  0
  2 53  1  0  0  0  0
  4 54  1  0  0  0  0
  5 55  1  0  0  0  0
  7 56  1  0  0  0  0
  8 57  1  0  0  0  0
 10 58  1  0  0  0  0
 12 59  1  0  0  0  0
 15 60  1  0  0  0  0
 16 61  1  0  0  0  0
 19 62  1  0  0  0  0
 20 63  1  0  0  0  0
 22 64  1  0  0  0  0
 23 65  1  0  0  0  0
 24 66  1  0  0  0  0
 26 67  1  0  0  0  0
 28 68  1  0  0  0  0
 31 69  1  0  0  0  0
 32 70  1  0  0  0  0
 35 71  1  0  0  0  0
 36 72  1  0  0  0  0
 38 73  1  0  0  0  0
 39 74  1  0  0  0  0
 40 75  1  0  0  0  0
 42 76  1  0  0  0  0
 44 77  1  0  0  0  0
 46 78  1  0  0  0  0
 47 79  1  0  0  0  0
 48 80  1  0  0  0  0
 49 81  1  0  0  0  0
 50 82  1  0  0  0  0
 51 83  1  0  0  0  0
M  END
$$$$
