C9H14O
APtclcactv06291802533D 0   0.00000     0.00000
 
 24 24  0  0  0  0  0  0  0  0999 V2000
   -0.6781   -0.2786    1.4680 C   0  0  0  0  0  0  0  0  0  0  0  0
   -1.2602   -0.1224    0.0616 C   0  0  0  0  0  0  0  0  0  0  0  0
   -0.9679    1.2799   -0.4548 C   0  0  0  0  0  0  0  0  0  0  0  0
    0.3589    1.8033    0.0818 C   0  0  0  0  0  0  0  0  0  0  0  0
    1.5610    1.0992   -0.5012 C   0  0  0  0  0  0  0  0  0  0  0  0
    1.5346   -0.3668   -0.1157 C   0  0  0  0  0  0  0  0  0  0  0  0
    2.1892   -0.7817    0.8177 O   0  0  0  0  0  0  0  0  0  0  0  0
    0.6937   -1.2639   -0.9072 C   0  0  0  0  0  0  0  0  0  0  0  0
   -0.6295   -1.1506   -0.8642 C   0  0  0  0  0  0  0  0  0  0  0  0
   -2.7736   -0.3421    0.1096 C   0  0  0  0  0  0  0  0  0  0  0  0
   -1.2319    0.3530    2.1626 H   0  0  0  0  0  0  0  0  0  0  0  0
   -0.7581   -1.3197    1.7807 H   0  0  0  0  0  0  0  0  0  0  0  0
    0.3702    0.0197    1.4625 H   0  0  0  0  0  0  0  0  0  0  0  0
   -0.9285    1.2579   -1.5439 H   0  0  0  0  0  0  0  0  0  0  0  0
   -1.7687    1.9496   -0.1413 H   0  0  0  0  0  0  0  0  0  0  0  0
    0.4326    2.8668   -0.1454 H   0  0  0  0  0  0  0  0  0  0  0  0
    0.3717    1.6783    1.1645 H   0  0  0  0  0  0  0  0  0  0  0  0
    1.5418    1.1886   -1.5874 H   0  0  0  0  0  0  0  0  0  0  0  0
    2.4717    1.5586   -0.1168 H   0  0  0  0  0  0  0  0  0  0  0  0
    1.1494   -2.0206   -1.5285 H   0  0  0  0  0  0  0  0  0  0  0  0
   -1.2511   -1.7831   -1.4806 H   0  0  0  0  0  0  0  0  0  0  0  0
   -3.2266    0.3933    0.7745 H   0  0  0  0  0  0  0  0  0  0  0  0
   -3.1888   -0.2310   -0.8920 H   0  0  0  0  0  0  0  0  0  0  0  0
   -2.9834   -1.3453    0.4807 H   0  0  0  0  0  0  0  0  0  0  0  0
  1  2  1  0  0  0  0
  2  3  1  0  0  0  0
  3  4  1  0  0  0  0
  4  5  1  0  0  0  0
  5  6  1  0  0  0  0
  6  7  2  0  0  0  0
  6  8  1  0  0  0  0
  8  9  2  0  0  0  0
  2  9  1  0  0  0  0
  2 10  1  0  0  0  0
  1 11  1  0  0  0  0
  1 12  1  0  0  0  0
  1 13  1  0  0  0  0
  3 14  1  0  0  0  0
  3 15  1  0  0  0  0
  4 16  1  0  0  0  0
  4 17  1  0  0  0  0
  5 18  1  0  0  0  0
  5 19  1  0  0  0  0
  8 20  1  0  0  0  0
  9 21  1  0  0  0  0
 10 22  1  0  0  0  0
 10 23  1  0  0  0  0
 10 24  1  0  0  0  0
M  END
$$$$
