C21H23N3O2
APtclcactv06281817113D 0   0.00000     0.00000
 
 49 52  0  0  0  0  0  0  0  0999 V2000
   -0.5697    2.1623   -1.3637 C   0  0  0  0  0  0  0  0  0  0  0  0
   -1.6811    2.4904   -0.3647 C   0  0  0  0  0  0  0  0  0  0  0  0
   -2.9108    3.0092   -1.1166 C   0  0  0  0  0  0  0  0  0  0  0  0
   -4.0634    3.2034   -0.1287 C   0  0  0  0  0  0  0  0  0  0  0  0
   -4.4202    1.8601    0.5120 C   0  0  0  0  0  0  0  0  0  0  0  0
   -3.2075    1.3283    1.2824 C   0  0  0  0  0  0  0  0  0  0  0  0
   -2.0551    1.2758    0.3725 N   0  0  0  0  0  0  0  0  0  0  0  0
   -1.3436    0.1174    0.2145 C   0  0  0  0  0  0  0  0  0  0  0  0
   -0.0170    0.1388    0.1568 N   0  0  0  0  0  0  0  0  0  0  0  0
    0.6940   -0.9677    0.0050 C   0  0  0  0  0  0  0  0  0  0  0  0
    2.1557   -0.8613   -0.0496 C   0  0  0  0  0  0  0  0  0  0  0  0
    2.9357   -1.9876   -0.3462 C   0  0  0  0  0  0  0  0  0  0  0  0
    4.2951   -1.8867   -0.3966 C   0  0  0  0  0  0  0  0  0  0  0  0
    4.9277   -0.6721   -0.1562 C   0  0  0  0  0  0  0  0  0  0  0  0
    4.1916    0.4548    0.1382 C   0  0  0  0  0  0  0  0  0  0  0  0
    2.7891    0.3785    0.1905 C   0  0  0  0  0  0  0  0  0  0  0  0
    2.0649    1.4621    0.4739 O   0  0  0  0  0  0  0  0  0  0  0  0
    4.8201    1.6386    0.3729 O   0  0  0  0  0  0  0  0  0  0  0  0
    6.2471    1.6416    0.2976 C   0  0  0  0  0  0  0  0  0  0  0  0
    0.1260   -2.1993   -0.1020 N   0  0  0  0  0  0  0  0  0  0  0  0
   -1.2455   -2.3344   -0.0550 C   0  0  0  0  0  0  0  0  0  0  0  0
   -1.8655   -3.5723   -0.1604 C   0  0  0  0  0  0  0  0  0  0  0  0
   -3.2415   -3.6510   -0.1066 C   0  0  0  0  0  0  0  0  0  0  0  0
   -4.0113   -2.5068    0.0516 C   0  0  0  0  0  0  0  0  0  0  0  0
   -3.4211   -1.2779    0.1569 C   0  0  0  0  0  0  0  0  0  0  0  0
   -2.0300   -1.1755    0.1115 C   0  0  0  0  0  0  0  0  0  0  0  0
   -0.3803    3.0307   -1.9946 H   0  0  0  0  0  0  0  0  0  0  0  0
    0.3397    1.9010   -0.8227 H   0  0  0  0  0  0  0  0  0  0  0  0
   -0.8768    1.3215   -1.9856 H   0  0  0  0  0  0  0  0  0  0  0  0
   -1.3319    3.2511    0.3335 H   0  0  0  0  0  0  0  0  0  0  0  0
   -2.6728    3.9619   -1.5897 H   0  0  0  0  0  0  0  0  0  0  0  0
   -3.2027    2.2868   -1.8788 H   0  0  0  0  0  0  0  0  0  0  0  0
   -3.7620    3.9072    0.6472 H   0  0  0  0  0  0  0  0  0  0  0  0
   -4.9323    3.5959   -0.6570 H   0  0  0  0  0  0  0  0  0  0  0  0
   -5.2564    1.9949    1.1980 H   0  0  0  0  0  0  0  0  0  0  0  0
   -4.6979    1.1485   -0.2655 H   0  0  0  0  0  0  0  0  0  0  0  0
   -2.9843    1.9933    2.1167 H   0  0  0  0  0  0  0  0  0  0  0  0
   -3.4229    0.3278    1.6574 H   0  0  0  0  0  0  0  0  0  0  0  0
    2.4590   -2.9381   -0.5351 H   0  0  0  0  0  0  0  0  0  0  0  0
    4.8869   -2.7606   -0.6257 H   0  0  0  0  0  0  0  0  0  0  0  0
    6.0051   -0.6116   -0.2001 H   0  0  0  0  0  0  0  0  0  0  0  0
    6.6197    2.6447    0.5050 H   0  0  0  0  0  0  0  0  0  0  0  0
    6.6511    0.9449    1.0321 H   0  0  0  0  0  0  0  0  0  0  0  0
    6.5589    1.3375   -0.7016 H   0  0  0  0  0  0  0  0  0  0  0  0
    0.6865   -2.9833   -0.2119 H   0  0  0  0  0  0  0  0  0  0  0  0
   -1.2742   -4.4676   -0.2840 H   0  0  0  0  0  0  0  0  0  0  0  0
   -3.7252   -4.6131   -0.1887 H   0  0  0  0  0  0  0  0  0  0  0  0
   -5.0875   -2.5880    0.0915 H   0  0  0  0  0  0  0  0  0  0  0  0
   -4.0274   -0.3926    0.2790 H   0  0  0  0  0  0  0  0  0  0  0  0
  1  2  1  0  0  0  0
  2  3  1  0  0  0  0
  3  4  1  0  0  0  0
  4  5  1  0  0  0  0
  5  6  1  0  0  0  0
  6  7  1  0  0  0  0
  2  7  1  0  0  0  0
  7  8  1  0  0  0  0
  8  9  2  0  0  0  0
  9 10  1  0  0  0  0
 10 11  2  0  0  0  0
 11 12  1  0  0  0  0
 12 13  2  0  0  0  0
 13 14  1  0  0  0  0
 14 15  2  0  0  0  0
 15 16  1  0  0  0  0
 11 16  1  0  0  0  0
 16 17  2  0  0  0  0
 15 18  1  0  0  0  0
 18 19  1  0  0  0  0
 10 20  1  0  0  0  0
 20 21  1  0  0  0  0
 21 22  2  0  0  0  0
 22 23  1  0  0  0  0
 23 24  2  0  0  0  0
 24 25  1  0  0  0  0
 25 26  2  0  0  0  0
 21 26  1  0  0  0  0
  8 26  1  0  0  0  0
  1 27  1  0  0  0  0
  1 28  1  0  0  0  0
  1 29  1  0  0  0  0
  2 30  1  0  0  0  0
  3 31  1  0  0  0  0
  3 32  1  0  0  0  0
  4 33  1  0  0  0  0
  4 34  1  0  0  0  0
  5 35  1  0  0  0  0
  5 36  1  0  0  0  0
  6 37  1  0  0  0  0
  6 38  1  0  0  0  0
 12 39  1  0  0  0  0
 13 40  1  0  0  0  0
 14 41  1  0  0  0  0
 19 42  1  0  0  0  0
 19 43  1  0  0  0  0
 19 44  1  0  0  0  0
 20 45  1  0  0  0  0
 22 46  1  0  0  0  0
 23 47  1  0  0  0  0
 24 48  1  0  0  0  0
 25 49  1  0  0  0  0
M  END
$$$$
