C19H28O2
APtclcactv06211804363D 0   0.00000     0.00000
 
 49 52  0  0  0  0  0  0  0  0999 V2000
   -2.5478    0.7551    1.3349 C   0  0  0  0  0  0  0  0  0  0  0  0
   -2.5914    0.5464   -0.1802 C   0  0  0  0  0  0  0  0  0  0  0  0
   -1.8303    1.6596   -0.8742 C   0  0  0  0  0  0  0  0  0  0  0  0
   -0.4221    1.6971   -0.2596 C   0  0  0  0  0  0  0  0  0  0  0  0
    0.2912    0.3555   -0.3989 C   0  0  0  0  0  0  0  0  0  0  0  0
   -0.5483   -0.7988    0.1672 C   0  0  0  0  0  0  0  0  0  0  0  0
   -1.8871   -0.7872   -0.5482 C   0  0  0  0  0  0  0  0  0  0  0  0
   -2.9092   -1.8217   -0.0636 C   0  0  0  0  0  0  0  0  0  0  0  0
   -4.2644   -1.2056   -0.5061 C   0  0  0  0  0  0  0  0  0  0  0  0
   -4.0315    0.3233   -0.6299 C   0  0  0  0  0  0  0  0  0  0  0  0
   -4.9368    1.0324    0.2184 O   0  0  0  0  0  0  0  0  0  0  0  0
    0.1731   -2.1216   -0.1074 C   0  0  0  0  0  0  0  0  0  0  0  0
    1.4873   -2.1487    0.6759 C   0  0  0  0  0  0  0  0  0  0  0  0
    2.2999   -0.9200    0.3099 C   0  0  0  0  0  0  0  0  0  0  0  0
    3.5801   -1.0979   -0.0150 C   0  0  0  0  0  0  0  0  0  0  0  0
    4.4164    0.0564   -0.3615 C   0  0  0  0  0  0  0  0  0  0  0  0
    5.4319   -0.0634   -1.0146 O   0  0  0  0  0  0  0  0  0  0  0  0
    3.9439    1.4073    0.1394 C   0  0  0  0  0  0  0  0  0  0  0  0
    2.4700    1.5448   -0.2394 C   0  0  0  0  0  0  0  0  0  0  0  0
    1.6322    0.4202    0.3430 C   0  0  0  0  0  0  0  0  0  0  0  0
    1.3453    0.7534    1.8084 C   0  0  0  0  0  0  0  0  0  0  0  0
   -3.0581    1.6842    1.5885 H   0  0  0  0  0  0  0  0  0  0  0  0
   -3.0440   -0.0791    1.8310 H   0  0  0  0  0  0  0  0  0  0  0  0
   -1.5102    0.8087    1.6646 H   0  0  0  0  0  0  0  0  0  0  0  0
   -1.7638    1.4540   -1.9426 H   0  0  0  0  0  0  0  0  0  0  0  0
   -2.3332    2.6124   -0.7090 H   0  0  0  0  0  0  0  0  0  0  0  0
    0.1648    2.4656   -0.7627 H   0  0  0  0  0  0  0  0  0  0  0  0
   -0.5026    1.9487    0.7979 H   0  0  0  0  0  0  0  0  0  0  0  0
    0.4885    0.1665   -1.4541 H   0  0  0  0  0  0  0  0  0  0  0  0
   -0.6971   -0.6609    1.2381 H   0  0  0  0  0  0  0  0  0  0  0  0
   -1.7414   -0.8566   -1.6262 H   0  0  0  0  0  0  0  0  0  0  0  0
   -2.7453   -2.7830   -0.5505 H   0  0  0  0  0  0  0  0  0  0  0  0
   -2.8685   -1.9254    1.0207 H   0  0  0  0  0  0  0  0  0  0  0  0
   -4.5669   -1.6190   -1.4682 H   0  0  0  0  0  0  0  0  0  0  0  0
   -5.0291   -1.4055    0.2445 H   0  0  0  0  0  0  0  0  0  0  0  0
   -4.1549    0.6415   -1.6651 H   0  0  0  0  0  0  0  0  0  0  0  0
   -5.8690    0.8933    0.0023 H   0  0  0  0  0  0  0  0  0  0  0  0
   -0.4570   -2.9527    0.2093 H   0  0  0  0  0  0  0  0  0  0  0  0
    0.3826   -2.2077   -1.1736 H   0  0  0  0  0  0  0  0  0  0  0  0
    1.2756   -2.1415    1.7451 H   0  0  0  0  0  0  0  0  0  0  0  0
    2.0478   -3.0474    0.4183 H   0  0  0  0  0  0  0  0  0  0  0  0
    4.0018   -2.0921   -0.0235 H   0  0  0  0  0  0  0  0  0  0  0  0
    4.0547    1.4603    1.2225 H   0  0  0  0  0  0  0  0  0  0  0  0
    4.5234    2.2008   -0.3324 H   0  0  0  0  0  0  0  0  0  0  0  0
    2.0946    2.4977    0.1337 H   0  0  0  0  0  0  0  0  0  0  0  0
    2.3792    1.5293   -1.3255 H   0  0  0  0  0  0  0  0  0  0  0  0
    0.8018    1.6965    1.8670 H   0  0  0  0  0  0  0  0  0  0  0  0
    0.7436   -0.0407    2.2505 H   0  0  0  0  0  0  0  0  0  0  0  0
    2.2860    0.8419    2.3518 H   0  0  0  0  0  0  0  0  0  0  0  0
  1  2  1  0  0  0  0
  2  3  1  0  0  0  0
  3  4  1  0  0  0  0
  4  5  1  0  0  0  0
  5  6  1  0  0  0  0
  6  7  1  0  0  0  0
  2  7  1  0  0  0  0
  7  8  1  0  0  0  0
  8  9  1  0  0  0  0
  9 10  1  0  0  0  0
  2 10  1  0  0  0  0
 10 11  1  0  0  0  0
  6 12  1  0  0  0  0
 12 13  1  0  0  0  0
 13 14  1  0  0  0  0
 14 15  2  0  0  0  0
 15 16  1  0  0  0  0
 16 17  2  0  0  0  0
 16 18  1  0  0  0  0
 18 19  1  0  0  0  0
 19 20  1  0  0  0  0
  5 20  1  0  0  0  0
 14 20  1  0  0  0  0
 20 21  1  0  0  0  0
  1 22  1  0  0  0  0
  1 23  1  0  0  0  0
  1 24  1  0  0  0  0
  3 25  1  0  0  0  0
  3 26  1  0  0  0  0
  4 27  1  0  0  0  0
  4 28  1  0  0  0  0
  5 29  1  0  0  0  0
  6 30  1  0  0  0  0
  7 31  1  0  0  0  0
  8 32  1  0  0  0  0
  8 33  1  0  0  0  0
  9 34  1  0  0  0  0
  9 35  1  0  0  0  0
 10 36  1  0  0  0  0
 11 37  1  0  0  0  0
 12 38  1  0  0  0  0
 12 39  1  0  0  0  0
 13 40  1  0  0  0  0
 13 41  1  0  0  0  0
 15 42  1  0  0  0  0
 18 43  1  0  0  0  0
 18 44  1  0  0  0  0
 19 45  1  0  0  0  0
 19 46  1  0  0  0  0
 21 47  1  0  0  0  0
 21 48  1  0  0  0  0
 21 49  1  0  0  0  0
M  END
$$$$
