C18H20O5
APtclcactv06291802533D 0   0.00000     0.00000
 
 43 45  0  0  0  0  0  0  0  0999 V2000
    5.2293    2.6173   -0.2498 C   0  0  0  0  0  0  0  0  0  0  0  0
    4.9223    1.2358   -0.0515 O   0  0  0  0  0  0  0  0  0  0  0  0
    3.6098    0.8823   -0.0965 C   0  0  0  0  0  0  0  0  0  0  0  0
    3.2399   -0.4443    0.0881 C   0  0  0  0  0  0  0  0  0  0  0  0
    1.8971   -0.8003    0.0418 C   0  0  0  0  0  0  0  0  0  0  0  0
    0.9325    0.1686   -0.1884 C   0  0  0  0  0  0  0  0  0  0  0  0
    1.3047    1.4874   -0.3715 C   0  0  0  0  0  0  0  0  0  0  0  0
    2.6384    1.8464   -0.3209 C   0  0  0  0  0  0  0  0  0  0  0  0
   -0.5236   -0.2163   -0.2394 C   0  0  0  0  0  0  0  0  0  0  0  0
   -1.2946    0.5363    0.8479 C   0  0  0  0  0  0  0  0  0  0  0  0
   -2.7769    0.3874    0.6151 C   0  0  0  0  0  0  0  0  0  0  0  0
   -3.2773   -0.0125   -0.6120 C   0  0  0  0  0  0  0  0  0  0  0  0
   -4.6510   -0.1332   -0.7910 C   0  0  0  0  0  0  0  0  0  0  0  0
   -5.5159    0.1426    0.2544 C   0  0  0  0  0  0  0  0  0  0  0  0
   -5.0088    0.5400    1.4837 C   0  0  0  0  0  0  0  0  0  0  0  0
   -3.6454    0.6608    1.6596 C   0  0  0  0  0  0  0  0  0  0  0  0
   -6.8581    0.0248    0.0771 O   0  0  0  0  0  0  0  0  0  0  0  0
   -2.4607   -0.3000   -1.6589 O   0  0  0  0  0  0  0  0  0  0  0  0
   -1.1129    0.1690   -1.6023 C   0  0  0  0  0  0  0  0  0  0  0  0
    1.5299   -2.0974    0.2214 O   0  0  0  0  0  0  0  0  0  0  0  0
    1.5672   -2.9472   -0.9269 C   0  0  0  0  0  0  0  0  0  0  0  0
    4.1898   -1.3925    0.3133 O   0  0  0  0  0  0  0  0  0  0  0  0
    4.5661   -1.6239    1.6723 C   0  0  0  0  0  0  0  0  0  0  0  0
    4.8750    2.9309   -1.2318 H   0  0  0  0  0  0  0  0  0  0  0  0
    4.7391    3.2126    0.5205 H   0  0  0  0  0  0  0  0  0  0  0  0
    6.3080    2.7621   -0.1895 H   0  0  0  0  0  0  0  0  0  0  0  0
    0.5509    2.2399   -0.5506 H   0  0  0  0  0  0  0  0  0  0  0  0
    2.9251    2.8777   -0.4641 H   0  0  0  0  0  0  0  0  0  0  0  0
   -0.6252   -1.2905   -0.0850 H   0  0  0  0  0  0  0  0  0  0  0  0
   -1.0378    0.1260    1.8245 H   0  0  0  0  0  0  0  0  0  0  0  0
   -1.0269    1.5925    0.8172 H   0  0  0  0  0  0  0  0  0  0  0  0
   -5.0443   -0.4425   -1.7481 H   0  0  0  0  0  0  0  0  0  0  0  0
   -5.6805    0.7549    2.3017 H   0  0  0  0  0  0  0  0  0  0  0  0
   -3.2529    0.9701    2.6170 H   0  0  0  0  0  0  0  0  0  0  0  0
   -7.2063   -0.8538    0.2819 H   0  0  0  0  0  0  0  0  0  0  0  0
   -1.0962    1.2529   -1.7162 H   0  0  0  0  0  0  0  0  0  0  0  0
   -0.5295   -0.2934   -2.3985 H   0  0  0  0  0  0  0  0  0  0  0  0
    1.1689   -3.9278   -0.6663 H   0  0  0  0  0  0  0  0  0  0  0  0
    0.9640   -2.5097   -1.7224 H   0  0  0  0  0  0  0  0  0  0  0  0
    2.5972   -3.0523   -1.2678 H   0  0  0  0  0  0  0  0  0  0  0  0
    3.6789   -1.8603    2.2598 H   0  0  0  0  0  0  0  0  0  0  0  0
    5.2656   -2.4586    1.7186 H   0  0  0  0  0  0  0  0  0  0  0  0
    5.0409   -0.7293    2.0752 H   0  0  0  0  0  0  0  0  0  0  0  0
  1  2  1  0  0  0  0
  2  3  1  0  0  0  0
  3  4  2  0  0  0  0
  4  5  1  0  0  0  0
  5  6  2  0  0  0  0
  6  7  1  0  0  0  0
  7  8  2  0  0  0  0
  3  8  1  0  0  0  0
  6  9  1  0  0  0  0
  9 10  1  0  0  0  0
 10 11  1  0  0  0  0
 11 12  2  0  0  0  0
 12 13  1  0  0  0  0
 13 14  2  0  0  0  0
 14 15  1  0  0  0  0
 15 16  2  0  0  0  0
 11 16  1  0  0  0  0
 14 17  1  0  0  0  0
 12 18  1  0  0  0  0
 18 19  1  0  0  0  0
  9 19  1  0  0  0  0
  5 20  1  0  0  0  0
 20 21  1  0  0  0  0
  4 22  1  0  0  0  0
 22 23  1  0  0  0  0
  1 24  1  0  0  0  0
  1 25  1  0  0  0  0
  1 26  1  0  0  0  0
  7 27  1  0  0  0  0
  8 28  1  0  0  0  0
  9 29  1  0  0  0  0
 10 30  1  0  0  0  0
 10 31  1  0  0  0  0
 13 32  1  0  0  0  0
 15 33  1  0  0  0  0
 16 34  1  0  0  0  0
 17 35  1  0  0  0  0
 19 36  1  0  0  0  0
 19 37  1  0  0  0  0
 21 38  1  0  0  0  0
 21 39  1  0  0  0  0
 21 40  1  0  0  0  0
 23 41  1  0  0  0  0
 23 42  1  0  0  0  0
 23 43  1  0  0  0  0
M  END
$$$$
