C12H18O2
APtclcactv06291802533D 0   0.00000     0.00000
 
 32 31  0  0  0  0  0  0  0  0999 V2000
    7.6425    0.4678    0.6511 C   0  0  0  0  0  0  0  0  0  0  0  0
    6.2718   -0.1444    0.9465 C   0  0  0  0  0  0  0  0  0  0  0  0
    5.2928    0.2362   -0.1660 C   0  0  0  0  0  0  0  0  0  0  0  0
    3.9220   -0.3760    0.1294 C   0  0  0  0  0  0  0  0  0  0  0  0
    2.9430    0.0046   -0.9831 C   0  0  0  0  0  0  0  0  0  0  0  0
    1.5929   -0.5984   -0.6921 C   0  0  0  0  0  0  0  0  0  0  0  0
    0.5105    0.1820   -0.6389 C   0  0  0  0  0  0  0  0  0  0  0  0
   -0.7989   -0.4027   -0.3567 C   0  0  0  0  0  0  0  0  0  0  0  0
   -1.8984    0.3900   -0.3026 C   0  0  0  0  0  0  0  0  0  0  0  0
   -3.1610   -0.1740   -0.0305 C   0  0  0  0  0  0  0  0  0  0  0  0
   -4.2626    0.6203    0.0237 C   0  0  0  0  0  0  0  0  0  0  0  0
   -5.5290    0.0547    0.2967 C   0  0  0  0  0  0  0  0  0  0  0  0
   -5.6329   -1.1435    0.4831 O   0  0  0  0  0  0  0  0  0  0  0  0
   -6.6232    0.8435    0.3505 O   0  0  0  0  0  0  0  0  0  0  0  0
    7.5527    1.5529    0.6016 H   0  0  0  0  0  0  0  0  0  0  0  0
    8.3399    0.1966    1.4436 H   0  0  0  0  0  0  0  0  0  0  0  0
    8.0113    0.0899   -0.3025 H   0  0  0  0  0  0  0  0  0  0  0  0
    6.3615   -1.2296    0.9959 H   0  0  0  0  0  0  0  0  0  0  0  0
    5.9029    0.2335    1.9000 H   0  0  0  0  0  0  0  0  0  0  0  0
    5.2030    1.3213   -0.2155 H   0  0  0  0  0  0  0  0  0  0  0  0
    5.6616   -0.1417   -1.1196 H   0  0  0  0  0  0  0  0  0  0  0  0
    4.0118   -1.4612    0.1788 H   0  0  0  0  0  0  0  0  0  0  0  0
    3.5532    0.0019    1.0830 H   0  0  0  0  0  0  0  0  0  0  0  0
    2.8533    1.0897   -1.0325 H   0  0  0  0  0  0  0  0  0  0  0  0
    3.3119   -0.3733   -1.9366 H   0  0  0  0  0  0  0  0  0  0  0  0
    1.5007   -1.6617   -0.5267 H   0  0  0  0  0  0  0  0  0  0  0  0
    0.6027    1.2453   -0.8043 H   0  0  0  0  0  0  0  0  0  0  0  0
   -0.8911   -1.4660   -0.1912 H   0  0  0  0  0  0  0  0  0  0  0  0
   -1.8062    1.4532   -0.4680 H   0  0  0  0  0  0  0  0  0  0  0  0
   -3.2533   -1.2372    0.1350 H   0  0  0  0  0  0  0  0  0  0  0  0
   -4.1704    1.6835   -0.1417 H   0  0  0  0  0  0  0  0  0  0  0  0
   -7.4424    0.3672    0.5428 H   0  0  0  0  0  0  0  0  0  0  0  0
  1  2  1  0  0  0  0
  2  3  1  0  0  0  0
  3  4  1  0  0  0  0
  4  5  1  0  0  0  0
  5  6  1  0  0  0  0
  6  7  2  0  0  0  0
  7  8  1  0  0  0  0
  8  9  2  0  0  0  0
  9 10  1  0  0  0  0
 10 11  2  0  0  0  0
 11 12  1  0  0  0  0
 12 13  2  0  0  0  0
 12 14  1  0  0  0  0
  1 15  1  0  0  0  0
  1 16  1  0  0  0  0
  1 17  1  0  0  0  0
  2 18  1  0  0  0  0
  2 19  1  0  0  0  0
  3 20  1  0  0  0  0
  3 21  1  0  0  0  0
  4 22  1  0  0  0  0
  4 23  1  0  0  0  0
  5 24  1  0  0  0  0
  5 25  1  0  0  0  0
  6 26  1  0  0  0  0
  7 27  1  0  0  0  0
  8 28  1  0  0  0  0
  9 29  1  0  0  0  0
 10 30  1  0  0  0  0
 11 31  1  0  0  0  0
 14 32  1  0  0  0  0
M  END
$$$$
