C10H17NO
APtclcactv06291802533D 0   0.00000     0.00000
 
 29 29  0  0  0  0  0  0  0  0999 V2000
    5.2026    0.2194    0.0836 C   0  0  0  0  0  0  0  0  0  0  0  0
    3.8388   -0.1789    0.6514 C   0  0  0  0  0  0  0  0  0  0  0  0
    2.7593    0.0466   -0.4091 C   0  0  0  0  0  0  0  0  0  0  0  0
    1.3955   -0.3516    0.1588 C   0  0  0  0  0  0  0  0  0  0  0  0
    0.3159   -0.1261   -0.9017 C   0  0  0  0  0  0  0  0  0  0  0  0
   -1.0273   -0.5183   -0.3424 C   0  0  0  0  0  0  0  0  0  0  0  0
   -1.8827    0.2822    0.3148 C   0  0  0  0  0  0  0  0  0  0  0  0
   -2.9599   -0.4530    0.6428 N   0  0  0  0  0  0  0  0  0  0  0  0
   -2.7847   -1.6679    0.2070 C   0  0  0  0  0  0  0  0  0  0  0  0
   -1.5989   -1.7366   -0.4125 O   0  0  0  0  0  0  0  0  0  0  0  0
   -1.6729    1.7413    0.6281 C   0  0  0  0  0  0  0  0  0  0  0  0
   -2.2269    2.5933   -0.5156 C   0  0  0  0  0  0  0  0  0  0  0  0
    5.1852    1.2719   -0.1991 H   0  0  0  0  0  0  0  0  0  0  0  0
    5.9717    0.0587    0.8391 H   0  0  0  0  0  0  0  0  0  0  0  0
    5.4225   -0.3889   -0.7938 H   0  0  0  0  0  0  0  0  0  0  0  0
    3.8562   -1.2314    0.9341 H   0  0  0  0  0  0  0  0  0  0  0  0
    3.6189    0.4294    1.5288 H   0  0  0  0  0  0  0  0  0  0  0  0
    2.7418    1.0992   -0.6917 H   0  0  0  0  0  0  0  0  0  0  0  0
    2.9792   -0.5616   -1.2864 H   0  0  0  0  0  0  0  0  0  0  0  0
    1.4129   -1.4042    0.4415 H   0  0  0  0  0  0  0  0  0  0  0  0
    1.1756    0.2567    1.0362 H   0  0  0  0  0  0  0  0  0  0  0  0
    0.2985    0.9264   -1.1844 H   0  0  0  0  0  0  0  0  0  0  0  0
    0.5358   -0.7344   -1.7790 H   0  0  0  0  0  0  0  0  0  0  0  0
   -3.4824   -2.4842    0.3223 H   0  0  0  0  0  0  0  0  0  0  0  0
   -2.1922    1.9927    1.5529 H   0  0  0  0  0  0  0  0  0  0  0  0
   -0.6073    1.9384    0.7447 H   0  0  0  0  0  0  0  0  0  0  0  0
   -1.7076    2.3419   -1.4404 H   0  0  0  0  0  0  0  0  0  0  0  0
   -3.2926    2.3963   -0.6322 H   0  0  0  0  0  0  0  0  0  0  0  0
   -2.0752    3.6486   -0.2890 H   0  0  0  0  0  0  0  0  0  0  0  0
  1  2  1  0  0  0  0
  2  3  1  0  0  0  0
  3  4  1  0  0  0  0
  4  5  1  0  0  0  0
  5  6  1  0  0  0  0
  6  7  2  0  0  0  0
  7  8  1  0  0  0  0
  8  9  2  0  0  0  0
  9 10  1  0  0  0  0
  6 10  1  0  0  0  0
  7 11  1  0  0  0  0
 11 12  1  0  0  0  0
  1 13  1  0  0  0  0
  1 14  1  0  0  0  0
  1 15  1  0  0  0  0
  2 16  1  0  0  0  0
  2 17  1  0  0  0  0
  3 18  1  0  0  0  0
  3 19  1  0  0  0  0
  4 20  1  0  0  0  0
  4 21  1  0  0  0  0
  5 22  1  0  0  0  0
  5 23  1  0  0  0  0
  9 24  1  0  0  0  0
 11 25  1  0  0  0  0
 11 26  1  0  0  0  0
 12 27  1  0  0  0  0
 12 28  1  0  0  0  0
 12 29  1  0  0  0  0
M  END
$$$$
