C15H26O2
APtclcactv06291802533D 0   0.00000     0.00000
 
 43 42  0  0  0  0  0  0  0  0999 V2000
    9.5514    1.0918    0.0427 C   0  0  0  0  0  0  0  0  0  0  0  0
    8.4115    0.1772   -0.4101 C   0  0  0  0  0  0  0  0  0  0  0  0
    7.0852    0.7041    0.1414 C   0  0  0  0  0  0  0  0  0  0  0  0
    5.9453   -0.2106   -0.3114 C   0  0  0  0  0  0  0  0  0  0  0  0
    4.6190    0.3163    0.2401 C   0  0  0  0  0  0  0  0  0  0  0  0
    3.4791   -0.5983   -0.2126 C   0  0  0  0  0  0  0  0  0  0  0  0
    2.1527   -0.0715    0.3389 C   0  0  0  0  0  0  0  0  0  0  0  0
    1.0128   -0.9861   -0.1139 C   0  0  0  0  0  0  0  0  0  0  0  0
   -0.3135   -0.4592    0.4376 C   0  0  0  0  0  0  0  0  0  0  0  0
   -1.4534   -1.3739   -0.0152 C   0  0  0  0  0  0  0  0  0  0  0  0
   -2.7598   -0.8549    0.5280 C   0  0  0  0  0  0  0  0  0  0  0  0
   -3.7729   -0.5989   -0.3019 C   0  0  0  0  0  0  0  0  0  0  0  0
   -5.0411   -0.0952    0.2254 C   0  0  0  0  0  0  0  0  0  0  0  0
   -6.0682    0.1644   -0.6160 C   0  0  0  0  0  0  0  0  0  0  0  0
   -7.2973    0.6526   -0.1050 C   0  0  0  0  0  0  0  0  0  0  0  0
   -7.4283    0.8382    1.0901 O   0  0  0  0  0  0  0  0  0  0  0  0
   -8.3217    0.9115   -0.9442 O   0  0  0  0  0  0  0  0  0  0  0  0
    9.3778    2.1010   -0.3310 H   0  0  0  0  0  0  0  0  0  0  0  0
    9.5922    1.1097    1.1317 H   0  0  0  0  0  0  0  0  0  0  0  0
   10.4963    0.7165   -0.3502 H   0  0  0  0  0  0  0  0  0  0  0  0
    8.3707    0.1594   -1.4992 H   0  0  0  0  0  0  0  0  0  0  0  0
    8.5851   -0.8319   -0.0365 H   0  0  0  0  0  0  0  0  0  0  0  0
    7.1260    0.7219    1.2305 H   0  0  0  0  0  0  0  0  0  0  0  0
    6.9116    1.7132   -0.2323 H   0  0  0  0  0  0  0  0  0  0  0  0
    5.9045   -0.2284   -1.4005 H   0  0  0  0  0  0  0  0  0  0  0  0
    6.1189   -1.2197    0.0623 H   0  0  0  0  0  0  0  0  0  0  0  0
    4.6598    0.3341    1.3292 H   0  0  0  0  0  0  0  0  0  0  0  0
    4.4453    1.3254   -0.1335 H   0  0  0  0  0  0  0  0  0  0  0  0
    3.4383   -0.6162   -1.3017 H   0  0  0  0  0  0  0  0  0  0  0  0
    3.6527   -1.6075    0.1610 H   0  0  0  0  0  0  0  0  0  0  0  0
    2.1935   -0.0536    1.4279 H   0  0  0  0  0  0  0  0  0  0  0  0
    1.9791    0.9377   -0.0348 H   0  0  0  0  0  0  0  0  0  0  0  0
    0.9720   -1.0039   -1.2030 H   0  0  0  0  0  0  0  0  0  0  0  0
    1.1865   -1.9952    0.2598 H   0  0  0  0  0  0  0  0  0  0  0  0
   -0.2727   -0.4414    1.5267 H   0  0  0  0  0  0  0  0  0  0  0  0
   -0.4871    0.5499    0.0639 H   0  0  0  0  0  0  0  0  0  0  0  0
   -1.4942   -1.3917   -1.1043 H   0  0  0  0  0  0  0  0  0  0  0  0
   -1.2798   -2.3830    0.3585 H   0  0  0  0  0  0  0  0  0  0  0  0
   -2.8761   -0.6902    1.5890 H   0  0  0  0  0  0  0  0  0  0  0  0
   -3.6565   -0.7637   -1.3629 H   0  0  0  0  0  0  0  0  0  0  0  0
   -5.1574    0.0696    1.2864 H   0  0  0  0  0  0  0  0  0  0  0  0
   -5.9519   -0.0004   -1.6770 H   0  0  0  0  0  0  0  0  0  0  0  0
   -9.1174    1.2403   -0.5039 H   0  0  0  0  0  0  0  0  0  0  0  0
  1  2  1  0  0  0  0
  2  3  1  0  0  0  0
  3  4  1  0  0  0  0
  4  5  1  0  0  0  0
  5  6  1  0  0  0  0
  6  7  1  0  0  0  0
  7  8  1  0  0  0  0
  8  9  1  0  0  0  0
  9 10  1  0  0  0  0
 10 11  1  0  0  0  0
 11 12  2  0  0  0  0
 12 13  1  0  0  0  0
 13 14  2  0  0  0  0
 14 15  1  0  0  0  0
 15 16  2  0  0  0  0
 15 17  1  0  0  0  0
  1 18  1  0  0  0  0
  1 19  1  0  0  0  0
  1 20  1  0  0  0  0
  2 21  1  0  0  0  0
  2 22  1  0  0  0  0
  3 23  1  0  0  0  0
  3 24  1  0  0  0  0
  4 25  1  0  0  0  0
  4 26  1  0  0  0  0
  5 27  1  0  0  0  0
  5 28  1  0  0  0  0
  6 29  1  0  0  0  0
  6 30  1  0  0  0  0
  7 31  1  0  0  0  0
  7 32  1  0  0  0  0
  8 33  1  0  0  0  0
  8 34  1  0  0  0  0
  9 35  1  0  0  0  0
  9 36  1  0  0  0  0
 10 37  1  0  0  0  0
 10 38  1  0  0  0  0
 11 39  1  0  0  0  0
 12 40  1  0  0  0  0
 13 41  1  0  0  0  0
 14 42  1  0  0  0  0
 17 43  1  0  0  0  0
M  END
$$$$
