C36H38N4O6
APtclcactv06281817113D 0   0.00000     0.00000
 
 84 89  0  0  0  0  0  0  0  0999 V2000
    5.2233   -4.8107    0.9452 C   0  0  0  0  0  0  0  0  0  0  0  0
    4.8806   -4.3203   -0.4630 C   0  0  0  0  0  0  0  0  0  0  0  0
    3.5661   -3.5840   -0.4324 C   0  0  0  0  0  0  0  0  0  0  0  0
    3.3959   -2.1995   -0.2098 C   0  0  0  0  0  0  0  0  0  0  0  0
    4.4453   -1.3293    0.0292 C   0  0  0  0  0  0  0  0  0  0  0  0
    4.3275    0.0329    0.2457 C   0  0  0  0  0  0  0  0  0  0  0  0
    5.4252    0.9036    0.5003 C   0  0  0  0  0  0  0  0  0  0  0  0
    4.9094    2.1878    0.6534 C   0  0  0  0  0  0  0  0  0  0  0  0
    3.5245    2.1072    0.4982 C   0  0  0  0  0  0  0  0  0  0  0  0
    2.6402    3.1828    0.5752 C   0  0  0  0  0  0  0  0  0  0  0  0
    1.2635    2.9549    0.4046 C   0  0  0  0  0  0  0  0  0  0  0  0
    0.7238    1.7521    0.1656 N   0  0  0  0  0  0  0  0  0  0  0  0
   -0.5996    1.8497    0.0734 C   0  0  0  0  0  0  0  0  0  0  0  0
   -1.7719    1.0897   -0.1330 C   0  0  0  0  0  0  0  0  0  0  0  0
   -2.9558    2.0201   -0.1030 C   0  0  0  0  0  0  0  0  0  0  0  0
   -2.4025    3.4052    0.1500 C   0  0  0  0  0  0  0  0  0  0  0  0
   -3.0399    4.4334    0.2478 O   0  0  0  0  0  0  0  0  0  0  0  0
   -0.9527    3.2651    0.2541 C   0  0  0  0  0  0  0  0  0  0  0  0
    0.2485    3.9305    0.4571 C   0  0  0  0  0  0  0  0  0  0  0  0
    0.4313    5.4084    0.6888 C   0  0  0  0  0  0  0  0  0  0  0  0
   -3.6760    1.9841   -1.4263 C   0  0  0  0  0  0  0  0  0  0  0  0
   -3.2717    1.2723   -2.3150 O   0  0  0  0  0  0  0  0  0  0  0  0
   -4.7666    2.7428   -1.6177 O   0  0  0  0  0  0  0  0  0  0  0  0
   -5.4092    2.6576   -2.9169 C   0  0  0  0  0  0  0  0  0  0  0  0
   -1.7902   -0.2716   -0.3264 C   0  0  0  0  0  0  0  0  0  0  0  0
   -0.7130   -1.0410   -0.3543 N   0  0  0  0  0  0  0  0  0  0  0  0
   -0.9387   -2.3180   -0.5485 C   0  0  0  0  0  0  0  0  0  0  0  0
    0.0136   -3.3159   -0.6352 C   0  0  0  0  0  0  0  0  0  0  0  0
    1.3792   -3.1067   -0.5141 C   0  0  0  0  0  0  0  0  0  0  0  0
    2.3406   -4.1340   -0.6198 C   0  0  0  0  0  0  0  0  0  0  0  0
    2.0552   -5.5890   -0.8890 C   0  0  0  0  0  0  0  0  0  0  0  0
    2.0483   -1.9269   -0.2735 N   0  0  0  0  0  0  0  0  0  0  0  0
   -2.4355   -2.5490   -0.6612 C   0  0  0  0  0  0  0  0  0  0  0  0
   -3.0188   -1.1259   -0.5380 C   0  0  0  0  0  0  0  0  0  0  0  0
   -3.9598   -1.0285    0.6645 C   0  0  0  0  0  0  0  0  0  0  0  0
   -5.1813   -1.9193    0.4296 C   0  0  0  0  0  0  0  0  0  0  0  0
   -6.1655   -1.7293    1.5549 C   0  0  0  0  0  0  0  0  0  0  0  0
   -5.9155   -0.9602    2.4527 O   0  0  0  0  0  0  0  0  0  0  0  0
   -7.3198   -2.4143    1.5599 O   0  0  0  0  0  0  0  0  0  0  0  0
   -8.2200   -2.1811    2.6751 C   0  0  0  0  0  0  0  0  0  0  0  0
   -2.7878   -3.1628   -2.0176 C   0  0  0  0  0  0  0  0  0  0  0  0
    3.1852    0.7892    0.2564 N   0  0  0  0  0  0  0  0  0  0  0  0
    5.7024    3.4378    0.9355 C   0  0  0  0  0  0  0  0  0  0  0  0
    6.0092    4.1551   -0.3806 C   0  0  0  0  0  0  0  0  0  0  0  0
    6.8368    0.5189    0.5858 C   0  0  0  0  0  0  0  0  0  0  0  0
    7.1600   -0.6405    0.4327 O   0  0  0  0  0  0  0  0  0  0  0  0
    5.3006   -3.9570    1.6184 H   0  0  0  0  0  0  0  0  0  0  0  0
    4.4393   -5.4812    1.2972 H   0  0  0  0  0  0  0  0  0  0  0  0
    6.1740   -5.3433    0.9231 H   0  0  0  0  0  0  0  0  0  0  0  0
    5.6645   -3.6498   -0.8150 H   0  0  0  0  0  0  0  0  0  0  0  0
    4.8032   -5.1740   -1.1363 H   0  0  0  0  0  0  0  0  0  0  0  0
    5.4404   -1.7487    0.0488 H   0  0  0  0  0  0  0  0  0  0  0  0
    3.0091    4.1801    0.7641 H   0  0  0  0  0  0  0  0  0  0  0  0
   -3.6350    1.7358    0.7007 H   0  0  0  0  0  0  0  0  0  0  0  0
    0.3859    5.6169    1.7577 H   0  0  0  0  0  0  0  0  0  0  0  0
    1.4000    5.7202    0.2985 H   0  0  0  0  0  0  0  0  0  0  0  0
   -0.3600    5.9568    0.1777 H   0  0  0  0  0  0  0  0  0  0  0  0
   -5.7309    1.6318   -3.0966 H   0  0  0  0  0  0  0  0  0  0  0  0
   -6.2754    3.3190   -2.9380 H   0  0  0  0  0  0  0  0  0  0  0  0
   -4.7037    2.9581   -3.6916 H   0  0  0  0  0  0  0  0  0  0  0  0
   -0.3285   -4.3256   -0.8085 H   0  0  0  0  0  0  0  0  0  0  0  0
    2.0593   -5.7671   -1.9643 H   0  0  0  0  0  0  0  0  0  0  0  0
    2.8216   -6.2031   -0.4160 H   0  0  0  0  0  0  0  0  0  0  0  0
    1.0784   -5.8492   -0.4813 H   0  0  0  0  0  0  0  0  0  0  0  0
    1.6396   -1.0538   -0.1659 H   0  0  0  0  0  0  0  0  0  0  0  0
   -2.7902   -3.1828    0.1516 H   0  0  0  0  0  0  0  0  0  0  0  0
   -3.5346   -0.8397   -1.4545 H   0  0  0  0  0  0  0  0  0  0  0  0
   -3.4372   -1.3580    1.5625 H   0  0  0  0  0  0  0  0  0  0  0  0
   -4.2826    0.0049    0.7904 H   0  0  0  0  0  0  0  0  0  0  0  0
   -5.6527   -1.6479   -0.5150 H   0  0  0  0  0  0  0  0  0  0  0  0
   -4.8684   -2.9628    0.3929 H   0  0  0  0  0  0  0  0  0  0  0  0
   -9.1124   -2.7955    2.5562 H   0  0  0  0  0  0  0  0  0  0  0  0
   -7.7195   -2.4439    3.6070 H   0  0  0  0  0  0  0  0  0  0  0  0
   -8.5037   -1.1290    2.6991 H   0  0  0  0  0  0  0  0  0  0  0  0
   -2.2954   -4.1301   -2.1177 H   0  0  0  0  0  0  0  0  0  0  0  0
   -3.8675   -3.2959   -2.0868 H   0  0  0  0  0  0  0  0  0  0  0  0
   -2.4516   -2.4998   -2.8148 H   0  0  0  0  0  0  0  0  0  0  0  0
    2.2856    0.4545    0.1169 H   0  0  0  0  0  0  0  0  0  0  0  0
    5.1235    4.0971    1.5823 H   0  0  0  0  0  0  0  0  0  0  0  0
    6.6364    3.1717    1.4305 H   0  0  0  0  0  0  0  0  0  0  0  0
    5.0752    4.4213   -0.8756 H   0  0  0  0  0  0  0  0  0  0  0  0
    6.5827    5.0593   -0.1766 H   0  0  0  0  0  0  0  0  0  0  0  0
    6.5881    3.4958   -1.0274 H   0  0  0  0  0  0  0  0  0  0  0  0
    7.5893    1.2675    0.7851 H   0  0  0  0  0  0  0  0  0  0  0  0
  1  2  1  0  0  0  0
  2  3  1  0  0  0  0
  3  4  2  0  0  0  0
  4  5  1  0  0  0  0
  5  6  2  0  0  0  0
  6  7  1  0  0  0  0
  7  8  2  0  0  0  0
  8  9  1  0  0  0  0
  9 10  2  0  0  0  0
 10 11  1  0  0  0  0
 11 12  2  0  0  0  0
 12 13  1  0  0  0  0
 13 14  2  0  0  0  0
 14 15  1  0  0  0  0
 15 16  1  0  0  0  0
 16 17  2  0  0  0  0
 16 18  1  0  0  0  0
 13 18  1  0  0  0  0
 18 19  2  0  0  0  0
 11 19  1  0  0  0  0
 19 20  1  0  0  0  0
 15 21  1  0  0  0  0
 21 22  2  0  0  0  0
 21 23  1  0  0  0  0
 23 24  1  0  0  0  0
 14 25  1  0  0  0  0
 25 26  2  0  0  0  0
 26 27  1  0  0  0  0
 27 28  2  0  0  0  0
 28 29  1  0  0  0  0
 29 30  2  0  0  0  0
  3 30  1  0  0  0  0
 30 31  1  0  0  0  0
 29 32  1  0  0  0  0
  4 32  1  0  0  0  0
 27 33  1  0  0  0  0
 33 34  1  0  0  0  0
 25 34  1  0  0  0  0
 34 35  1  0  0  0  0
 35 36  1  0  0  0  0
 36 37  1  0  0  0  0
 37 38  2  0  0  0  0
 37 39  1  0  0  0  0
 39 40  1  0  0  0  0
 33 41  1  0  0  0  0
  9 42  1  0  0  0  0
  6 42  1  0  0  0  0
  8 43  1  0  0  0  0
 43 44  1  0  0  0  0
  7 45  1  0  0  0  0
 45 46  2  0  0  0  0
  1 47  1  0  0  0  0
  1 48  1  0  0  0  0
  1 49  1  0  0  0  0
  2 50  1  0  0  0  0
  2 51  1  0  0  0  0
  5 52  1  0  0  0  0
 10 53  1  0  0  0  0
 15 54  1  0  0  0  0
 20 55  1  0  0  0  0
 20 56  1  0  0  0  0
 20 57  1  0  0  0  0
 24 58  1  0  0  0  0
 24 59  1  0  0  0  0
 24 60  1  0  0  0  0
 28 61  1  0  0  0  0
 31 62  1  0  0  0  0
 31 63  1  0  0  0  0
 31 64  1  0  0  0  0
 32 65  1  0  0  0  0
 33 66  1  0  0  0  0
 34 67  1  0  0  0  0
 35 68  1  0  0  0  0
 35 69  1  0  0  0  0
 36 70  1  0  0  0  0
 36 71  1  0  0  0  0
 40 72  1  0  0  0  0
 40 73  1  0  0  0  0
 40 74  1  0  0  0  0
 41 75  1  0  0  0  0
 41 76  1  0  0  0  0
 41 77  1  0  0  0  0
 42 78  1  0  0  0  0
 43 79  1  0  0  0  0
 43 80  1  0  0  0  0
 44 81  1  0  0  0  0
 44 82  1  0  0  0  0
 44 83  1  0  0  0  0
 45 84  1  0  0  0  0
M  END
$$$$
