C19H18N2O3
APtclcactv06281817113D 0   0.00000     0.00000
 
 42 44  0  0  0  0  0  0  0  0999 V2000
   -5.2335    0.0238   -0.9103 C   0  0  0  0  0  0  0  0  0  0  0  0
   -6.5301   -0.1120   -1.3524 C   0  0  0  0  0  0  0  0  0  0  0  0
   -7.5539   -0.3608   -0.4453 C   0  0  0  0  0  0  0  0  0  0  0  0
   -7.2743   -0.4741    0.9118 C   0  0  0  0  0  0  0  0  0  0  0  0
   -5.9811   -0.3403    1.3641 C   0  0  0  0  0  0  0  0  0  0  0  0
   -4.9467   -0.0894    0.4550 C   0  0  0  0  0  0  0  0  0  0  0  0
   -3.5638    0.0539    0.9325 C   0  0  0  0  0  0  0  0  0  0  0  0
   -2.5681    0.2959    0.0539 C   0  0  0  0  0  0  0  0  0  0  0  0
   -1.1922    0.4384    0.5290 C   0  0  0  0  0  0  0  0  0  0  0  0
   -0.9450    0.3388    1.7166 O   0  0  0  0  0  0  0  0  0  0  0  0
   -0.1980    0.6800   -0.3483 N   0  0  0  0  0  0  0  0  0  0  0  0
    1.1802    0.8227    0.1275 C   0  0  0  0  0  0  0  0  0  0  0  0
    2.1052    1.0899   -1.0616 C   0  0  0  0  0  0  0  0  0  0  0  0
    3.5229    1.2368   -0.5721 C   0  0  0  0  0  0  0  0  0  0  0  0
    4.1517    2.3864   -0.2805 C   0  0  0  0  0  0  0  0  0  0  0  0
    5.4293    2.1271    0.1342 N   0  0  0  0  0  0  0  0  0  0  0  0
    5.6596    0.7675    0.1191 C   0  0  0  0  0  0  0  0  0  0  0  0
    4.4737    0.1516   -0.3182 C   0  0  0  0  0  0  0  0  0  0  0  0
    4.4106   -1.2390   -0.4333 C   0  0  0  0  0  0  0  0  0  0  0  0
    5.5172   -2.0005   -0.1155 C   0  0  0  0  0  0  0  0  0  0  0  0
    6.6902   -1.3874    0.3178 C   0  0  0  0  0  0  0  0  0  0  0  0
    6.7624   -0.0178    0.4387 C   0  0  0  0  0  0  0  0  0  0  0  0
    5.4616   -3.3548   -0.2257 O   0  0  0  0  0  0  0  0  0  0  0  0
   -8.8308   -0.4930   -0.8862 O   0  0  0  0  0  0  0  0  0  0  0  0
   -4.4383    0.2130   -1.6162 H   0  0  0  0  0  0  0  0  0  0  0  0
   -6.7525   -0.0248   -2.4056 H   0  0  0  0  0  0  0  0  0  0  0  0
   -8.0732   -0.6671    1.6124 H   0  0  0  0  0  0  0  0  0  0  0  0
   -5.7649   -0.4285    2.4186 H   0  0  0  0  0  0  0  0  0  0  0  0
   -3.3445   -0.0345    1.9863 H   0  0  0  0  0  0  0  0  0  0  0  0
   -2.7875    0.3842   -0.9999 H   0  0  0  0  0  0  0  0  0  0  0  0
   -0.3950    0.7594   -1.2948 H   0  0  0  0  0  0  0  0  0  0  0  0
    1.2384    1.6562    0.8275 H   0  0  0  0  0  0  0  0  0  0  0  0
    1.4884   -0.0948    0.6286 H   0  0  0  0  0  0  0  0  0  0  0  0
    2.0470    0.2564   -1.7616 H   0  0  0  0  0  0  0  0  0  0  0  0
    1.7969    2.0075   -1.5627 H   0  0  0  0  0  0  0  0  0  0  0  0
    3.7141    3.3704   -0.3620 H   0  0  0  0  0  0  0  0  0  0  0  0
    6.0766    2.7992    0.3990 H   0  0  0  0  0  0  0  0  0  0  0  0
    3.5013   -1.7156   -0.7686 H   0  0  0  0  0  0  0  0  0  0  0  0
    7.5502   -1.9923    0.5646 H   0  0  0  0  0  0  0  0  0  0  0  0
    7.6772    0.4471    0.7754 H   0  0  0  0  0  0  0  0  0  0  0  0
    5.7246   -3.6899   -1.0938 H   0  0  0  0  0  0  0  0  0  0  0  0
   -9.0768   -1.4005   -1.1124 H   0  0  0  0  0  0  0  0  0  0  0  0
  1  2  2  0  0  0  0
  2  3  1  0  0  0  0
  3  4  2  0  0  0  0
  4  5  1  0  0  0  0
  5  6  2  0  0  0  0
  1  6  1  0  0  0  0
  6  7  1  0  0  0  0
  7  8  2  0  0  0  0
  8  9  1  0  0  0  0
  9 10  2  0  0  0  0
  9 11  1  0  0  0  0
 11 12  1  0  0  0  0
 12 13  1  0  0  0  0
 13 14  1  0  0  0  0
 14 15  2  0  0  0  0
 15 16  1  0  0  0  0
 16 17  1  0  0  0  0
 17 18  2  0  0  0  0
 14 18  1  0  0  0  0
 18 19  1  0  0  0  0
 19 20  2  0  0  0  0
 20 21  1  0  0  0  0
 21 22  2  0  0  0  0
 17 22  1  0  0  0  0
 20 23  1  0  0  0  0
  3 24  1  0  0  0  0
  1 25  1  0  0  0  0
  2 26  1  0  0  0  0
  4 27  1  0  0  0  0
  5 28  1  0  0  0  0
  7 29  1  0  0  0  0
  8 30  1  0  0  0  0
 11 31  1  0  0  0  0
 12 32  1  0  0  0  0
 12 33  1  0  0  0  0
 13 34  1  0  0  0  0
 13 35  1  0  0  0  0
 15 36  1  0  0  0  0
 16 37  1  0  0  0  0
 19 38  1  0  0  0  0
 21 39  1  0  0  0  0
 22 40  1  0  0  0  0
 23 41  1  0  0  0  0
 24 42  1  0  0  0  0
M  END
$$$$
