C20H24O4
APtclcactv06281803073D 0   0.00000     0.00000
 
 48 47  0  0  0  0  0  0  0  0999 V2000
   -3.0171    1.8129   -0.0000 C   0  0  0  0  0  0  0  0  0  0  0  0
   -3.0045    0.3059   -0.0000 C   0  0  0  0  0  0  0  0  0  0  0  0
   -1.8071   -0.3721   -0.0000 C   0  0  0  0  0  0  0  0  0  0  0  0
   -0.5988    0.3391   -0.0000 C   0  0  0  0  0  0  0  0  0  0  0  0
    0.5988   -0.3391   -0.0000 C   0  0  0  0  0  0  0  0  0  0  0  0
    1.8071    0.3721    0.0000 C   0  0  0  0  0  0  0  0  0  0  0  0
    3.0045   -0.3059    0.0000 C   0  0  0  0  0  0  0  0  0  0  0  0
    3.0171   -1.8129   -0.0000 C   0  0  0  0  0  0  0  0  0  0  0  0
    4.2133    0.4055    0.0000 C   0  0  0  0  0  0  0  0  0  0  0  0
    5.4016   -0.2673   -0.0000 C   0  0  0  0  0  0  0  0  0  0  0  0
    6.6120    0.4451    0.0000 C   0  0  0  0  0  0  0  0  0  0  0  0
    7.7976   -0.2263   -0.0000 C   0  0  0  0  0  0  0  0  0  0  0  0
    7.8102   -1.7333   -0.0000 C   0  0  0  0  0  0  0  0  0  0  0  0
    9.0148    0.4901    0.0000 C   0  0  0  0  0  0  0  0  0  0  0  0
    9.0047    1.7072    0.0000 O   0  0  0  0  0  0  0  0  0  0  0  0
   10.1898   -0.1753   -0.0000 O   0  0  0  0  0  0  0  0  0  0  0  0
   -4.2133   -0.4055    0.0000 C   0  0  0  0  0  0  0  0  0  0  0  0
   -5.4016    0.2673   -0.0000 C   0  0  0  0  0  0  0  0  0  0  0  0
   -6.6120   -0.4451    0.0000 C   0  0  0  0  0  0  0  0  0  0  0  0
   -7.7976    0.2263   -0.0000 C   0  0  0  0  0  0  0  0  0  0  0  0
   -7.8102    1.7333   -0.0000 C   0  0  0  0  0  0  0  0  0  0  0  0
   -9.0148   -0.4901    0.0000 C   0  0  0  0  0  0  0  0  0  0  0  0
   -9.0047   -1.7072    0.0000 O   0  0  0  0  0  0  0  0  0  0  0  0
  -10.1898    0.1753    0.0000 O   0  0  0  0  0  0  0  0  0  0  0  0
   -3.0201    2.1762   -1.0277 H   0  0  0  0  0  0  0  0  0  0  0  0
   -3.9100    2.1688    0.5138 H   0  0  0  0  0  0  0  0  0  0  0  0
   -2.1301    2.1836    0.5138 H   0  0  0  0  0  0  0  0  0  0  0  0
   -1.7981   -1.4520   -0.0000 H   0  0  0  0  0  0  0  0  0  0  0  0
   -0.6078    1.4190    0.0000 H   0  0  0  0  0  0  0  0  0  0  0  0
    0.6078   -1.4190   -0.0000 H   0  0  0  0  0  0  0  0  0  0  0  0
    1.7981    1.4520    0.0000 H   0  0  0  0  0  0  0  0  0  0  0  0
    3.0201   -2.1762   -1.0277 H   0  0  0  0  0  0  0  0  0  0  0  0
    3.9100   -2.1688    0.5138 H   0  0  0  0  0  0  0  0  0  0  0  0
    2.1301   -2.1836    0.5138 H   0  0  0  0  0  0  0  0  0  0  0  0
    4.2043    1.4855    0.0000 H   0  0  0  0  0  0  0  0  0  0  0  0
    5.4106   -1.3473   -0.0000 H   0  0  0  0  0  0  0  0  0  0  0  0
    6.6029    1.5250    0.0000 H   0  0  0  0  0  0  0  0  0  0  0  0
    7.8132   -2.0966   -1.0277 H   0  0  0  0  0  0  0  0  0  0  0  0
    8.7032   -2.0892    0.5138 H   0  0  0  0  0  0  0  0  0  0  0  0
    6.9233   -2.1040    0.5138 H   0  0  0  0  0  0  0  0  0  0  0  0
   10.9673    0.3996    0.0000 H   0  0  0  0  0  0  0  0  0  0  0  0
   -4.2043   -1.4855    0.0000 H   0  0  0  0  0  0  0  0  0  0  0  0
   -5.4106    1.3473   -0.0000 H   0  0  0  0  0  0  0  0  0  0  0  0
   -6.6029   -1.5250    0.0000 H   0  0  0  0  0  0  0  0  0  0  0  0
   -7.8132    2.0966   -1.0277 H   0  0  0  0  0  0  0  0  0  0  0  0
   -8.7032    2.0892    0.5138 H   0  0  0  0  0  0  0  0  0  0  0  0
   -6.9233    2.1040    0.5138 H   0  0  0  0  0  0  0  0  0  0  0  0
  -10.9673   -0.3996    0.0000 H   0  0  0  0  0  0  0  0  0  0  0  0
  1  2  1  0  0  0  0
  2  3  2  0  0  0  0
  3  4  1  0  0  0  0
  4  5  2  0  0  0  0
  5  6  1  0  0  0  0
  6  7  2  0  0  0  0
  7  8  1  0  0  0  0
  7  9  1  0  0  0  0
  9 10  2  0  0  0  0
 10 11  1  0  0  0  0
 11 12  2  0  0  0  0
 12 13  1  0  0  0  0
 12 14  1  0  0  0  0
 14 15  2  0  0  0  0
 14 16  1  0  0  0  0
  2 17  1  0  0  0  0
 17 18  2  0  0  0  0
 18 19  1  0  0  0  0
 19 20  2  0  0  0  0
 20 21  1  0  0  0  0
 20 22  1  0  0  0  0
 22 23  2  0  0  0  0
 22 24  1  0  0  0  0
  1 25  1  0  0  0  0
  1 26  1  0  0  0  0
  1 27  1  0  0  0  0
  3 28  1  0  0  0  0
  4 29  1  0  0  0  0
  5 30  1  0  0  0  0
  6 31  1  0  0  0  0
  8 32  1  0  0  0  0
  8 33  1  0  0  0  0
  8 34  1  0  0  0  0
  9 35  1  0  0  0  0
 10 36  1  0  0  0  0
 11 37  1  0  0  0  0
 13 38  1  0  0  0  0
 13 39  1  0  0  0  0
 13 40  1  0  0  0  0
 16 41  1  0  0  0  0
 17 42  1  0  0  0  0
 18 43  1  0  0  0  0
 19 44  1  0  0  0  0
 21 45  1  0  0  0  0
 21 46  1  0  0  0  0
 21 47  1  0  0  0  0
 24 48  1  0  0  0  0
M  END
$$$$
