C6H12N2O3
APtclcactv06281817123D 0   0.00000     0.00000
 
 23 22  0  0  0  0  0  0  0  0999 V2000
    2.4835    1.7555   -0.0899 C   0  0  0  0  0  0  0  0  0  0  0  0
    2.4701    0.3164    0.4293 C   0  0  0  0  0  0  0  0  0  0  0  0
    1.2100   -0.3714   -0.0293 C   0  0  0  0  0  0  0  0  0  0  0  0
    1.2790   -1.3637   -0.7232 O   0  0  0  0  0  0  0  0  0  0  0  0
    0.0066    0.1162    0.3318 N   0  0  0  0  0  0  0  0  0  0  0  0
   -1.2184   -0.5524   -0.1140 C   0  0  0  0  0  0  0  0  0  0  0  0
   -1.5557   -1.6933    0.8480 C   0  0  0  0  0  0  0  0  0  0  0  0
   -2.3529    0.4393   -0.1347 C   0  0  0  0  0  0  0  0  0  0  0  0
   -2.1583    1.5868    0.1897 O   0  0  0  0  0  0  0  0  0  0  0  0
   -3.5797    0.0477   -0.5134 O   0  0  0  0  0  0  0  0  0  0  0  0
    3.6390   -0.4036   -0.0934 N   0  0  0  0  0  0  0  0  0  0  0  0
    2.4489    1.7491   -1.1794 H   0  0  0  0  0  0  0  0  0  0  0  0
    1.6162    2.2898    0.2979 H   0  0  0  0  0  0  0  0  0  0  0  0
    3.3949    2.2530    0.2417 H   0  0  0  0  0  0  0  0  0  0  0  0
    2.5046    0.3229    1.5187 H   0  0  0  0  0  0  0  0  0  0  0  0
   -0.0486    0.9099    0.8867 H   0  0  0  0  0  0  0  0  0  0  0  0
   -1.0688   -0.9543   -1.1161 H   0  0  0  0  0  0  0  0  0  0  0  0
   -2.4671   -2.1908    0.5163 H   0  0  0  0  0  0  0  0  0  0  0  0
   -0.7351   -2.4106    0.8629 H   0  0  0  0  0  0  0  0  0  0  0  0
   -1.7052   -1.2914    1.8501 H   0  0  0  0  0  0  0  0  0  0  0  0
   -4.2753    0.7195   -0.5106 H   0  0  0  0  0  0  0  0  0  0  0  0
    3.5971   -0.4795   -1.0987 H   0  0  0  0  0  0  0  0  0  0  0  0
    4.4971    0.0384    0.2005 H   0  0  0  0  0  0  0  0  0  0  0  0
  1  2  1  0  0  0  0
  2  3  1  0  0  0  0
  3  4  2  0  0  0  0
  3  5  1  0  0  0  0
  5  6  1  0  0  0  0
  6  7  1  0  0  0  0
  6  8  1  0  0  0  0
  8  9  2  0  0  0  0
  8 10  1  0  0  0  0
  2 11  1  0  0  0  0
  1 12  1  0  0  0  0
  1 13  1  0  0  0  0
  1 14  1  0  0  0  0
  2 15  1  0  0  0  0
  5 16  1  0  0  0  0
  6 17  1  0  0  0  0
  7 18  1  0  0  0  0
  7 19  1  0  0  0  0
  7 20  1  0  0  0  0
 10 21  1  0  0  0  0
 11 22  1  0  0  0  0
 11 23  1  0  0  0  0
M  END
$$$$
