C22H28O8
APtclcactv06281817213D 0   0.00000     0.00000
 
 58 59  0  0  0  0  0  0  0  0999 V2000
    1.8464   -1.8914    2.9388 C   0  0  0  0  0  0  0  0  0  0  0  0
    0.8919   -0.8864    2.3411 C   0  0  0  0  0  0  0  0  0  0  0  0
    1.3385    0.1722    1.7237 C   0  0  0  0  0  0  0  0  0  0  0  0
    2.7952    0.4966    1.5172 C   0  0  0  0  0  0  0  0  0  0  0  0
    3.1178    0.3903    0.0089 C   0  0  0  0  0  0  0  0  0  0  0  0
    1.8367   -0.0840   -0.6453 C   0  0  0  0  0  0  0  0  0  0  0  0
    1.4550   -1.3144   -0.4367 C   0  0  0  0  0  0  0  0  0  0  0  0
    0.1384   -1.8410   -0.9038 C   0  0  0  0  0  0  0  0  0  0  0  0
   -0.5703   -2.4447    0.3410 C   0  0  0  0  0  0  0  0  0  0  0  0
   -1.2849   -1.3982    1.1608 C   0  0  0  0  0  0  0  0  0  0  0  0
   -0.5843   -1.1406    2.4952 C   0  0  0  0  0  0  0  0  0  0  0  0
   -1.3925   -0.1516    0.4246 O   0  0  0  0  0  0  0  0  0  0  0  0
   -2.4014    0.6750    0.7649 C   0  0  0  0  0  0  0  0  0  0  0  0
   -3.2146    0.3298    1.5996 O   0  0  0  0  0  0  0  0  0  0  0  0
   -2.5180    1.9935    0.1267 C   0  0  0  0  0  0  0  0  0  0  0  0
   -3.4395    2.8570    0.5469 C   0  0  0  0  0  0  0  0  0  0  0  0
   -3.6633    4.1446   -0.2034 C   0  0  0  0  0  0  0  0  0  0  0  0
   -5.0664    4.3746   -0.3469 O   0  0  0  0  0  0  0  0  0  0  0  0
   -1.5943    2.3680   -1.0035 C   0  0  0  0  0  0  0  0  0  0  0  0
   -1.8535    1.5268   -2.1292 O   0  0  0  0  0  0  0  0  0  0  0  0
   -1.4694   -3.4919   -0.3011 C   0  0  0  0  0  0  0  0  0  0  0  0
   -2.6163   -3.9943    0.1409 C   0  0  0  0  0  0  0  0  0  0  0  0
   -0.7560   -3.8356   -1.5514 C   0  0  0  0  0  0  0  0  0  0  0  0
   -1.0546   -4.7682   -2.2668 O   0  0  0  0  0  0  0  0  0  0  0  0
    0.2421   -2.9664   -1.8280 O   0  0  0  0  0  0  0  0  0  0  0  0
    1.0792    0.8638   -1.5357 C   0  0  0  0  0  0  0  0  0  0  0  0
    3.4902    1.6906   -0.5144 O   0  0  0  0  0  0  0  0  0  0  0  0
    4.7924    2.0137   -0.4735 C   0  0  0  0  0  0  0  0  0  0  0  0
    5.5941    1.2346   -0.0151 O   0  0  0  0  0  0  0  0  0  0  0  0
    5.2544    3.3483   -0.9992 C   0  0  0  0  0  0  0  0  0  0  0  0
    2.5262   -1.3842    3.6235 H   0  0  0  0  0  0  0  0  0  0  0  0
    1.2825   -2.6496    3.4821 H   0  0  0  0  0  0  0  0  0  0  0  0
    2.4199   -2.3660    2.1426 H   0  0  0  0  0  0  0  0  0  0  0  0
    0.5986    0.8814    1.3467 H   0  0  0  0  0  0  0  0  0  0  0  0
    2.9804    1.5303    1.8395 H   0  0  0  0  0  0  0  0  0  0  0  0
    3.4524   -0.1578    2.0774 H   0  0  0  0  0  0  0  0  0  0  0  0
    3.9125   -0.3322   -0.1566 H   0  0  0  0  0  0  0  0  0  0  0  0
    2.1395   -1.9864    0.0904 H   0  0  0  0  0  0  0  0  0  0  0  0
   -0.4988   -1.0856   -1.3457 H   0  0  0  0  0  0  0  0  0  0  0  0
    0.1836   -2.9676    0.9461 H   0  0  0  0  0  0  0  0  0  0  0  0
   -2.3056   -1.7435    1.3794 H   0  0  0  0  0  0  0  0  0  0  0  0
   -0.7250   -2.0087    3.1446 H   0  0  0  0  0  0  0  0  0  0  0  0
   -1.0420   -0.2723    2.9764 H   0  0  0  0  0  0  0  0  0  0  0  0
   -4.0269    2.6349    1.4256 H   0  0  0  0  0  0  0  0  0  0  0  0
   -3.2145    4.9699    0.3493 H   0  0  0  0  0  0  0  0  0  0  0  0
   -3.2038    4.0752   -1.1894 H   0  0  0  0  0  0  0  0  0  0  0  0
   -5.2850    5.1883   -0.8215 H   0  0  0  0  0  0  0  0  0  0  0  0
   -1.7628    3.4085   -1.2810 H   0  0  0  0  0  0  0  0  0  0  0  0
   -0.5598    2.2400   -0.6849 H   0  0  0  0  0  0  0  0  0  0  0  0
   -1.2938    1.7119   -2.8957 H   0  0  0  0  0  0  0  0  0  0  0  0
   -3.0269   -3.6571    1.0812 H   0  0  0  0  0  0  0  0  0  0  0  0
   -3.1387   -4.7401   -0.4400 H   0  0  0  0  0  0  0  0  0  0  0  0
    1.3742    0.7024   -2.5726 H   0  0  0  0  0  0  0  0  0  0  0  0
    0.0092    0.6846   -1.4303 H   0  0  0  0  0  0  0  0  0  0  0  0
    1.3055    1.8908   -1.2492 H   0  0  0  0  0  0  0  0  0  0  0  0
    4.7672    4.1474   -0.4405 H   0  0  0  0  0  0  0  0  0  0  0  0
    6.3351    3.4303   -0.8828 H   0  0  0  0  0  0  0  0  0  0  0  0
    4.9952    3.4325   -2.0546 H   0  0  0  0  0  0  0  0  0  0  0  0
  1  2  1  0  0  0  0
  2  3  2  0  0  0  0
  3  4  1  0  0  0  0
  4  5  1  0  0  0  0
  5  6  1  0  0  0  0
  6  7  2  0  0  0  0
  7  8  1  0  0  0  0
  8  9  1  0  0  0  0
  9 10  1  0  0  0  0
 10 11  1  0  0  0  0
  2 11  1  0  0  0  0
 10 12  1  0  0  0  0
 12 13  1  0  0  0  0
 13 14  2  0  0  0  0
 13 15  1  0  0  0  0
 15 16  2  0  0  0  0
 16 17  1  0  0  0  0
 17 18  1  0  0  0  0
 15 19  1  0  0  0  0
 19 20  1  0  0  0  0
  9 21  1  0  0  0  0
 21 22  2  0  0  0  0
 21 23  1  0  0  0  0
 23 24  2  0  0  0  0
 23 25  1  0  0  0  0
  8 25  1  0  0  0  0
  6 26  1  0  0  0  0
  5 27  1  0  0  0  0
 27 28  1  0  0  0  0
 28 29  2  0  0  0  0
 28 30  1  0  0  0  0
  1 31  1  0  0  0  0
  1 32  1  0  0  0  0
  1 33  1  0  0  0  0
  3 34  1  0  0  0  0
  4 35  1  0  0  0  0
  4 36  1  0  0  0  0
  5 37  1  0  0  0  0
  7 38  1  0  0  0  0
  8 39  1  0  0  0  0
  9 40  1  0  0  0  0
 10 41  1  0  0  0  0
 11 42  1  0  0  0  0
 11 43  1  0  0  0  0
 16 44  1  0  0  0  0
 17 45  1  0  0  0  0
 17 46  1  0  0  0  0
 18 47  1  0  0  0  0
 19 48  1  0  0  0  0
 19 49  1  0  0  0  0
 20 50  1  0  0  0  0
 22 51  1  0  0  0  0
 22 52  1  0  0  0  0
 26 53  1  0  0  0  0
 26 54  1  0  0  0  0
 26 55  1  0  0  0  0
 30 56  1  0  0  0  0
 30 57  1  0  0  0  0
 30 58  1  0  0  0  0
M  END
$$$$
