C2H6N2O2
APtclcactv06281817123D 0   0.00000     0.00000
 
 12 11  0  0  0  0  0  0  0  0999 V2000
    2.1646    0.7905    0.1588 C   0  0  0  0  0  0  0  0  0  0  0  0
    0.9307    0.0220   -0.0231 N   0  3  0  0  0  0  0  0  0  0  0  0
   -0.1269    0.6049   -0.3048 N   0  0  0  0  0  0  0  0  0  0  0  0
   -1.3608   -0.1636   -0.4866 C   0  0  0  0  0  0  0  0  0  0  0  0
   -2.3370    0.2714    0.4620 O   0  0  0  0  0  0  0  0  0  0  0  0
    0.9457   -1.3864    0.1229 O   0  5  0  0  0  0  0  0  0  0  0  0
    1.9583    1.8501    0.0079 H   0  0  0  0  0  0  0  0  0  0  0  0
    2.5444    0.6345    1.1685 H   0  0  0  0  0  0  0  0  0  0  0  0
    2.9093    0.4587   -0.5648 H   0  0  0  0  0  0  0  0  0  0  0  0
   -1.7406   -0.0076   -1.4963 H   0  0  0  0  0  0  0  0  0  0  0  0
   -1.1545   -1.2232   -0.3357 H   0  0  0  0  0  0  0  0  0  0  0  0
   -3.1816   -0.1955    0.3994 H   0  0  0  0  0  0  0  0  0  0  0  0
  1  2  1  0  0  0  0
  2  3  2  0  0  0  0
  3  4  1  0  0  0  0
  4  5  1  0  0  0  0
  2  6  1  0  0  0  0
  1  7  1  0  0  0  0
  1  8  1  0  0  0  0
  1  9  1  0  0  0  0
  4 10  1  0  0  0  0
  4 11  1  0  0  0  0
  5 12  1  0  0  0  0
M  CHG  2   2   1   6  -1
M  END
$$$$
