C18H33O2
APtclcactv06281817123D 0   0.00000     0.00000
 
 53 52  0  0  0  0  0  0  0  0999 V2000
   11.0923    1.3781   -0.2640 C   0  0  0  0  0  0  0  0  0  0  0  0
    9.7014    1.6650    0.3052 C   0  0  0  0  0  0  0  0  0  0  0  0
    8.7030    0.6476   -0.2507 C   0  0  0  0  0  0  0  0  0  0  0  0
    7.3121    0.9346    0.3185 C   0  0  0  0  0  0  0  0  0  0  0  0
    6.3137   -0.0829   -0.2374 C   0  0  0  0  0  0  0  0  0  0  0  0
    4.9229    0.2041    0.3318 C   0  0  0  0  0  0  0  0  0  0  0  0
    3.9245   -0.8133   -0.2241 C   0  0  0  0  0  0  0  0  0  0  0  0
    2.5336   -0.5264    0.3451 C   0  0  0  0  0  0  0  0  0  0  0  0
    1.5352   -1.5438   -0.2108 C   0  0  0  0  0  0  0  0  0  0  0  0
    0.1443   -1.2569    0.3584 C   0  0  0  0  0  0  0  0  0  0  0  0
   -0.8541   -2.2743   -0.1975 C   0  0  0  0  0  0  0  0  0  0  0  0
   -2.2241   -1.9916    0.3632 C   0  0  0  0  0  0  0  0  0  0  0  0
   -3.2374   -1.8061   -0.4460 C   0  0  0  0  0  0  0  0  0  0  0  0
   -4.6074   -1.5234    0.1146 C   0  0  0  0  0  0  0  0  0  0  0  0
   -5.1458   -0.2232   -0.4857 C   0  0  0  0  0  0  0  0  0  0  0  0
   -6.5367    0.0637    0.0835 C   0  0  0  0  0  0  0  0  0  0  0  0
   -7.0752    1.3640   -0.5168 C   0  0  0  0  0  0  0  0  0  0  0  0
   -8.4452    1.6466    0.0438 C   0  0  0  0  0  0  0  0  0  0  0  0
   -8.9446    0.8792    0.8489 O   0  0  0  0  0  0  0  0  0  0  0  0
   -9.0541    2.6426   -0.3077 O   0  5  0  0  0  0  0  0  0  0  0  0
   11.8036    2.1029    0.1320 H   0  0  0  0  0  0  0  0  0  0  0  0
   11.4013    0.3725    0.0214 H   0  0  0  0  0  0  0  0  0  0  0  0
   11.0629    1.4544   -1.3509 H   0  0  0  0  0  0  0  0  0  0  0  0
    9.7308    1.5887    1.3921 H   0  0  0  0  0  0  0  0  0  0  0  0
    9.3924    2.6706    0.0198 H   0  0  0  0  0  0  0  0  0  0  0  0
    8.6736    0.7239   -1.3376 H   0  0  0  0  0  0  0  0  0  0  0  0
    9.0120   -0.3579    0.0347 H   0  0  0  0  0  0  0  0  0  0  0  0
    7.3415    0.8583    1.4054 H   0  0  0  0  0  0  0  0  0  0  0  0
    7.0031    1.9401    0.0331 H   0  0  0  0  0  0  0  0  0  0  0  0
    6.2844   -0.0065   -1.3243 H   0  0  0  0  0  0  0  0  0  0  0  0
    6.6228   -1.0884    0.0480 H   0  0  0  0  0  0  0  0  0  0  0  0
    4.9522    0.1278    1.4187 H   0  0  0  0  0  0  0  0  0  0  0  0
    4.6138    1.2097    0.0464 H   0  0  0  0  0  0  0  0  0  0  0  0
    3.8951   -0.7370   -1.3110 H   0  0  0  0  0  0  0  0  0  0  0  0
    4.2335   -1.8189    0.0613 H   0  0  0  0  0  0  0  0  0  0  0  0
    2.5630   -0.6027    1.4320 H   0  0  0  0  0  0  0  0  0  0  0  0
    2.2246    0.4792    0.0597 H   0  0  0  0  0  0  0  0  0  0  0  0
    1.5058   -1.4675   -1.2977 H   0  0  0  0  0  0  0  0  0  0  0  0
    1.8442   -2.5494    0.0746 H   0  0  0  0  0  0  0  0  0  0  0  0
    0.1737   -1.3332    1.4454 H   0  0  0  0  0  0  0  0  0  0  0  0
   -0.1647   -0.2513    0.0730 H   0  0  0  0  0  0  0  0  0  0  0  0
   -0.8835   -2.1980   -1.2844 H   0  0  0  0  0  0  0  0  0  0  0  0
   -0.5451   -3.2798    0.0880 H   0  0  0  0  0  0  0  0  0  0  0  0
   -2.3704   -1.9421    1.4321 H   0  0  0  0  0  0  0  0  0  0  0  0
   -3.0911   -1.8556   -1.5149 H   0  0  0  0  0  0  0  0  0  0  0  0
   -5.2790   -2.3447   -0.1357 H   0  0  0  0  0  0  0  0  0  0  0  0
   -4.5432   -1.4241    1.1982 H   0  0  0  0  0  0  0  0  0  0  0  0
   -4.4743    0.5980   -0.2353 H   0  0  0  0  0  0  0  0  0  0  0  0
   -5.2101   -0.3226   -1.5693 H   0  0  0  0  0  0  0  0  0  0  0  0
   -7.2083   -0.7575   -0.1669 H   0  0  0  0  0  0  0  0  0  0  0  0
   -6.4725    0.1631    1.1670 H   0  0  0  0  0  0  0  0  0  0  0  0
   -6.4036    2.1852   -0.2665 H   0  0  0  0  0  0  0  0  0  0  0  0
   -7.1394    1.2646   -1.6004 H   0  0  0  0  0  0  0  0  0  0  0  0
  1  2  1  0  0  0  0
  2  3  1  0  0  0  0
  3  4  1  0  0  0  0
  4  5  1  0  0  0  0
  5  6  1  0  0  0  0
  6  7  1  0  0  0  0
  7  8  1  0  0  0  0
  8  9  1  0  0  0  0
  9 10  1  0  0  0  0
 10 11  1  0  0  0  0
 11 12  1  0  0  0  0
 12 13  2  0  0  0  0
 13 14  1  0  0  0  0
 14 15  1  0  0  0  0
 15 16  1  0  0  0  0
 16 17  1  0  0  0  0
 17 18  1  0  0  0  0
 18 19  2  0  0  0  0
 18 20  1  0  0  0  0
  1 21  1  0  0  0  0
  1 22  1  0  0  0  0
  1 23  1  0  0  0  0
  2 24  1  0  0  0  0
  2 25  1  0  0  0  0
  3 26  1  0  0  0  0
  3 27  1  0  0  0  0
  4 28  1  0  0  0  0
  4 29  1  0  0  0  0
  5 30  1  0  0  0  0
  5 31  1  0  0  0  0
  6 32  1  0  0  0  0
  6 33  1  0  0  0  0
  7 34  1  0  0  0  0
  7 35  1  0  0  0  0
  8 36  1  0  0  0  0
  8 37  1  0  0  0  0
  9 38  1  0  0  0  0
  9 39  1  0  0  0  0
 10 40  1  0  0  0  0
 10 41  1  0  0  0  0
 11 42  1  0  0  0  0
 11 43  1  0  0  0  0
 12 44  1  0  0  0  0
 13 45  1  0  0  0  0
 14 46  1  0  0  0  0
 14 47  1  0  0  0  0
 15 48  1  0  0  0  0
 15 49  1  0  0  0  0
 16 50  1  0  0  0  0
 16 51  1  0  0  0  0
 17 52  1  0  0  0  0
 17 53  1  0  0  0  0
M  CHG  1  20  -1
M  END
$$$$
