C14H33N10O7PS
APtclcactv06281817123D 0   0.00000     0.00000
 
 66 65  0  0  0  0  0  0  0  0999 V2000
    2.4938    0.1851    2.2329 C   0  0  0  0  0  0  0  0  0  0  0  0
    2.6946    0.5675    0.7652 C   0  0  0  0  0  0  0  0  0  0  0  0
    3.3726   -0.5657    0.0391 C   0  0  0  0  0  0  0  0  0  0  0  0
    2.8228   -1.0982   -0.9017 O   0  0  0  0  0  0  0  0  0  0  0  0
    4.5899   -0.9874    0.4351 N   0  0  0  0  0  0  0  0  0  0  0  0
    5.2490   -2.0890   -0.2707 C   0  0  0  0  0  0  0  0  0  0  0  0
    6.7640   -1.9778   -0.0881 C   0  0  0  0  0  0  0  0  0  0  0  0
    7.2674   -0.7029   -0.7679 C   0  0  0  0  0  0  0  0  0  0  0  0
    8.7824   -0.5917   -0.5853 C   0  0  0  0  0  0  0  0  0  0  0  0
    9.2644    0.6291   -1.2361 N   0  0  0  0  0  0  0  0  0  0  0  0
    9.8136    1.5734   -0.5251 C   0  0  0  0  0  0  0  0  0  0  0  0
   10.0584    1.3725    0.8128 N   0  0  0  0  0  0  0  0  0  0  0  0
   10.1481    2.7703   -1.1129 N   0  0  0  0  0  0  0  0  0  0  0  0
    4.7704   -3.4031    0.2908 C   0  0  0  0  0  0  0  0  0  0  0  0
    3.9618   -3.4179    1.1884 O   0  0  0  0  0  0  0  0  0  0  0  0
    5.2425   -4.5571   -0.2064 O   0  0  0  0  0  0  0  0  0  0  0  0
    1.3932    0.8341    0.1475 N   0  0  0  0  0  0  0  0  0  0  0  0
    0.8338    2.0555    0.2550 C   0  0  0  0  0  0  0  0  0  0  0  0
    1.4077    2.9340    0.8631 O   0  0  0  0  0  0  0  0  0  0  0  0
   -0.5050    2.3297   -0.3803 C   0  0  0  0  0  0  0  0  0  0  0  0
   -1.6170    1.7834    0.5174 C   0  0  0  0  0  0  0  0  0  0  0  0
   -2.9666    1.9496   -0.1840 C   0  0  0  0  0  0  0  0  0  0  0  0
   -4.0786    1.4033    0.7137 C   0  0  0  0  0  0  0  0  0  0  0  0
   -5.3743    1.5630    0.0403 N   0  0  0  0  0  0  0  0  0  0  0  0
   -6.2986    0.1625    0.1711 P   0  0  0  0  0  0  0  0  0  0  0  0
   -5.5386   -1.0227   -0.4856 N   0  0  0  0  0  0  0  0  0  0  0  0
   -6.5733   -0.1786    1.7961 N   0  0  0  0  0  0  0  0  0  0  0  0
   -7.7337    0.3815   -0.5918 N   0  0  0  0  0  0  0  0  0  0  0  0
   -8.8500   -0.8414   -0.6229 S   0  0  0  0  0  0  0  0  0  0  0  0
   -9.9810   -0.3347   -1.3181 O   0  0  0  0  0  0  0  0  0  0  0  0
   -8.1515   -2.0121   -1.0239 O   0  0  0  0  0  0  0  0  0  0  0  0
   -9.2983   -1.0787    0.8121 O   0  0  0  0  0  0  0  0  0  0  0  0
   -0.6793    3.7785   -0.5491 N   0  0  0  0  0  0  0  0  0  0  0  0
    2.0035    1.0048    2.7581 H   0  0  0  0  0  0  0  0  0  0  0  0
    1.8729   -0.7086    2.2939 H   0  0  0  0  0  0  0  0  0  0  0  0
    3.4621   -0.0132    2.6925 H   0  0  0  0  0  0  0  0  0  0  0  0
    3.3156    1.4613    0.7042 H   0  0  0  0  0  0  0  0  0  0  0  0
    5.0296   -0.5614    1.1876 H   0  0  0  0  0  0  0  0  0  0  0  0
    5.0061   -2.0374   -1.3321 H   0  0  0  0  0  0  0  0  0  0  0  0
    7.0000   -1.9400    0.9753 H   0  0  0  0  0  0  0  0  0  0  0  0
    7.2486   -2.8447   -0.5373 H   0  0  0  0  0  0  0  0  0  0  0  0
    7.0314   -0.7406   -1.8313 H   0  0  0  0  0  0  0  0  0  0  0  0
    6.7827    0.1640   -0.3187 H   0  0  0  0  0  0  0  0  0  0  0  0
    9.0184   -0.5539    0.4782 H   0  0  0  0  0  0  0  0  0  0  0  0
    9.2670   -1.4585   -1.0345 H   0  0  0  0  0  0  0  0  0  0  0  0
    9.9569    0.4876    1.1968 H   0  0  0  0  0  0  0  0  0  0  0  0
   10.3327    2.1156    1.3726 H   0  0  0  0  0  0  0  0  0  0  0  0
    9.9753    2.9121   -2.0568 H   0  0  0  0  0  0  0  0  0  0  0  0
   10.5568    3.4731   -0.5838 H   0  0  0  0  0  0  0  0  0  0  0  0
    4.9060   -5.3744    0.1859 H   0  0  0  0  0  0  0  0  0  0  0  0
    0.9341    0.1315   -0.3388 H   0  0  0  0  0  0  0  0  0  0  0  0
   -0.5517    1.8422   -1.3541 H   0  0  0  0  0  0  0  0  0  0  0  0
   -1.4380    0.7265    0.7151 H   0  0  0  0  0  0  0  0  0  0  0  0
   -1.6267    2.3326    1.4589 H   0  0  0  0  0  0  0  0  0  0  0  0
   -3.1455    3.0065   -0.3817 H   0  0  0  0  0  0  0  0  0  0  0  0
   -2.9568    1.4004   -1.1254 H   0  0  0  0  0  0  0  0  0  0  0  0
   -3.8996    0.3465    0.9115 H   0  0  0  0  0  0  0  0  0  0  0  0
   -4.0883    1.9526    1.6552 H   0  0  0  0  0  0  0  0  0  0  0  0
   -5.8741    2.3612    0.4024 H   0  0  0  0  0  0  0  0  0  0  0  0
   -5.3012   -0.9855   -1.4253 H   0  0  0  0  0  0  0  0  0  0  0  0
   -5.7083   -0.3810    2.2743 H   0  0  0  0  0  0  0  0  0  0  0  0
   -7.0668    0.5779    2.2459 H   0  0  0  0  0  0  0  0  0  0  0  0
   -7.9288    1.2273   -1.0248 H   0  0  0  0  0  0  0  0  0  0  0  0
   -9.9569   -1.7803    0.9074 H   0  0  0  0  0  0  0  0  0  0  0  0
   -0.6399    4.2535    0.3402 H   0  0  0  0  0  0  0  0  0  0  0  0
    0.0046    4.1528   -1.1896 H   0  0  0  0  0  0  0  0  0  0  0  0
  1  2  1  0  0  0  0
  2  3  1  0  0  0  0
  3  4  2  0  0  0  0
  3  5  1  0  0  0  0
  5  6  1  0  0  0  0
  6  7  1  0  0  0  0
  7  8  1  0  0  0  0
  8  9  1  0  0  0  0
  9 10  1  0  0  0  0
 10 11  2  0  0  0  0
 11 12  1  0  0  0  0
 11 13  1  0  0  0  0
  6 14  1  0  0  0  0
 14 15  2  0  0  0  0
 14 16  1  0  0  0  0
  2 17  1  0  0  0  0
 17 18  1  0  0  0  0
 18 19  2  0  0  0  0
 18 20  1  0  0  0  0
 20 21  1  0  0  0  0
 21 22  1  0  0  0  0
 22 23  1  0  0  0  0
 23 24  1  0  0  0  0
 24 25  1  0  0  0  0
 25 26  2  0  0  0  0
 25 27  1  0  0  0  0
 25 28  1  0  0  0  0
 28 29  1  0  0  0  0
 29 30  2  0  0  0  0
 29 31  2  0  0  0  0
 29 32  1  0  0  0  0
 20 33  1  0  0  0  0
  1 34  1  0  0  0  0
  1 35  1  0  0  0  0
  1 36  1  0  0  0  0
  2 37  1  0  0  0  0
  5 38  1  0  0  0  0
  6 39  1  0  0  0  0
  7 40  1  0  0  0  0
  7 41  1  0  0  0  0
  8 42  1  0  0  0  0
  8 43  1  0  0  0  0
  9 44  1  0  0  0  0
  9 45  1  0  0  0  0
 12 46  1  0  0  0  0
 12 47  1  0  0  0  0
 13 48  1  0  0  0  0
 13 49  1  0  0  0  0
 16 50  1  0  0  0  0
 17 51  1  0  0  0  0
 20 52  1  0  0  0  0
 21 53  1  0  0  0  0
 21 54  1  0  0  0  0
 22 55  1  0  0  0  0
 22 56  1  0  0  0  0
 23 57  1  0  0  0  0
 23 58  1  0  0  0  0
 24 59  1  0  0  0  0
 26 60  1  0  0  0  0
 27 61  1  0  0  0  0
 27 62  1  0  0  0  0
 28 63  1  0  0  0  0
 32 64  1  0  0  0  0
 33 65  1  0  0  0  0
 33 66  1  0  0  0  0
M  END
$$$$
