C36H36N4O6
APtclcactv06281817123D 0   0.00000     0.00000
 
 82 87  0  0  0  0  0  0  0  0999 V2000
    5.9600    3.8427    1.7799 C   0  0  0  0  0  0  0  0  0  0  0  0
    5.8717    3.3986    0.3184 C   0  0  0  0  0  0  0  0  0  0  0  0
    5.0279    2.1537    0.2217 C   0  0  0  0  0  0  0  0  0  0  0  0
    3.6473    2.1068    0.0318 C   0  0  0  0  0  0  0  0  0  0  0  0
    2.8067    3.2151   -0.0872 C   0  0  0  0  0  0  0  0  0  0  0  0
    1.4319    3.0051   -0.2910 C   0  0  0  0  0  0  0  0  0  0  0  0
    0.4463    4.0044   -0.4010 C   0  0  0  0  0  0  0  0  0  0  0  0
   -0.7583    3.3505   -0.6292 C   0  0  0  0  0  0  0  0  0  0  0  0
   -2.1896    3.5157   -0.8574 C   0  0  0  0  0  0  0  0  0  0  0  0
   -2.8039    4.5623   -0.8795 O   0  0  0  0  0  0  0  0  0  0  0  0
   -2.7593    2.1293   -1.0616 C   0  0  0  0  0  0  0  0  0  0  0  0
   -1.6148    1.1693   -0.8696 C   0  0  0  0  0  0  0  0  0  0  0  0
   -1.6735   -0.2037   -0.9138 C   0  0  0  0  0  0  0  0  0  0  0  0
   -2.9081   -1.0315   -1.1894 C   0  0  0  0  0  0  0  0  0  0  0  0
   -2.3821   -2.4792   -1.1057 C   0  0  0  0  0  0  0  0  0  0  0  0
   -0.9107   -2.2927   -0.7784 C   0  0  0  0  0  0  0  0  0  0  0  0
   -0.6436   -1.0104   -0.7098 N   0  0  0  0  0  0  0  0  0  0  0  0
   -0.0216   -3.3295   -0.5750 C   0  0  0  0  0  0  0  0  0  0  0  0
    1.3271   -3.1617   -0.2922 C   0  0  0  0  0  0  0  0  0  0  0  0
    2.2010   -4.2380   -0.0670 C   0  0  0  0  0  0  0  0  0  0  0  0
    3.4616   -3.7244    0.1691 C   0  0  0  0  0  0  0  0  0  0  0  0
    3.3468   -2.2604    0.0767 C   0  0  0  0  0  0  0  0  0  0  0  0
    4.4099   -1.3958    0.2254 C   0  0  0  0  0  0  0  0  0  0  0  0
    4.3536   -0.0126    0.1699 C   0  0  0  0  0  0  0  0  0  0  0  0
    5.4863    0.8404    0.2998 C   0  0  0  0  0  0  0  0  0  0  0  0
    6.8766    0.4155    0.4834 C   0  0  0  0  0  0  0  0  0  0  0  0
    7.1478   -0.7659    0.5378 O   0  0  0  0  0  0  0  0  0  0  0  0
    3.2543    0.7819   -0.0147 N   0  0  0  0  0  0  0  0  0  0  0  0
    2.0257   -1.9806   -0.1852 N   0  0  0  0  0  0  0  0  0  0  0  0
    4.6849   -4.4942    0.4581 C   0  0  0  0  0  0  0  0  0  0  0  0
    4.9978   -5.5492   -0.2871 C   0  0  0  0  0  0  0  0  0  0  0  0
    1.8283   -5.6981   -0.0801 C   0  0  0  0  0  0  0  0  0  0  0  0
   -3.0913   -3.2490    0.0102 C   0  0  0  0  0  0  0  0  0  0  0  0
   -3.9770   -0.7813   -0.1237 C   0  0  0  0  0  0  0  0  0  0  0  0
   -5.2946   -1.4236   -0.5621 C   0  0  0  0  0  0  0  0  0  0  0  0
   -6.3036   -1.3104    0.5515 C   0  0  0  0  0  0  0  0  0  0  0  0
   -6.0415   -0.6691    1.5413 O   0  0  0  0  0  0  0  0  0  0  0  0
   -7.4936   -1.9220    0.4436 O   0  0  0  0  0  0  0  0  0  0  0  0
   -8.4587   -1.6773    1.5005 C   0  0  0  0  0  0  0  0  0  0  0  0
   -0.4392    1.9151   -0.6344 C   0  0  0  0  0  0  0  0  0  0  0  0
    0.8669    1.7953   -0.4132 N   0  0  0  0  0  0  0  0  0  0  0  0
   -3.8385    1.8582   -0.0453 C   0  0  0  0  0  0  0  0  0  0  0  0
   -4.9924    1.7809   -0.3954 O   0  0  0  0  0  0  0  0  0  0  0  0
   -3.5179    1.7027    1.2488 O   0  0  0  0  0  0  0  0  0  0  0  0
   -4.6116    1.4736    2.1760 C   0  0  0  0  0  0  0  0  0  0  0  0
    0.6566    5.4927   -0.2920 C   0  0  0  0  0  0  0  0  0  0  0  0
    6.5703    4.7431    1.8498 H   0  0  0  0  0  0  0  0  0  0  0  0
    4.9590    4.0520    2.1571 H   0  0  0  0  0  0  0  0  0  0  0  0
    6.4136    3.0493    2.3739 H   0  0  0  0  0  0  0  0  0  0  0  0
    5.4182    4.1920   -0.2756 H   0  0  0  0  0  0  0  0  0  0  0  0
    6.8727    3.1893   -0.0588 H   0  0  0  0  0  0  0  0  0  0  0  0
    3.2059    4.2166   -0.0235 H   0  0  0  0  0  0  0  0  0  0  0  0
   -3.1622    2.0348   -2.0700 H   0  0  0  0  0  0  0  0  0  0  0  0
   -3.3000   -0.8204   -2.1844 H   0  0  0  0  0  0  0  0  0  0  0  0
   -2.5028   -2.9891   -2.0615 H   0  0  0  0  0  0  0  0  0  0  0  0
   -0.4010   -4.3386   -0.6400 H   0  0  0  0  0  0  0  0  0  0  0  0
    5.3789   -1.8387    0.4024 H   0  0  0  0  0  0  0  0  0  0  0  0
    7.6599    1.1539    0.5704 H   0  0  0  0  0  0  0  0  0  0  0  0
    2.3478    0.4669   -0.1559 H   0  0  0  0  0  0  0  0  0  0  0  0
    1.6470   -1.0926   -0.2800 H   0  0  0  0  0  0  0  0  0  0  0  0
    5.3270   -4.2009    1.2755 H   0  0  0  0  0  0  0  0  0  0  0  0
    4.4032   -5.7925   -1.1553 H   0  0  0  0  0  0  0  0  0  0  0  0
    5.8465   -6.1632   -0.0245 H   0  0  0  0  0  0  0  0  0  0  0  0
    1.9442   -6.0936   -1.0892 H   0  0  0  0  0  0  0  0  0  0  0  0
    2.4794   -6.2454    0.6016 H   0  0  0  0  0  0  0  0  0  0  0  0
    0.7919   -5.8115    0.2378 H   0  0  0  0  0  0  0  0  0  0  0  0
   -4.1245   -3.4400   -0.2801 H   0  0  0  0  0  0  0  0  0  0  0  0
   -2.5803   -4.1968    0.1793 H   0  0  0  0  0  0  0  0  0  0  0  0
   -3.0745   -2.6586    0.9263 H   0  0  0  0  0  0  0  0  0  0  0  0
   -3.6566   -1.2185    0.8220 H   0  0  0  0  0  0  0  0  0  0  0  0
   -4.1202    0.2919    0.0023 H   0  0  0  0  0  0  0  0  0  0  0  0
   -5.6715   -0.9116   -1.4475 H   0  0  0  0  0  0  0  0  0  0  0  0
   -5.1264   -2.4752   -0.7945 H   0  0  0  0  0  0  0  0  0  0  0  0
   -9.3416   -2.2950    1.3364 H   0  0  0  0  0  0  0  0  0  0  0  0
   -8.0140   -1.9275    2.4637 H   0  0  0  0  0  0  0  0  0  0  0  0
   -8.7450   -0.6256    1.4947 H   0  0  0  0  0  0  0  0  0  0  0  0
   -5.5287    1.8990    1.7683 H   0  0  0  0  0  0  0  0  0  0  0  0
   -4.7432    0.4018    2.3249 H   0  0  0  0  0  0  0  0  0  0  0  0
   -4.3841    1.9478    3.1306 H   0  0  0  0  0  0  0  0  0  0  0  0
    1.7116    5.6982   -0.1106 H   0  0  0  0  0  0  0  0  0  0  0  0
    0.3475    5.9723   -1.2207 H   0  0  0  0  0  0  0  0  0  0  0  0
    0.0629    5.8840    0.5342 H   0  0  0  0  0  0  0  0  0  0  0  0
  1  2  1  0  0  0  0
  2  3  1  0  0  0  0
  3  4  2  0  0  0  0
  4  5  1  0  0  0  0
  5  6  2  0  0  0  0
  6  7  1  0  0  0  0
  7  8  2  0  0  0  0
  8  9  1  0  0  0  0
  9 10  2  0  0  0  0
  9 11  1  0  0  0  0
 11 12  1  0  0  0  0
 12 13  2  0  0  0  0
 13 14  1  0  0  0  0
 14 15  1  0  0  0  0
 15 16  1  0  0  0  0
 16 17  2  0  0  0  0
 13 17  1  0  0  0  0
 16 18  1  0  0  0  0
 18 19  2  0  0  0  0
 19 20  1  0  0  0  0
 20 21  2  0  0  0  0
 21 22  1  0  0  0  0
 22 23  2  0  0  0  0
 23 24  1  0  0  0  0
 24 25  2  0  0  0  0
  3 25  1  0  0  0  0
 25 26  1  0  0  0  0
 26 27  2  0  0  0  0
 24 28  1  0  0  0  0
  4 28  1  0  0  0  0
 22 29  1  0  0  0  0
 19 29  1  0  0  0  0
 21 30  1  0  0  0  0
 30 31  2  0  0  0  0
 20 32  1  0  0  0  0
 15 33  1  0  0  0  0
 14 34  1  0  0  0  0
 34 35  1  0  0  0  0
 35 36  1  0  0  0  0
 36 37  2  0  0  0  0
 36 38  1  0  0  0  0
 38 39  1  0  0  0  0
 12 40  1  0  0  0  0
  8 40  1  0  0  0  0
 40 41  2  0  0  0  0
  6 41  1  0  0  0  0
 11 42  1  0  0  0  0
 42 43  2  0  0  0  0
 42 44  1  0  0  0  0
 44 45  1  0  0  0  0
  7 46  1  0  0  0  0
  1 47  1  0  0  0  0
  1 48  1  0  0  0  0
  1 49  1  0  0  0  0
  2 50  1  0  0  0  0
  2 51  1  0  0  0  0
  5 52  1  0  0  0  0
 11 53  1  0  0  0  0
 14 54  1  0  0  0  0
 15 55  1  0  0  0  0
 18 56  1  0  0  0  0
 23 57  1  0  0  0  0
 26 58  1  0  0  0  0
 28 59  1  0  0  0  0
 29 60  1  0  0  0  0
 30 61  1  0  0  0  0
 31 62  1  0  0  0  0
 31 63  1  0  0  0  0
 32 64  1  0  0  0  0
 32 65  1  0  0  0  0
 32 66  1  0  0  0  0
 33 67  1  0  0  0  0
 33 68  1  0  0  0  0
 33 69  1  0  0  0  0
 34 70  1  0  0  0  0
 34 71  1  0  0  0  0
 35 72  1  0  0  0  0
 35 73  1  0  0  0  0
 39 74  1  0  0  0  0
 39 75  1  0  0  0  0
 39 76  1  0  0  0  0
 45 77  1  0  0  0  0
 45 78  1  0  0  0  0
 45 79  1  0  0  0  0
 46 80  1  0  0  0  0
 46 81  1  0  0  0  0
 46 82  1  0  0  0  0
M  END
$$$$
