C18H16O8
APtclcactv06281817123D 0   0.00000     0.00000
 
 42 44  0  0  0  0  0  0  0  0999 V2000
    4.4732    2.6550    1.5504 C   0  0  0  0  0  0  0  0  0  0  0  0
    4.9238    1.4040    1.0270 O   0  0  0  0  0  0  0  0  0  0  0  0
    3.9844    0.5928    0.4712 C   0  0  0  0  0  0  0  0  0  0  0  0
    2.6600    0.9940    0.4317 C   0  0  0  0  0  0  0  0  0  0  0  0
    1.6976    0.1625   -0.1384 C   0  0  0  0  0  0  0  0  0  0  0  0
    2.0703   -1.0713   -0.6677 C   0  0  0  0  0  0  0  0  0  0  0  0
    3.3959   -1.4696   -0.6266 C   0  0  0  0  0  0  0  0  0  0  0  0
    4.3555   -0.6367   -0.0623 C   0  0  0  0  0  0  0  0  0  0  0  0
    5.6581   -1.0294   -0.0231 O   0  0  0  0  0  0  0  0  0  0  0  0
    6.4764   -0.6749   -1.1396 C   0  0  0  0  0  0  0  0  0  0  0  0
    3.7600   -2.6738   -1.1431 O   0  0  0  0  0  0  0  0  0  0  0  0
    0.2780    0.5905   -0.1812 C   0  0  0  0  0  0  0  0  0  0  0  0
   -0.1055    1.6663   -0.9160 C   0  0  0  0  0  0  0  0  0  0  0  0
   -1.3655    2.0981   -0.9714 O   0  0  0  0  0  0  0  0  0  0  0  0
   -2.3897    1.3224   -0.5658 C   0  0  0  0  0  0  0  0  0  0  0  0
   -3.6931    1.6349   -0.9265 C   0  0  0  0  0  0  0  0  0  0  0  0
   -4.7440    0.8411   -0.4973 C   0  0  0  0  0  0  0  0  0  0  0  0
   -4.5119   -0.2777    0.3007 C   0  0  0  0  0  0  0  0  0  0  0  0
   -3.2175   -0.6092    0.6687 C   0  0  0  0  0  0  0  0  0  0  0  0
   -2.1532    0.1859    0.2294 C   0  0  0  0  0  0  0  0  0  0  0  0
   -0.7596   -0.1443    0.5688 C   0  0  0  0  0  0  0  0  0  0  0  0
   -0.4785   -0.9703    1.4204 O   0  0  0  0  0  0  0  0  0  0  0  0
   -2.9842   -1.6959    1.4493 O   0  0  0  0  0  0  0  0  0  0  0  0
   -5.5564   -1.0445    0.7189 O   0  0  0  0  0  0  0  0  0  0  0  0
   -5.9425   -2.1309   -0.1253 C   0  0  0  0  0  0  0  0  0  0  0  0
   -6.0149    1.1568   -0.8579 O   0  0  0  0  0  0  0  0  0  0  0  0
    5.3205    3.2026    1.9631 H   0  0  0  0  0  0  0  0  0  0  0  0
    4.0168    3.2398    0.7517 H   0  0  0  0  0  0  0  0  0  0  0  0
    3.7385    2.4769    2.3356 H   0  0  0  0  0  0  0  0  0  0  0  0
    2.3727    1.9505    0.8427 H   0  0  0  0  0  0  0  0  0  0  0  0
    1.3256   -1.7169   -1.1095 H   0  0  0  0  0  0  0  0  0  0  0  0
    7.4885   -1.0474   -0.9811 H   0  0  0  0  0  0  0  0  0  0  0  0
    6.0645   -1.1168   -2.0469 H   0  0  0  0  0  0  0  0  0  0  0  0
    6.5006    0.4100   -1.2425 H   0  0  0  0  0  0  0  0  0  0  0  0
    4.0036   -2.6431   -2.0785 H   0  0  0  0  0  0  0  0  0  0  0  0
    0.6458    2.1973   -1.4817 H   0  0  0  0  0  0  0  0  0  0  0  0
   -3.8884    2.4997   -1.5432 H   0  0  0  0  0  0  0  0  0  0  0  0
   -2.8398   -2.5131    0.9528 H   0  0  0  0  0  0  0  0  0  0  0  0
   -6.7839   -2.6586    0.3237 H   0  0  0  0  0  0  0  0  0  0  0  0
   -6.2345   -1.7459   -1.1023 H   0  0  0  0  0  0  0  0  0  0  0  0
   -5.1034   -2.8170   -0.2411 H   0  0  0  0  0  0  0  0  0  0  0  0
   -6.3015    0.7490   -1.6865 H   0  0  0  0  0  0  0  0  0  0  0  0
  1  2  1  0  0  0  0
  2  3  1  0  0  0  0
  3  4  2  0  0  0  0
  4  5  1  0  0  0  0
  5  6  2  0  0  0  0
  6  7  1  0  0  0  0
  7  8  2  0  0  0  0
  3  8  1  0  0  0  0
  8  9  1  0  0  0  0
  9 10  1  0  0  0  0
  7 11  1  0  0  0  0
  5 12  1  0  0  0  0
 12 13  2  0  0  0  0
 13 14  1  0  0  0  0
 14 15  1  0  0  0  0
 15 16  2  0  0  0  0
 16 17  1  0  0  0  0
 17 18  2  0  0  0  0
 18 19  1  0  0  0  0
 19 20  2  0  0  0  0
 15 20  1  0  0  0  0
 20 21  1  0  0  0  0
 12 21  1  0  0  0  0
 21 22  2  0  0  0  0
 19 23  1  0  0  0  0
 18 24  1  0  0  0  0
 24 25  1  0  0  0  0
 17 26  1  0  0  0  0
  1 27  1  0  0  0  0
  1 28  1  0  0  0  0
  1 29  1  0  0  0  0
  4 30  1  0  0  0  0
  6 31  1  0  0  0  0
 10 32  1  0  0  0  0
 10 33  1  0  0  0  0
 10 34  1  0  0  0  0
 11 35  1  0  0  0  0
 13 36  1  0  0  0  0
 16 37  1  0  0  0  0
 23 38  1  0  0  0  0
 25 39  1  0  0  0  0
 25 40  1  0  0  0  0
 25 41  1  0  0  0  0
 26 42  1  0  0  0  0
M  END
$$$$
