C23H24O6
APtclcactv06281817123D 0   0.00000     0.00000
 
 53 55  0  0  0  0  0  0  0  0999 V2000
   -5.3367   -2.6101    0.6633 C   0  0  0  0  0  0  0  0  0  0  0  0
   -5.2525   -1.9197   -0.6736 C   0  0  0  0  0  0  0  0  0  0  0  0
   -4.9930   -0.6370   -0.7332 C   0  0  0  0  0  0  0  0  0  0  0  0
   -4.6512    0.1218    0.5232 C   0  0  0  0  0  0  0  0  0  0  0  0
   -3.3160    0.7996    0.3531 C   0  0  0  0  0  0  0  0  0  0  0  0
   -3.2514    2.0881   -0.1646 C   0  0  0  0  0  0  0  0  0  0  0  0
   -2.0317    2.7279   -0.3236 C   0  0  0  0  0  0  0  0  0  0  0  0
   -0.8542    2.0859    0.0326 C   0  0  0  0  0  0  0  0  0  0  0  0
   -0.9193    0.7790    0.5473 C   0  0  0  0  0  0  0  0  0  0  0  0
   -2.1550    0.1420    0.7175 C   0  0  0  0  0  0  0  0  0  0  0  0
   -2.2120   -1.1144    1.2264 O   0  0  0  0  0  0  0  0  0  0  0  0
    0.3400    0.0991    0.9002 C   0  0  0  0  0  0  0  0  0  0  0  0
    0.3580   -0.9313    1.5495 O   0  0  0  0  0  0  0  0  0  0  0  0
    1.5791    0.7434    0.4180 C   0  0  0  0  0  0  0  0  0  0  0  0
    2.8000    0.0690    0.4576 C   0  0  0  0  0  0  0  0  0  0  0  0
    3.9393    0.6936   -0.0071 C   0  0  0  0  0  0  0  0  0  0  0  0
    3.8646    1.9932   -0.5137 C   0  0  0  0  0  0  0  0  0  0  0  0
    2.6563    2.6661   -0.5518 C   0  0  0  0  0  0  0  0  0  0  0  0
    1.5006    2.0527   -0.0843 C   0  0  0  0  0  0  0  0  0  0  0  0
    0.3277    2.7188   -0.1110 O   0  0  0  0  0  0  0  0  0  0  0  0
    4.9885    2.6020   -0.9725 O   0  0  0  0  0  0  0  0  0  0  0  0
    5.1343    0.0444    0.0285 O   0  0  0  0  0  0  0  0  0  0  0  0
    2.8740   -1.3331    1.0050 C   0  0  0  0  0  0  0  0  0  0  0  0
    2.5873   -2.3189   -0.0982 C   0  0  0  0  0  0  0  0  0  0  0  0
    3.4741   -3.2324   -0.4071 C   0  0  0  0  0  0  0  0  0  0  0  0
    4.8311   -3.2171    0.2480 C   0  0  0  0  0  0  0  0  0  0  0  0
    3.1371   -4.2984   -1.4176 C   0  0  0  0  0  0  0  0  0  0  0  0
   -4.3953    2.7268   -0.5190 O   0  0  0  0  0  0  0  0  0  0  0  0
   -5.4667   -2.7048   -1.9420 C   0  0  0  0  0  0  0  0  0  0  0  0
   -6.0647   -2.0972    1.2919 H   0  0  0  0  0  0  0  0  0  0  0  0
   -5.6467   -3.6450    0.5188 H   0  0  0  0  0  0  0  0  0  0  0  0
   -4.3598   -2.5874    1.1461 H   0  0  0  0  0  0  0  0  0  0  0  0
   -5.0240   -0.1233   -1.6827 H   0  0  0  0  0  0  0  0  0  0  0  0
   -5.4181    0.8725    0.7143 H   0  0  0  0  0  0  0  0  0  0  0  0
   -4.6028   -0.5704    1.3639 H   0  0  0  0  0  0  0  0  0  0  0  0
   -1.9979    3.7294   -0.7264 H   0  0  0  0  0  0  0  0  0  0  0  0
   -2.2879   -1.1454    2.1899 H   0  0  0  0  0  0  0  0  0  0  0  0
    2.6113    3.6706   -0.9460 H   0  0  0  0  0  0  0  0  0  0  0  0
    5.1596    2.4547   -1.9128 H   0  0  0  0  0  0  0  0  0  0  0  0
    5.3279   -0.4672   -0.7690 H   0  0  0  0  0  0  0  0  0  0  0  0
    3.8716   -1.5150    1.4046 H   0  0  0  0  0  0  0  0  0  0  0  0
    2.1371   -1.4524    1.7993 H   0  0  0  0  0  0  0  0  0  0  0  0
    1.6509   -2.2723   -0.6342 H   0  0  0  0  0  0  0  0  0  0  0  0
    4.7800   -3.7421    1.2019 H   0  0  0  0  0  0  0  0  0  0  0  0
    5.5535   -3.7123   -0.4010 H   0  0  0  0  0  0  0  0  0  0  0  0
    5.1415   -2.1860    0.4170 H   0  0  0  0  0  0  0  0  0  0  0  0
    2.1199   -4.1477   -1.7792 H   0  0  0  0  0  0  0  0  0  0  0  0
    3.8328   -4.2387   -2.2545 H   0  0  0  0  0  0  0  0  0  0  0  0
    3.2147   -5.2799   -0.9498 H   0  0  0  0  0  0  0  0  0  0  0  0
   -4.7946    3.2433    0.1944 H   0  0  0  0  0  0  0  0  0  0  0  0
   -6.5244   -2.6886   -2.2050 H   0  0  0  0  0  0  0  0  0  0  0  0
   -4.8849   -2.2583   -2.7483 H   0  0  0  0  0  0  0  0  0  0  0  0
   -5.1459   -3.7353   -1.7899 H   0  0  0  0  0  0  0  0  0  0  0  0
  1  2  1  0  0  0  0
  2  3  2  0  0  0  0
  3  4  1  0  0  0  0
  4  5  1  0  0  0  0
  5  6  2  0  0  0  0
  6  7  1  0  0  0  0
  7  8  2  0  0  0  0
  8  9  1  0  0  0  0
  9 10  2  0  0  0  0
  5 10  1  0  0  0  0
 10 11  1  0  0  0  0
  9 12  1  0  0  0  0
 12 13  2  0  0  0  0
 12 14  1  0  0  0  0
 14 15  2  0  0  0  0
 15 16  1  0  0  0  0
 16 17  2  0  0  0  0
 17 18  1  0  0  0  0
 18 19  2  0  0  0  0
 14 19  1  0  0  0  0
 19 20  1  0  0  0  0
  8 20  1  0  0  0  0
 17 21  1  0  0  0  0
 16 22  1  0  0  0  0
 15 23  1  0  0  0  0
 23 24  1  0  0  0  0
 24 25  2  0  0  0  0
 25 26  1  0  0  0  0
 25 27  1  0  0  0  0
  6 28  1  0  0  0  0
  2 29  1  0  0  0  0
  1 30  1  0  0  0  0
  1 31  1  0  0  0  0
  1 32  1  0  0  0  0
  3 33  1  0  0  0  0
  4 34  1  0  0  0  0
  4 35  1  0  0  0  0
  7 36  1  0  0  0  0
 11 37  1  0  0  0  0
 18 38  1  0  0  0  0
 21 39  1  0  0  0  0
 22 40  1  0  0  0  0
 23 41  1  0  0  0  0
 23 42  1  0  0  0  0
 24 43  1  0  0  0  0
 26 44  1  0  0  0  0
 26 45  1  0  0  0  0
 26 46  1  0  0  0  0
 27 47  1  0  0  0  0
 27 48  1  0  0  0  0
 27 49  1  0  0  0  0
 28 50  1  0  0  0  0
 29 51  1  0  0  0  0
 29 52  1  0  0  0  0
 29 53  1  0  0  0  0
M  END
$$$$
