C18H16O8
APtclcactv06281817123D 0   0.00000     0.00000
 
 42 44  0  0  0  0  0  0  0  0999 V2000
   -4.8985   -1.4903    1.9901 C   0  0  0  0  0  0  0  0  0  0  0  0
   -5.3632   -0.4407    1.1390 O   0  0  0  0  0  0  0  0  0  0  0  0
   -4.4264    0.2247    0.4116 C   0  0  0  0  0  0  0  0  0  0  0  0
   -4.8106    1.2598   -0.4390 C   0  0  0  0  0  0  0  0  0  0  0  0
   -3.8576    1.9409   -1.1833 C   0  0  0  0  0  0  0  0  0  0  0  0
   -2.5265    1.5971   -1.0849 C   0  0  0  0  0  0  0  0  0  0  0  0
   -2.1338    0.5604   -0.2336 C   0  0  0  0  0  0  0  0  0  0  0  0
   -3.0932   -0.1216    0.5201 C   0  0  0  0  0  0  0  0  0  0  0  0
   -0.7103    0.1906   -0.1272 C   0  0  0  0  0  0  0  0  0  0  0  0
   -0.3674   -1.1262   -0.2008 C   0  0  0  0  0  0  0  0  0  0  0  0
    0.9978   -1.4987   -0.1002 C   0  0  0  0  0  0  0  0  0  0  0  0
    1.3423   -2.6682   -0.1621 O   0  0  0  0  0  0  0  0  0  0  0  0
    1.9827   -0.4202    0.0813 C   0  0  0  0  0  0  0  0  0  0  0  0
    3.3510   -0.6975    0.1894 C   0  0  0  0  0  0  0  0  0  0  0  0
    4.2469    0.3457    0.3590 C   0  0  0  0  0  0  0  0  0  0  0  0
    3.7858    1.6594    0.4216 C   0  0  0  0  0  0  0  0  0  0  0  0
    2.4325    1.9381    0.3155 C   0  0  0  0  0  0  0  0  0  0  0  0
    1.5217    0.9069    0.1445 C   0  0  0  0  0  0  0  0  0  0  0  0
    0.2011    1.1650    0.0334 O   0  0  0  0  0  0  0  0  0  0  0  0
    4.6711    2.6761    0.5885 O   0  0  0  0  0  0  0  0  0  0  0  0
    5.5794    0.0871    0.4652 O   0  0  0  0  0  0  0  0  0  0  0  0
    6.3348    0.0659   -0.7477 C   0  0  0  0  0  0  0  0  0  0  0  0
    3.7965   -1.9793    0.1288 O   0  0  0  0  0  0  0  0  0  0  0  0
   -1.3270   -2.0765   -0.3691 O   0  0  0  0  0  0  0  0  0  0  0  0
   -1.3047   -2.8111   -1.5946 C   0  0  0  0  0  0  0  0  0  0  0  0
   -6.1216    1.6026   -0.5401 O   0  0  0  0  0  0  0  0  0  0  0  0
   -5.7450   -1.9370    2.5116 H   0  0  0  0  0  0  0  0  0  0  0  0
   -4.3993   -2.2509    1.3897 H   0  0  0  0  0  0  0  0  0  0  0  0
   -4.1966   -1.0838    2.7183 H   0  0  0  0  0  0  0  0  0  0  0  0
   -4.1598    2.7421   -1.8415 H   0  0  0  0  0  0  0  0  0  0  0  0
   -1.7871    2.1283   -1.6658 H   0  0  0  0  0  0  0  0  0  0  0  0
   -2.7941   -0.9230    1.1794 H   0  0  0  0  0  0  0  0  0  0  0  0
    2.0869    2.9600    0.3662 H   0  0  0  0  0  0  0  0  0  0  0  0
    5.0111    3.0415   -0.2397 H   0  0  0  0  0  0  0  0  0  0  0  0
    7.3788   -0.1508   -0.5217 H   0  0  0  0  0  0  0  0  0  0  0  0
    5.9386   -0.7047   -1.4090 H   0  0  0  0  0  0  0  0  0  0  0  0
    6.2630    1.0370   -1.2374 H   0  0  0  0  0  0  0  0  0  0  0  0
    4.0091   -2.2800   -0.7654 H   0  0  0  0  0  0  0  0  0  0  0  0
   -0.3979   -3.4142   -1.6403 H   0  0  0  0  0  0  0  0  0  0  0  0
   -2.1772   -3.4626   -1.6436 H   0  0  0  0  0  0  0  0  0  0  0  0
   -1.3220   -2.1168   -2.4347 H   0  0  0  0  0  0  0  0  0  0  0  0
   -6.4005    2.2810    0.0900 H   0  0  0  0  0  0  0  0  0  0  0  0
  1  2  1  0  0  0  0
  2  3  1  0  0  0  0
  3  4  2  0  0  0  0
  4  5  1  0  0  0  0
  5  6  2  0  0  0  0
  6  7  1  0  0  0  0
  7  8  2  0  0  0  0
  3  8  1  0  0  0  0
  7  9  1  0  0  0  0
  9 10  2  0  0  0  0
 10 11  1  0  0  0  0
 11 12  2  0  0  0  0
 11 13  1  0  0  0  0
 13 14  2  0  0  0  0
 14 15  1  0  0  0  0
 15 16  2  0  0  0  0
 16 17  1  0  0  0  0
 17 18  2  0  0  0  0
 13 18  1  0  0  0  0
 18 19  1  0  0  0  0
  9 19  1  0  0  0  0
 16 20  1  0  0  0  0
 15 21  1  0  0  0  0
 21 22  1  0  0  0  0
 14 23  1  0  0  0  0
 10 24  1  0  0  0  0
 24 25  1  0  0  0  0
  4 26  1  0  0  0  0
  1 27  1  0  0  0  0
  1 28  1  0  0  0  0
  1 29  1  0  0  0  0
  5 30  1  0  0  0  0
  6 31  1  0  0  0  0
  8 32  1  0  0  0  0
 17 33  1  0  0  0  0
 20 34  1  0  0  0  0
 22 35  1  0  0  0  0
 22 36  1  0  0  0  0
 22 37  1  0  0  0  0
 23 38  1  0  0  0  0
 25 39  1  0  0  0  0
 25 40  1  0  0  0  0
 25 41  1  0  0  0  0
 26 42  1  0  0  0  0
M  END
$$$$
