C29H34O4
APtclcactv06281817123D 0   0.00000     0.00000
 
 67 69  0  0  0  0  0  0  0  0999 V2000
   -5.3451    2.0330    1.6067 C   0  0  0  0  0  0  0  0  0  0  0  0
   -5.9824    2.4713    0.3133 C   0  0  0  0  0  0  0  0  0  0  0  0
   -5.3700    2.2561   -0.8246 C   0  0  0  0  0  0  0  0  0  0  0  0
   -4.0859    1.4678   -0.8519 C   0  0  0  0  0  0  0  0  0  0  0  0
   -4.2228    0.3038   -1.8354 C   0  0  0  0  0  0  0  0  0  0  0  0
   -2.9386   -0.4844   -1.8626 C   0  0  0  0  0  0  0  0  0  0  0  0
   -2.8062   -1.5470   -1.1081 C   0  0  0  0  0  0  0  0  0  0  0  0
   -1.5597   -2.3885   -1.2038 C   0  0  0  0  0  0  0  0  0  0  0  0
   -0.9502   -2.5410    0.1660 C   0  0  0  0  0  0  0  0  0  0  0  0
   -1.3222   -3.5984    0.9771 C   0  0  0  0  0  0  0  0  0  0  0  0
   -0.7658   -3.7493    2.2444 C   0  0  0  0  0  0  0  0  0  0  0  0
    0.1570   -2.8530    2.7047 C   0  0  0  0  0  0  0  0  0  0  0  0
    0.5435   -1.7803    1.8992 C   0  0  0  0  0  0  0  0  0  0  0  0
   -0.0095   -1.6240    0.6156 C   0  0  0  0  0  0  0  0  0  0  0  0
    0.5377   -0.5191    0.0695 O   0  0  0  0  0  0  0  0  0  0  0  0
    1.4136    0.0537    0.9194 C   0  0  0  0  0  0  0  0  0  0  0  0
    1.4782   -0.6643    2.0656 C   0  0  0  0  0  0  0  0  0  0  0  0
    2.1910    1.2792    0.6398 C   0  0  0  0  0  0  0  0  0  0  0  0
    2.2072    2.3236    1.5647 C   0  0  0  0  0  0  0  0  0  0  0  0
    2.9371    3.4705    1.2987 C   0  0  0  0  0  0  0  0  0  0  0  0
    3.6510    3.5816    0.1144 C   0  0  0  0  0  0  0  0  0  0  0  0
    3.6372    2.5454   -0.8085 C   0  0  0  0  0  0  0  0  0  0  0  0
    2.9155    1.3926   -0.5475 C   0  0  0  0  0  0  0  0  0  0  0  0
    2.9013    0.2680   -1.5505 C   0  0  0  0  0  0  0  0  0  0  0  0
    4.0367   -0.6791   -1.2594 C   0  0  0  0  0  0  0  0  0  0  0  0
    3.7960   -1.9538   -1.0765 C   0  0  0  0  0  0  0  0  0  0  0  0
    2.3836   -2.4730   -1.1573 C   0  0  0  0  0  0  0  0  0  0  0  0
    4.9315   -2.9009   -0.7854 C   0  0  0  0  0  0  0  0  0  0  0  0
    4.3379    2.6595   -1.9674 O   0  0  0  0  0  0  0  0  0  0  0  0
    2.9536    4.4884    2.1990 O   0  0  0  0  0  0  0  0  0  0  0  0
   -2.2393   -4.4977    0.5328 O   0  0  0  0  0  0  0  0  0  0  0  0
   -1.8069   -0.0502   -2.7580 C   0  0  0  0  0  0  0  0  0  0  0  0
   -7.3242    3.1573    0.3289 C   0  0  0  0  0  0  0  0  0  0  0  0
   -4.3465    2.4630    1.6837 H   0  0  0  0  0  0  0  0  0  0  0  0
   -5.9529    2.3736    2.4449 H   0  0  0  0  0  0  0  0  0  0  0  0
   -5.2750    0.9455    1.6269 H   0  0  0  0  0  0  0  0  0  0  0  0
   -5.7854    2.6435   -1.7431 H   0  0  0  0  0  0  0  0  0  0  0  0
   -3.2684    2.1160   -1.1675 H   0  0  0  0  0  0  0  0  0  0  0  0
   -3.8771    1.0788    0.1447 H   0  0  0  0  0  0  0  0  0  0  0  0
   -5.0403   -0.3443   -1.5197 H   0  0  0  0  0  0  0  0  0  0  0  0
   -4.4316    0.6929   -2.8319 H   0  0  0  0  0  0  0  0  0  0  0  0
   -3.5904   -1.8201   -0.4175 H   0  0  0  0  0  0  0  0  0  0  0  0
   -1.8145   -3.3716   -1.5996 H   0  0  0  0  0  0  0  0  0  0  0  0
   -0.8441   -1.9037   -1.8679 H   0  0  0  0  0  0  0  0  0  0  0  0
   -1.0655   -4.5792    2.8672 H   0  0  0  0  0  0  0  0  0  0  0  0
    0.5857   -2.9738    3.6886 H   0  0  0  0  0  0  0  0  0  0  0  0
    2.0904   -0.4536    2.9300 H   0  0  0  0  0  0  0  0  0  0  0  0
    1.6512    2.2382    2.4866 H   0  0  0  0  0  0  0  0  0  0  0  0
    4.2187    4.4773   -0.0901 H   0  0  0  0  0  0  0  0  0  0  0  0
    1.9546   -0.2679   -1.4821 H   0  0  0  0  0  0  0  0  0  0  0  0
    3.0164    0.6754   -2.5549 H   0  0  0  0  0  0  0  0  0  0  0  0
    5.0490   -0.3070   -1.2015 H   0  0  0  0  0  0  0  0  0  0  0  0
    1.9770   -2.2676   -2.1476 H   0  0  0  0  0  0  0  0  0  0  0  0
    2.3810   -3.5484   -0.9793 H   0  0  0  0  0  0  0  0  0  0  0  0
    1.7710   -1.9785   -0.4034 H   0  0  0  0  0  0  0  0  0  0  0  0
    5.0863   -2.9623    0.2918 H   0  0  0  0  0  0  0  0  0  0  0  0
    4.6887   -3.8897   -1.1745 H   0  0  0  0  0  0  0  0  0  0  0  0
    5.8407   -2.5357   -1.2629 H   0  0  0  0  0  0  0  0  0  0  0  0
    5.2468    2.3343   -1.9111 H   0  0  0  0  0  0  0  0  0  0  0  0
    3.6642    4.4247    2.8517 H   0  0  0  0  0  0  0  0  0  0  0  0
   -1.8562   -5.2496    0.0607 H   0  0  0  0  0  0  0  0  0  0  0  0
   -1.1080    0.5629   -2.1888 H   0  0  0  0  0  0  0  0  0  0  0  0
   -1.2896   -0.9294   -3.1420 H   0  0  0  0  0  0  0  0  0  0  0  0
   -2.2044    0.5301   -3.5907 H   0  0  0  0  0  0  0  0  0  0  0  0
   -7.1805    4.2346    0.4116 H   0  0  0  0  0  0  0  0  0  0  0  0
   -7.8583    2.9317   -0.5940 H   0  0  0  0  0  0  0  0  0  0  0  0
   -7.9041    2.8016    1.1806 H   0  0  0  0  0  0  0  0  0  0  0  0
  1  2  1  0  0  0  0
  2  3  2  0  0  0  0
  3  4  1  0  0  0  0
  4  5  1  0  0  0  0
  5  6  1  0  0  0  0
  6  7  2  0  0  0  0
  7  8  1  0  0  0  0
  8  9  1  0  0  0  0
  9 10  2  0  0  0  0
 10 11  1  0  0  0  0
 11 12  2  0  0  0  0
 12 13  1  0  0  0  0
 13 14  2  0  0  0  0
  9 14  1  0  0  0  0
 14 15  1  0  0  0  0
 15 16  1  0  0  0  0
 16 17  2  0  0  0  0
 13 17  1  0  0  0  0
 16 18  1  0  0  0  0
 18 19  2  0  0  0  0
 19 20  1  0  0  0  0
 20 21  2  0  0  0  0
 21 22  1  0  0  0  0
 22 23  2  0  0  0  0
 18 23  1  0  0  0  0
 23 24  1  0  0  0  0
 24 25  1  0  0  0  0
 25 26  2  0  0  0  0
 26 27  1  0  0  0  0
 26 28  1  0  0  0  0
 22 29  1  0  0  0  0
 20 30  1  0  0  0  0
 10 31  1  0  0  0  0
  6 32  1  0  0  0  0
  2 33  1  0  0  0  0
  1 34  1  0  0  0  0
  1 35  1  0  0  0  0
  1 36  1  0  0  0  0
  3 37  1  0  0  0  0
  4 38  1  0  0  0  0
  4 39  1  0  0  0  0
  5 40  1  0  0  0  0
  5 41  1  0  0  0  0
  7 42  1  0  0  0  0
  8 43  1  0  0  0  0
  8 44  1  0  0  0  0
 11 45  1  0  0  0  0
 12 46  1  0  0  0  0
 17 47  1  0  0  0  0
 19 48  1  0  0  0  0
 21 49  1  0  0  0  0
 24 50  1  0  0  0  0
 24 51  1  0  0  0  0
 25 52  1  0  0  0  0
 27 53  1  0  0  0  0
 27 54  1  0  0  0  0
 27 55  1  0  0  0  0
 28 56  1  0  0  0  0
 28 57  1  0  0  0  0
 28 58  1  0  0  0  0
 29 59  1  0  0  0  0
 30 60  1  0  0  0  0
 31 61  1  0  0  0  0
 32 62  1  0  0  0  0
 32 63  1  0  0  0  0
 32 64  1  0  0  0  0
 33 65  1  0  0  0  0
 33 66  1  0  0  0  0
 33 67  1  0  0  0  0
M  END
$$$$
