C6H8O6
APtclcactv06291802533D 0   0.00000     0.00000
 
 20 20  0  0  0  0  0  0  0  0999 V2000
    2.5922    0.8000   -0.2520 C   0  0  0  0  0  0  0  0  0  0  0  0
    1.5067   -0.1745    0.2096 C   0  0  0  0  0  0  0  0  0  0  0  0
    0.2708   -0.0194   -0.6790 C   0  0  0  0  0  0  0  0  0  0  0  0
   -0.8109   -0.9762   -0.2350 C   0  0  0  0  0  0  0  0  0  0  0  0
   -1.8687   -0.2217    0.1215 C   0  0  0  0  0  0  0  0  0  0  0  0
   -1.5307    1.1842   -0.0680 C   0  0  0  0  0  0  0  0  0  0  0  0
   -2.2747    2.1182    0.1648 O   0  0  0  0  0  0  0  0  0  0  0  0
   -0.2739    1.2964   -0.5380 O   0  0  0  0  0  0  0  0  0  0  0  0
   -3.0602   -0.6952    0.5835 O   0  0  0  0  0  0  0  0  0  0  0  0
   -0.7330   -2.3243   -0.2025 O   0  0  0  0  0  0  0  0  0  0  0  0
    1.9968   -1.5134    0.1144 O   0  0  0  0  0  0  0  0  0  0  0  0
    3.7011    0.7385    0.6472 O   0  0  0  0  0  0  0  0  0  0  0  0
    2.9220    0.5281   -1.2547 H   0  0  0  0  0  0  0  0  0  0  0  0
    2.1898    1.8129   -0.2640 H   0  0  0  0  0  0  0  0  0  0  0  0
    1.2399    0.0421    1.2440 H   0  0  0  0  0  0  0  0  0  0  0  0
    0.5327   -0.2075   -1.7202 H   0  0  0  0  0  0  0  0  0  0  0  0
   -3.7045   -0.0043    0.7901 H   0  0  0  0  0  0  0  0  0  0  0  0
   -1.5373   -2.7572    0.1150 H   0  0  0  0  0  0  0  0  0  0  0  0
    2.2538   -1.7755   -0.7802 H   0  0  0  0  0  0  0  0  0  0  0  0
    4.4287    1.3318    0.4155 H   0  0  0  0  0  0  0  0  0  0  0  0
  1  2  1  0  0  0  0
  2  3  1  0  0  0  0
  3  4  1  0  0  0  0
  4  5  2  0  0  0  0
  5  6  1  0  0  0  0
  6  7  2  0  0  0  0
  6  8  1  0  0  0  0
  3  8  1  0  0  0  0
  5  9  1  0  0  0  0
  4 10  1  0  0  0  0
  2 11  1  0  0  0  0
  1 12  1  0  0  0  0
  1 13  1  0  0  0  0
  1 14  1  0  0  0  0
  2 15  1  0  0  0  0
  3 16  1  0  0  0  0
  9 17  1  0  0  0  0
 10 18  1  0  0  0  0
 11 19  1  0  0  0  0
 12 20  1  0  0  0  0
M  END
$$$$
