C25H34O4
APtclcactv06291802533D 0   0.00000     0.00000
 
 63 64  0  0  0  0  0  0  0  0999 V2000
    9.8042   -1.7112   -0.3066 C   0  0  0  0  0  0  0  0  0  0  0  0
    8.3734   -1.2964   -0.0794 C   0  0  0  0  0  0  0  0  0  0  0  0
    7.9300   -0.0249    0.1426 C   0  0  0  0  0  0  0  0  0  0  0  0
    6.4694   -0.1222    0.3056 C   0  0  0  0  0  0  0  0  0  0  0  0
    5.6252    0.8896    0.5414 C   0  0  0  0  0  0  0  0  0  0  0  0
    4.1491    0.6218    0.6836 C   0  0  0  0  0  0  0  0  0  0  0  0
    3.6803    1.0716    2.0689 C   0  0  0  0  0  0  0  0  0  0  0  0
    3.3842    1.3977   -0.3905 C   0  0  0  0  0  0  0  0  0  0  0  0
    1.9004    1.0298   -0.3261 C   0  0  0  0  0  0  0  0  0  0  0  0
    1.1355    1.8058   -1.4002 C   0  0  0  0  0  0  0  0  0  0  0  0
   -0.3259    1.4434   -1.3368 C   0  0  0  0  0  0  0  0  0  0  0  0
   -1.1564    2.1888   -0.6507 C   0  0  0  0  0  0  0  0  0  0  0  0
   -2.6316    1.8811   -0.6632 C   0  0  0  0  0  0  0  0  0  0  0  0
   -3.1344    1.7353    0.7744 C   0  0  0  0  0  0  0  0  0  0  0  0
   -4.6095    1.4275    0.7619 C   0  0  0  0  0  0  0  0  0  0  0  0
   -5.0200    0.1850    0.8240 C   0  0  0  0  0  0  0  0  0  0  0  0
   -6.4938   -0.1185    0.9058 C   0  0  0  0  0  0  0  0  0  0  0  0
   -6.8773   -1.0902   -0.2120 C   0  0  0  0  0  0  0  0  0  0  0  0
   -8.3511   -1.3937   -0.1301 C   0  0  0  0  0  0  0  0  0  0  0  0
   -9.3432   -0.7211   -0.7407 C   0  0  0  0  0  0  0  0  0  0  0  0
  -10.5107   -1.3013   -0.4179 O   0  0  0  0  0  0  0  0  0  0  0  0
  -10.2822   -2.3442    0.3969 C   0  0  0  0  0  0  0  0  0  0  0  0
   -8.9559   -2.4437    0.5983 C   0  0  0  0  0  0  0  0  0  0  0  0
   -5.6126    2.5491    0.6779 C   0  0  0  0  0  0  0  0  0  0  0  0
   -0.8319    0.2235   -2.0627 C   0  0  0  0  0  0  0  0  0  0  0  0
    6.1416   -1.4335    0.1712 O   0  0  0  0  0  0  0  0  0  0  0  0
    7.2567   -2.1484   -0.0641 C   0  0  0  0  0  0  0  0  0  0  0  0
    7.2935   -3.3547   -0.2301 O   0  0  0  0  0  0  0  0  0  0  0  0
    8.6812    1.0991    0.2017 O   0  0  0  0  0  0  0  0  0  0  0  0
   10.2710   -1.9453    0.6501 H   0  0  0  0  0  0  0  0  0  0  0  0
    9.8296   -2.5918   -0.9485 H   0  0  0  0  0  0  0  0  0  0  0  0
   10.3470   -0.8964   -0.7859 H   0  0  0  0  0  0  0  0  0  0  0  0
    6.0021    1.8979    0.6298 H   0  0  0  0  0  0  0  0  0  0  0  0
    3.9603   -0.4451    0.5649 H   0  0  0  0  0  0  0  0  0  0  0  0
    4.2252    0.5188    2.8341 H   0  0  0  0  0  0  0  0  0  0  0  0
    3.8691    2.1385    2.1876 H   0  0  0  0  0  0  0  0  0  0  0  0
    2.6126    0.8779    2.1717 H   0  0  0  0  0  0  0  0  0  0  0  0
    3.5010    2.4677   -0.2183 H   0  0  0  0  0  0  0  0  0  0  0  0
    3.7794    1.1427   -1.3738 H   0  0  0  0  0  0  0  0  0  0  0  0
    1.7836   -0.0401   -0.4983 H   0  0  0  0  0  0  0  0  0  0  0  0
    1.5052    1.2849    0.6572 H   0  0  0  0  0  0  0  0  0  0  0  0
    1.2524    2.8757   -1.2281 H   0  0  0  0  0  0  0  0  0  0  0  0
    1.5308    1.5507   -2.3835 H   0  0  0  0  0  0  0  0  0  0  0  0
   -0.7839    3.0240   -0.0761 H   0  0  0  0  0  0  0  0  0  0  0  0
   -3.1678    2.6925   -1.1552 H   0  0  0  0  0  0  0  0  0  0  0  0
   -2.8040    0.9508   -1.2045 H   0  0  0  0  0  0  0  0  0  0  0  0
   -2.5981    0.9239    1.2664 H   0  0  0  0  0  0  0  0  0  0  0  0
   -2.9619    2.6656    1.3157 H   0  0  0  0  0  0  0  0  0  0  0  0
   -4.3021   -0.6218    0.8164 H   0  0  0  0  0  0  0  0  0  0  0  0
   -6.7187   -0.5695    1.8723 H   0  0  0  0  0  0  0  0  0  0  0  0
   -7.0617    0.8053    0.7950 H   0  0  0  0  0  0  0  0  0  0  0  0
   -6.6524   -0.6392   -1.1785 H   0  0  0  0  0  0  0  0  0  0  0  0
   -6.3094   -2.0139   -0.1012 H   0  0  0  0  0  0  0  0  0  0  0  0
   -9.2216    0.1398   -1.3814 H   0  0  0  0  0  0  0  0  0  0  0  0
  -11.0352   -2.9952    0.8159 H   0  0  0  0  0  0  0  0  0  0  0  0
   -8.4506   -3.1798    1.2060 H   0  0  0  0  0  0  0  0  0  0  0  0
   -5.9050    2.6980   -0.3615 H   0  0  0  0  0  0  0  0  0  0  0  0
   -6.4919    2.2952    1.2700 H   0  0  0  0  0  0  0  0  0  0  0  0
   -5.1664    3.4653    1.0646 H   0  0  0  0  0  0  0  0  0  0  0  0
   -0.8654   -0.6210   -1.3744 H   0  0  0  0  0  0  0  0  0  0  0  0
   -1.8330    0.4188   -2.4472 H   0  0  0  0  0  0  0  0  0  0  0  0
   -0.1634   -0.0095   -2.8914 H   0  0  0  0  0  0  0  0  0  0  0  0
    9.6269    0.9477    0.0676 H   0  0  0  0  0  0  0  0  0  0  0  0
  1  2  1  0  0  0  0
  2  3  2  0  0  0  0
  3  4  1  0  0  0  0
  4  5  2  0  0  0  0
  5  6  1  0  0  0  0
  6  7  1  0  0  0  0
  6  8  1  0  0  0  0
  8  9  1  0  0  0  0
  9 10  1  0  0  0  0
 10 11  1  0  0  0  0
 11 12  2  0  0  0  0
 12 13  1  0  0  0  0
 13 14  1  0  0  0  0
 14 15  1  0  0  0  0
 15 16  2  0  0  0  0
 16 17  1  0  0  0  0
 17 18  1  0  0  0  0
 18 19  1  0  0  0  0
 19 20  2  0  0  0  0
 20 21  1  0  0  0  0
 21 22  1  0  0  0  0
 22 23  2  0  0  0  0
 19 23  1  0  0  0  0
 15 24  1  0  0  0  0
 11 25  1  0  0  0  0
  4 26  1  0  0  0  0
 26 27  1  0  0  0  0
  2 27  1  0  0  0  0
 27 28  2  0  0  0  0
  3 29  1  0  0  0  0
  1 30  1  0  0  0  0
  1 31  1  0  0  0  0
  1 32  1  0  0  0  0
  5 33  1  0  0  0  0
  6 34  1  0  0  0  0
  7 35  1  0  0  0  0
  7 36  1  0  0  0  0
  7 37  1  0  0  0  0
  8 38  1  0  0  0  0
  8 39  1  0  0  0  0
  9 40  1  0  0  0  0
  9 41  1  0  0  0  0
 10 42  1  0  0  0  0
 10 43  1  0  0  0  0
 12 44  1  0  0  0  0
 13 45  1  0  0  0  0
 13 46  1  0  0  0  0
 14 47  1  0  0  0  0
 14 48  1  0  0  0  0
 16 49  1  0  0  0  0
 17 50  1  0  0  0  0
 17 51  1  0  0  0  0
 18 52  1  0  0  0  0
 18 53  1  0  0  0  0
 20 54  1  0  0  0  0
 22 55  1  0  0  0  0
 23 56  1  0  0  0  0
 24 57  1  0  0  0  0
 24 58  1  0  0  0  0
 24 59  1  0  0  0  0
 25 60  1  0  0  0  0
 25 61  1  0  0  0  0
 25 62  1  0  0  0  0
 29 63  1  0  0  0  0
M  END
$$$$
