C22H26N2O9
APtclcactv06291802533D 0   0.00000     0.00000
 
 59 61  0  0  0  0  0  0  0  0999 V2000
   -3.9435   -1.4435   -0.7773 C   0  0  0  0  0  0  0  0  0  0  0  0
   -3.5557   -0.8640    0.5846 C   0  0  0  0  0  0  0  0  0  0  0  0
   -2.0727   -0.5002    0.5782 C   0  0  0  0  0  0  0  0  0  0  0  0
   -1.2414   -1.7182    0.1692 C   0  0  0  0  0  0  0  0  0  0  0  0
    0.2193   -1.2878    0.0561 C   0  0  0  0  0  0  0  0  0  0  0  0
    1.1341   -2.4985   -0.1241 C   0  0  0  0  0  0  0  0  0  0  0  0
    2.5089   -2.0363   -0.5356 C   0  0  0  0  0  0  0  0  0  0  0  0
    3.3903   -2.8562   -0.6912 O   0  0  0  0  0  0  0  0  0  0  0  0
    2.8011   -0.6211   -0.7513 C   0  0  0  0  0  0  0  0  0  0  0  0
    1.7636    0.2444   -1.0746 C   0  0  0  0  0  0  0  0  0  0  0  0
    0.3805   -0.3642   -1.1554 C   0  0  0  0  0  0  0  0  0  0  0  0
   -0.6752    0.6917   -1.1642 C   0  0  0  0  0  0  0  0  0  0  0  0
   -0.5326    1.6432   -1.9076 O   0  0  0  0  0  0  0  0  0  0  0  0
   -1.8141    0.6431   -0.3661 C   0  0  0  0  0  0  0  0  0  0  0  0
   -2.7174    1.6891   -0.4191 C   0  0  0  0  0  0  0  0  0  0  0  0
   -3.9651    1.6033    0.3550 C   0  0  0  0  0  0  0  0  0  0  0  0
   -4.3803    0.3671    0.8586 C   0  0  0  0  0  0  0  0  0  0  0  0
   -5.5404    0.2804    1.5955 C   0  0  0  0  0  0  0  0  0  0  0  0
   -6.3012    1.4142    1.8326 C   0  0  0  0  0  0  0  0  0  0  0  0
   -5.9059    2.6407    1.3349 C   0  0  0  0  0  0  0  0  0  0  0  0
   -4.7383    2.7477    0.5941 C   0  0  0  0  0  0  0  0  0  0  0  0
   -4.3474    3.9512    0.1046 O   0  0  0  0  0  0  0  0  0  0  0  0
   -2.4561    2.7787   -1.1735 O   0  0  0  0  0  0  0  0  0  0  0  0
    0.2726   -1.1343   -2.3543 O   0  0  0  0  0  0  0  0  0  0  0  0
    1.9763    1.5490   -1.3024 O   0  0  0  0  0  0  0  0  0  0  0  0
    4.1785   -0.1183   -0.6271 C   0  0  0  0  0  0  0  0  0  0  0  0
    4.4333    1.0351   -0.9175 O   0  0  0  0  0  0  0  0  0  0  0  0
    5.1575   -0.9356   -0.1915 N   0  0  0  0  0  0  0  0  0  0  0  0
    1.2248   -3.2360    1.1431 N   0  0  0  0  0  0  0  0  0  0  0  0
    2.0008   -4.4724    0.9783 C   0  0  0  0  0  0  0  0  0  0  0  0
    1.7955   -2.3937    2.2027 C   0  0  0  0  0  0  0  0  0  0  0  0
   -1.3666   -2.7409    1.1594 O   0  0  0  0  0  0  0  0  0  0  0  0
   14.9407    4.9665    2.1712 O   0  0  0  0  0  0  0  0  0  0  0  0
   -3.3507   -2.3368   -0.9741 H   0  0  0  0  0  0  0  0  0  0  0  0
   -5.0020   -1.7035   -0.7734 H   0  0  0  0  0  0  0  0  0  0  0  0
   -3.7539   -0.7031   -1.5545 H   0  0  0  0  0  0  0  0  0  0  0  0
   -3.7438   -1.6055    1.3610 H   0  0  0  0  0  0  0  0  0  0  0  0
   -1.7794   -0.1920    1.5817 H   0  0  0  0  0  0  0  0  0  0  0  0
   -1.5891   -2.0937   -0.7932 H   0  0  0  0  0  0  0  0  0  0  0  0
    0.5079   -0.7474    0.9576 H   0  0  0  0  0  0  0  0  0  0  0  0
    0.7246   -3.1513   -0.8950 H   0  0  0  0  0  0  0  0  0  0  0  0
   -5.8583   -0.6737    1.9893 H   0  0  0  0  0  0  0  0  0  0  0  0
   -7.2100    1.3383    2.4112 H   0  0  0  0  0  0  0  0  0  0  0  0
   -6.5074    3.5179    1.5227 H   0  0  0  0  0  0  0  0  0  0  0  0
   -3.7780    4.4532    0.7036 H   0  0  0  0  0  0  0  0  0  0  0  0
   -3.1482    2.9876   -1.8157 H   0  0  0  0  0  0  0  0  0  0  0  0
    0.9092   -1.8598   -2.4143 H   0  0  0  0  0  0  0  0  0  0  0  0
    2.8955    1.8492   -1.3098 H   0  0  0  0  0  0  0  0  0  0  0  0
    4.9543   -1.8554    0.0401 H   0  0  0  0  0  0  0  0  0  0  0  0
    6.0655   -0.6042   -0.1096 H   0  0  0  0  0  0  0  0  0  0  0  0
    3.0281   -4.2239    0.7119 H   0  0  0  0  0  0  0  0  0  0  0  0
    1.9933   -5.0334    1.9128 H   0  0  0  0  0  0  0  0  0  0  0  0
    1.5567   -5.0774    0.1878 H   0  0  0  0  0  0  0  0  0  0  0  0
    1.2020   -1.4851    2.3038 H   0  0  0  0  0  0  0  0  0  0  0  0
    1.7866   -2.9403    3.1458 H   0  0  0  0  0  0  0  0  0  0  0  0
    2.8214   -2.1307    1.9449 H   0  0  0  0  0  0  0  0  0  0  0  0
   -2.2732   -3.0490    1.2943 H   0  0  0  0  0  0  0  0  0  0  0  0
   14.3583    5.7273    2.0406 H   0  0  0  0  0  0  0  0  0  0  0  0
   15.8495    5.1114    1.8743 H   0  0  0  0  0  0  0  0  0  0  0  0
  1  2  1  0  0  0  0
  2  3  1  0  0  0  0
  3  4  1  0  0  0  0
  4  5  1  0  0  0  0
  5  6  1  0  0  0  0
  6  7  1  0  0  0  0
  7  8  2  0  0  0  0
  7  9  1  0  0  0  0
  9 10  2  0  0  0  0
 10 11  1  0  0  0  0
  5 11  1  0  0  0  0
 11 12  1  0  0  0  0
 12 13  2  0  0  0  0
 12 14  1  0  0  0  0
  3 14  1  0  0  0  0
 14 15  2  0  0  0  0
 15 16  1  0  0  0  0
 16 17  2  0  0  0  0
  2 17  1  0  0  0  0
 17 18  1  0  0  0  0
 18 19  2  0  0  0  0
 19 20  1  0  0  0  0
 20 21  2  0  0  0  0
 16 21  1  0  0  0  0
 21 22  1  0  0  0  0
 15 23  1  0  0  0  0
 11 24  1  0  0  0  0
 10 25  1  0  0  0  0
  9 26  1  0  0  0  0
 26 27  2  0  0  0  0
 26 28  1  0  0  0  0
  6 29  1  0  0  0  0
 29 30  1  0  0  0  0
 29 31  1  0  0  0  0
  4 32  1  0  0  0  0
  1 34  1  0  0  0  0
  1 35  1  0  0  0  0
  1 36  1  0  0  0  0
  2 37  1  0  0  0  0
  3 38  1  0  0  0  0
  4 39  1  0  0  0  0
  5 40  1  0  0  0  0
  6 41  1  0  0  0  0
 18 42  1  0  0  0  0
 19 43  1  0  0  0  0
 20 44  1  0  0  0  0
 22 45  1  0  0  0  0
 23 46  1  0  0  0  0
 24 47  1  0  0  0  0
 25 48  1  0  0  0  0
 28 49  1  0  0  0  0
 28 50  1  0  0  0  0
 30 51  1  0  0  0  0
 30 52  1  0  0  0  0
 30 53  1  0  0  0  0
 31 54  1  0  0  0  0
 31 55  1  0  0  0  0
 31 56  1  0  0  0  0
 32 57  1  0  0  0  0
 33 58  1  0  0  0  0
 33 59  1  0  0  0  0
M  END
$$$$
