C15H10N2O3
APtclcactv06291802543D 0   0.00000     0.00000
 
 30 33  0  0  0  0  0  0  0  0999 V2000
    3.4957    2.3827   -0.8377 C   0  0  0  0  0  0  0  0  0  0  0  0
    3.2324    1.5295    0.2780 O   0  0  0  0  0  0  0  0  0  0  0  0
    2.1433    0.7178    0.1918 C   0  0  0  0  0  0  0  0  0  0  0  0
    2.3295   -0.6390    0.1316 C   0  0  0  0  0  0  0  0  0  0  0  0
    1.1237   -1.4769    0.0389 C   0  0  0  0  0  0  0  0  0  0  0  0
    1.1250   -2.8027   -0.0279 N   0  0  0  0  0  0  0  0  0  0  0  0
   -0.0090   -3.4770   -0.1089 C   0  0  0  0  0  0  0  0  0  0  0  0
   -1.2557   -2.8641   -0.1290 C   0  0  0  0  0  0  0  0  0  0  0  0
   -1.3148   -1.4771   -0.0606 C   0  0  0  0  0  0  0  0  0  0  0  0
   -0.0951   -0.8107    0.0228 C   0  0  0  0  0  0  0  0  0  0  0  0
   -0.2546    0.5372    0.0834 N   0  0  0  0  0  0  0  0  0  0  0  0
    0.8567    1.2993    0.1730 C   0  0  0  0  0  0  0  0  0  0  0  0
    0.7475    2.5122    0.2278 O   0  0  0  0  0  0  0  0  0  0  0  0
   -1.6203    0.8101    0.0429 C   0  0  0  0  0  0  0  0  0  0  0  0
   -2.3303    2.0026    0.0760 C   0  0  0  0  0  0  0  0  0  0  0  0
   -3.7086    1.9939    0.0217 C   0  0  0  0  0  0  0  0  0  0  0  0
   -4.4004    0.7970   -0.0664 C   0  0  0  0  0  0  0  0  0  0  0  0
   -3.7155   -0.3991   -0.1007 C   0  0  0  0  0  0  0  0  0  0  0  0
   -2.3251   -0.4083   -0.0471 C   0  0  0  0  0  0  0  0  0  0  0  0
    3.5699   -1.1845    0.1558 O   0  0  0  0  0  0  0  0  0  0  0  0
    3.7324    1.7756   -1.7114 H   0  0  0  0  0  0  0  0  0  0  0  0
    2.6154    2.9910   -1.0456 H   0  0  0  0  0  0  0  0  0  0  0  0
    4.3400    3.0324   -0.6071 H   0  0  0  0  0  0  0  0  0  0  0  0
    0.0357   -4.5548   -0.1623 H   0  0  0  0  0  0  0  0  0  0  0  0
   -2.1589   -3.4523   -0.1965 H   0  0  0  0  0  0  0  0  0  0  0  0
   -1.8011    2.9415    0.1448 H   0  0  0  0  0  0  0  0  0  0  0  0
   -4.2522    2.9267    0.0485 H   0  0  0  0  0  0  0  0  0  0  0  0
   -5.4796    0.8007   -0.1081 H   0  0  0  0  0  0  0  0  0  0  0  0
   -4.2587   -1.3300   -0.1692 H   0  0  0  0  0  0  0  0  0  0  0  0
    4.2792   -0.5426    0.2970 H   0  0  0  0  0  0  0  0  0  0  0  0
  1  2  1  0  0  0  0
  2  3  1  0  0  0  0
  3  4  2  0  0  0  0
  4  5  1  0  0  0  0
  5  6  2  0  0  0  0
  6  7  1  0  0  0  0
  7  8  2  0  0  0  0
  8  9  1  0  0  0  0
  9 10  2  0  0  0  0
  5 10  1  0  0  0  0
 10 11  1  0  0  0  0
 11 12  1  0  0  0  0
  3 12  1  0  0  0  0
 12 13  2  0  0  0  0
 11 14  1  0  0  0  0
 14 15  2  0  0  0  0
 15 16  1  0  0  0  0
 16 17  2  0  0  0  0
 17 18  1  0  0  0  0
 18 19  2  0  0  0  0
  9 19  1  0  0  0  0
 14 19  1  0  0  0  0
  4 20  1  0  0  0  0
  1 21  1  0  0  0  0
  1 22  1  0  0  0  0
  1 23  1  0  0  0  0
  7 24  1  0  0  0  0
  8 25  1  0  0  0  0
 15 26  1  0  0  0  0
 16 27  1  0  0  0  0
 17 28  1  0  0  0  0
 18 29  1  0  0  0  0
 20 30  1  0  0  0  0
M  END
$$$$
