C12H29N3
APtclcactv06231803043D 0   0.00000     0.00000
 
 44 43  0  0  0  0  0  0  0  0999 V2000
    6.3182   -1.0390   -0.9903 C   0  0  0  0  0  0  0  0  0  0  0  0
    6.1527   -0.2460    0.2352 N   0  0  0  0  0  0  0  0  0  0  0  0
    7.3417    0.5767    0.4946 C   0  0  0  0  0  0  0  0  0  0  0  0
    4.9429    0.5843    0.1656 C   0  0  0  0  0  0  0  0  0  0  0  0
    3.7064   -0.3166    0.1451 C   0  0  0  0  0  0  0  0  0  0  0  0
    2.4464    0.5483    0.0726 C   0  0  0  0  0  0  0  0  0  0  0  0
    1.2099   -0.3526    0.0521 C   0  0  0  0  0  0  0  0  0  0  0  0
    0.0001    0.4777   -0.0175 N   0  0  0  0  0  0  0  0  0  0  0  0
   -1.2096   -0.3553   -0.0389 C   0  0  0  0  0  0  0  0  0  0  0  0
   -2.4461    0.5429   -0.1116 C   0  0  0  0  0  0  0  0  0  0  0  0
   -3.7061   -0.3247   -0.1338 C   0  0  0  0  0  0  0  0  0  0  0  0
   -4.9426    0.5735   -0.2065 C   0  0  0  0  0  0  0  0  0  0  0  0
   -6.1524   -0.2596   -0.2279 N   0  0  0  0  0  0  0  0  0  0  0  0
   -6.3179   -0.9801    1.0415 C   0  0  0  0  0  0  0  0  0  0  0  0
   -7.3414    0.5468   -0.5345 C   0  0  0  0  0  0  0  0  0  0  0  0
    7.1815   -1.6960   -0.8841 H   0  0  0  0  0  0  0  0  0  0  0  0
    5.4237   -1.6387   -1.1586 H   0  0  0  0  0  0  0  0  0  0  0  0
    6.4723   -0.3706   -1.8374 H   0  0  0  0  0  0  0  0  0  0  0  0
    7.4626    1.3038   -0.3084 H   0  0  0  0  0  0  0  0  0  0  0  0
    7.2217    1.0998    1.4433 H   0  0  0  0  0  0  0  0  0  0  0  0
    8.2230   -0.0630    0.5413 H   0  0  0  0  0  0  0  0  0  0  0  0
    4.9010    1.2391    1.0360 H   0  0  0  0  0  0  0  0  0  0  0  0
    4.9680    1.1875   -0.7420 H   0  0  0  0  0  0  0  0  0  0  0  0
    3.7483   -0.9713   -0.7253 H   0  0  0  0  0  0  0  0  0  0  0  0
    3.6813   -0.9198    1.0527 H   0  0  0  0  0  0  0  0  0  0  0  0
    2.4045    1.2030    0.9430 H   0  0  0  0  0  0  0  0  0  0  0  0
    2.4715    1.1515   -0.8350 H   0  0  0  0  0  0  0  0  0  0  0  0
    1.2518   -1.0074   -0.8183 H   0  0  0  0  0  0  0  0  0  0  0  0
    1.1848   -0.9558    0.9597 H   0  0  0  0  0  0  0  0  0  0  0  0
   -0.0293    1.1385    0.7445 H   0  0  0  0  0  0  0  0  0  0  0  0
   -1.1845   -1.0101   -0.9100 H   0  0  0  0  0  0  0  0  0  0  0  0
   -1.2515   -0.9585    0.8680 H   0  0  0  0  0  0  0  0  0  0  0  0
   -2.4712    1.1977    0.7595 H   0  0  0  0  0  0  0  0  0  0  0  0
   -2.4042    1.1461   -1.0185 H   0  0  0  0  0  0  0  0  0  0  0  0
   -3.6810   -0.9795   -1.0049 H   0  0  0  0  0  0  0  0  0  0  0  0
   -3.7480   -0.9279    0.7731 H   0  0  0  0  0  0  0  0  0  0  0  0
   -4.9677    1.2283    0.6646 H   0  0  0  0  0  0  0  0  0  0  0  0
   -4.9007    1.1767   -1.1134 H   0  0  0  0  0  0  0  0  0  0  0  0
   -6.4018   -0.2630    1.8581 H   0  0  0  0  0  0  0  0  0  0  0  0
   -7.2210   -1.5890    0.9986 H   0  0  0  0  0  0  0  0  0  0  0  0
   -5.4539   -1.6229    1.2098 H   0  0  0  0  0  0  0  0  0  0  0  0
   -7.2214    1.0140   -1.5119 H   0  0  0  0  0  0  0  0  0  0  0  0
   -8.2227   -0.0945   -0.5440 H   0  0  0  0  0  0  0  0  0  0  0  0
   -7.4623    1.3192    0.2250 H   0  0  0  0  0  0  0  0  0  0  0  0
  1  2  1  0  0  0  0
  2  3  1  0  0  0  0
  2  4  1  0  0  0  0
  4  5  1  0  0  0  0
  5  6  1  0  0  0  0
  6  7  1  0  0  0  0
  7  8  1  0  0  0  0
  8  9  1  0  0  0  0
  9 10  1  0  0  0  0
 10 11  1  0  0  0  0
 11 12  1  0  0  0  0
 12 13  1  0  0  0  0
 13 14  1  0  0  0  0
 13 15  1  0  0  0  0
  1 16  1  0  0  0  0
  1 17  1  0  0  0  0
  1 18  1  0  0  0  0
  3 19  1  0  0  0  0
  3 20  1  0  0  0  0
  3 21  1  0  0  0  0
  4 22  1  0  0  0  0
  4 23  1  0  0  0  0
  5 24  1  0  0  0  0
  5 25  1  0  0  0  0
  6 26  1  0  0  0  0
  6 27  1  0  0  0  0
  7 28  1  0  0  0  0
  7 29  1  0  0  0  0
  8 30  1  0  0  0  0
  9 31  1  0  0  0  0
  9 32  1  0  0  0  0
 10 33  1  0  0  0  0
 10 34  1  0  0  0  0
 11 35  1  0  0  0  0
 11 36  1  0  0  0  0
 12 37  1  0  0  0  0
 12 38  1  0  0  0  0
 14 39  1  0  0  0  0
 14 40  1  0  0  0  0
 14 41  1  0  0  0  0
 15 42  1  0  0  0  0
 15 43  1  0  0  0  0
 15 44  1  0  0  0  0
M  END
$$$$
