C26H32O5
APtclcactv06291802543D 0   0.00000     0.00000
 
 63 64  0  0  0  0  0  0  0  0999 V2000
   -1.0353    0.6243   -1.6053 C   0  0  0  0  0  0  0  0  0  0  0  0
   -1.9863   -0.5243   -1.3874 C   0  0  0  0  0  0  0  0  0  0  0  0
   -1.5205   -1.7360   -1.2117 C   0  0  0  0  0  0  0  0  0  0  0  0
   -0.0347   -1.9637   -1.1033 C   0  0  0  0  0  0  0  0  0  0  0  0
    0.2859   -2.6036    0.2490 C   0  0  0  0  0  0  0  0  0  0  0  0
    1.7716   -2.8313    0.3574 C   0  0  0  0  0  0  0  0  0  0  0  0
    2.5289   -1.9424    0.9509 C   0  0  0  0  0  0  0  0  0  0  0  0
    4.0284   -2.0896    0.9212 C   0  0  0  0  0  0  0  0  0  0  0  0
    4.6474   -0.8210    0.3933 C   0  0  0  0  0  0  0  0  0  0  0  0
    5.0868    0.1411    1.2604 C   0  0  0  0  0  0  0  0  0  0  0  0
    5.6832    1.3610    0.6942 C   0  0  0  0  0  0  0  0  0  0  0  0
    6.1530    2.3835    1.5206 C   0  0  0  0  0  0  0  0  0  0  0  0
    6.7066    3.5128    0.9586 C   0  0  0  0  0  0  0  0  0  0  0  0
    6.7980    3.6360   -0.4197 C   0  0  0  0  0  0  0  0  0  0  0  0
    6.3372    2.6333   -1.2474 C   0  0  0  0  0  0  0  0  0  0  0  0
    5.7762    1.4865   -0.7014 C   0  0  0  0  0  0  0  0  0  0  0  0
    5.3206    0.4950   -1.4973 O   0  0  0  0  0  0  0  0  0  0  0  0
    4.7805   -0.6244   -0.9896 C   0  0  0  0  0  0  0  0  0  0  0  0
    4.3844   -1.4891   -1.7516 O   0  0  0  0  0  0  0  0  0  0  0  0
    4.9758   -0.0238    2.5982 O   0  0  0  0  0  0  0  0  0  0  0  0
    2.3861   -4.0817   -0.2171 C   0  0  0  0  0  0  0  0  0  0  0  0
   -3.4731   -0.2789   -1.3717 C   0  0  0  0  0  0  0  0  0  0  0  0
   -3.9040    0.1523    0.0316 C   0  0  0  0  0  0  0  0  0  0  0  0
   -5.3908    0.3976    0.0473 C   0  0  0  0  0  0  0  0  0  0  0  0
   -6.1640   -0.3149    0.8287 C   0  0  0  0  0  0  0  0  0  0  0  0
   -5.5847   -1.4556    1.6250 C   0  0  0  0  0  0  0  0  0  0  0  0
   -7.6329    0.0060    0.9311 C   0  0  0  0  0  0  0  0  0  0  0  0
   -7.9420    1.1373    0.0750 O   0  0  0  0  0  0  0  0  0  0  0  0
   -9.2181    1.5528    0.0512 C   0  0  0  0  0  0  0  0  0  0  0  0
  -10.0494    0.9899    0.7236 O   0  0  0  0  0  0  0  0  0  0  0  0
   -9.6141    2.7214   -0.8140 C   0  0  0  0  0  0  0  0  0  0  0  0
   -0.3797    0.3987   -2.4463 H   0  0  0  0  0  0  0  0  0  0  0  0
   -1.6026    1.5301   -1.8196 H   0  0  0  0  0  0  0  0  0  0  0  0
   -0.4358    0.7750   -0.7075 H   0  0  0  0  0  0  0  0  0  0  0  0
   -2.2012   -2.5717   -1.1445 H   0  0  0  0  0  0  0  0  0  0  0  0
    0.2907   -2.6265   -1.9051 H   0  0  0  0  0  0  0  0  0  0  0  0
    0.4861   -1.0098   -1.1865 H   0  0  0  0  0  0  0  0  0  0  0  0
   -0.0396   -1.9408    1.0508 H   0  0  0  0  0  0  0  0  0  0  0  0
   -0.2350   -3.5575    0.3322 H   0  0  0  0  0  0  0  0  0  0  0  0
    2.0787   -1.1040    1.4616 H   0  0  0  0  0  0  0  0  0  0  0  0
    4.3949   -2.2803    1.9298 H   0  0  0  0  0  0  0  0  0  0  0  0
    4.2989   -2.9229    0.2727 H   0  0  0  0  0  0  0  0  0  0  0  0
    6.0825    2.2898    2.5942 H   0  0  0  0  0  0  0  0  0  0  0  0
    7.0708    4.3062    1.5944 H   0  0  0  0  0  0  0  0  0  0  0  0
    7.2339    4.5259   -0.8493 H   0  0  0  0  0  0  0  0  0  0  0  0
    6.4128    2.7402   -2.3195 H   0  0  0  0  0  0  0  0  0  0  0  0
    5.3182    0.7179    3.1157 H   0  0  0  0  0  0  0  0  0  0  0  0
    2.6159   -3.9227   -1.2706 H   0  0  0  0  0  0  0  0  0  0  0  0
    3.3030   -4.3172    0.3233 H   0  0  0  0  0  0  0  0  0  0  0  0
    1.6839   -4.9096   -0.1193 H   0  0  0  0  0  0  0  0  0  0  0  0
   -3.7191    0.5076   -2.0851 H   0  0  0  0  0  0  0  0  0  0  0  0
   -3.9955   -1.1952   -1.6467 H   0  0  0  0  0  0  0  0  0  0  0  0
   -3.6580   -0.6342    0.7450 H   0  0  0  0  0  0  0  0  0  0  0  0
   -3.3816    1.0686    0.3066 H   0  0  0  0  0  0  0  0  0  0  0  0
   -5.8189    1.1609   -0.5855 H   0  0  0  0  0  0  0  0  0  0  0  0
   -5.1586   -1.0720    2.5521 H   0  0  0  0  0  0  0  0  0  0  0  0
   -6.3714   -2.1736    1.8566 H   0  0  0  0  0  0  0  0  0  0  0  0
   -4.8050   -1.9463    1.0425 H   0  0  0  0  0  0  0  0  0  0  0  0
   -8.2166   -0.8587    0.6155 H   0  0  0  0  0  0  0  0  0  0  0  0
   -7.8795    0.2537    1.9636 H   0  0  0  0  0  0  0  0  0  0  0  0
   -9.3920    2.4933   -1.8565 H   0  0  0  0  0  0  0  0  0  0  0  0
  -10.6818    2.9104   -0.7029 H   0  0  0  0  0  0  0  0  0  0  0  0
   -9.0549    3.6057   -0.5084 H   0  0  0  0  0  0  0  0  0  0  0  0
  1  2  1  0  0  0  0
  2  3  2  0  0  0  0
  3  4  1  0  0  0  0
  4  5  1  0  0  0  0
  5  6  1  0  0  0  0
  6  7  2  0  0  0  0
  7  8  1  0  0  0  0
  8  9  1  0  0  0  0
  9 10  2  0  0  0  0
 10 11  1  0  0  0  0
 11 12  2  0  0  0  0
 12 13  1  0  0  0  0
 13 14  2  0  0  0  0
 14 15  1  0  0  0  0
 15 16  2  0  0  0  0
 11 16  1  0  0  0  0
 16 17  1  0  0  0  0
 17 18  1  0  0  0  0
  9 18  1  0  0  0  0
 18 19  2  0  0  0  0
 10 20  1  0  0  0  0
  6 21  1  0  0  0  0
  2 22  1  0  0  0  0
 22 23  1  0  0  0  0
 23 24  1  0  0  0  0
 24 25  2  0  0  0  0
 25 26  1  0  0  0  0
 25 27  1  0  0  0  0
 27 28  1  0  0  0  0
 28 29  1  0  0  0  0
 29 30  2  0  0  0  0
 29 31  1  0  0  0  0
  1 32  1  0  0  0  0
  1 33  1  0  0  0  0
  1 34  1  0  0  0  0
  3 35  1  0  0  0  0
  4 36  1  0  0  0  0
  4 37  1  0  0  0  0
  5 38  1  0  0  0  0
  5 39  1  0  0  0  0
  7 40  1  0  0  0  0
  8 41  1  0  0  0  0
  8 42  1  0  0  0  0
 12 43  1  0  0  0  0
 13 44  1  0  0  0  0
 14 45  1  0  0  0  0
 15 46  1  0  0  0  0
 20 47  1  0  0  0  0
 21 48  1  0  0  0  0
 21 49  1  0  0  0  0
 21 50  1  0  0  0  0
 22 51  1  0  0  0  0
 22 52  1  0  0  0  0
 23 53  1  0  0  0  0
 23 54  1  0  0  0  0
 24 55  1  0  0  0  0
 26 56  1  0  0  0  0
 26 57  1  0  0  0  0
 26 58  1  0  0  0  0
 27 59  1  0  0  0  0
 27 60  1  0  0  0  0
 31 61  1  0  0  0  0
 31 62  1  0  0  0  0
 31 63  1  0  0  0  0
M  END
$$$$
