C24H30O4
APtclcactv06291802543D 0   0.00000     0.00000
 
 58 59  0  0  0  0  0  0  0  0999 V2000
   -2.0006    0.9848   -1.6430 C   0  0  0  0  0  0  0  0  0  0  0  0
   -3.0686   -0.0478   -1.3903 C   0  0  0  0  0  0  0  0  0  0  0  0
   -2.7348   -1.2956   -1.1719 C   0  0  0  0  0  0  0  0  0  0  0  0
   -1.2818   -1.6765   -1.0500 C   0  0  0  0  0  0  0  0  0  0  0  0
   -1.0318   -2.3005    0.3244 C   0  0  0  0  0  0  0  0  0  0  0  0
    0.4212   -2.6815    0.4464 C   0  0  0  0  0  0  0  0  0  0  0  0
    1.2688   -1.8586    1.0126 C   0  0  0  0  0  0  0  0  0  0  0  0
    2.7440   -2.1657    0.9938 C   0  0  0  0  0  0  0  0  0  0  0  0
    3.4949   -0.9890    0.4259 C   0  0  0  0  0  0  0  0  0  0  0  0
    4.0340   -0.0503    1.2617 C   0  0  0  0  0  0  0  0  0  0  0  0
    4.7574    1.0791    0.6570 C   0  0  0  0  0  0  0  0  0  0  0  0
    5.3332    2.0733    1.4502 C   0  0  0  0  0  0  0  0  0  0  0  0
    6.0043    3.1174    0.8526 C   0  0  0  0  0  0  0  0  0  0  0  0
    6.1088    3.1832   -0.5287 C   0  0  0  0  0  0  0  0  0  0  0  0
    5.5441    2.2078   -1.3239 C   0  0  0  0  0  0  0  0  0  0  0  0
    4.8638    1.1465   -0.7417 C   0  0  0  0  0  0  0  0  0  0  0  0
    4.3053    0.1827   -1.5054 O   0  0  0  0  0  0  0  0  0  0  0  0
    3.6487   -0.8549   -0.9624 C   0  0  0  0  0  0  0  0  0  0  0  0
    3.1629   -1.6979   -1.6963 O   0  0  0  0  0  0  0  0  0  0  0  0
    3.9057   -0.1568    2.6039 O   0  0  0  0  0  0  0  0  0  0  0  0
    0.8990   -4.0090   -0.0831 C   0  0  0  0  0  0  0  0  0  0  0  0
   -4.5208    0.3550   -1.3888 C   0  0  0  0  0  0  0  0  0  0  0  0
   -4.9038    0.8771   -0.0026 C   0  0  0  0  0  0  0  0  0  0  0  0
   -6.3560    1.2798   -0.0011 C   0  0  0  0  0  0  0  0  0  0  0  0
   -7.2011    0.6807    0.8008 C   0  0  0  0  0  0  0  0  0  0  0  0
   -6.7470   -0.4876    1.6375 C   0  0  0  0  0  0  0  0  0  0  0  0
   -8.6274    1.1597    0.8865 C   0  0  0  0  0  0  0  0  0  0  0  0
   -8.8108    2.2698    0.0057 O   0  0  0  0  0  0  0  0  0  0  0  0
   -1.3724    0.6622   -2.4733 H   0  0  0  0  0  0  0  0  0  0  0  0
   -2.4680    1.9381   -1.8900 H   0  0  0  0  0  0  0  0  0  0  0  0
   -1.3888    1.1012   -0.7484 H   0  0  0  0  0  0  0  0  0  0  0  0
   -3.5008   -2.0513   -1.0793 H   0  0  0  0  0  0  0  0  0  0  0  0
   -1.0286   -2.3971   -1.8277 H   0  0  0  0  0  0  0  0  0  0  0  0
   -0.6622   -0.7870   -1.1633 H   0  0  0  0  0  0  0  0  0  0  0  0
   -1.2850   -1.5799    1.1021 H   0  0  0  0  0  0  0  0  0  0  0  0
   -1.6514   -3.1901    0.4377 H   0  0  0  0  0  0  0  0  0  0  0  0
    0.9103   -0.9602    1.4928 H   0  0  0  0  0  0  0  0  0  0  0  0
    3.0877   -2.3600    2.0098 H   0  0  0  0  0  0  0  0  0  0  0  0
    2.9243   -3.0447    0.3749 H   0  0  0  0  0  0  0  0  0  0  0  0
    5.2528    2.0242    2.5261 H   0  0  0  0  0  0  0  0  0  0  0  0
    6.4508    3.8886    1.4626 H   0  0  0  0  0  0  0  0  0  0  0  0
    6.6372    4.0065   -0.9863 H   0  0  0  0  0  0  0  0  0  0  0  0
    5.6310    2.2694   -2.3986 H   0  0  0  0  0  0  0  0  0  0  0  0
    4.3250    0.5613    3.0973 H   0  0  0  0  0  0  0  0  0  0  0  0
    1.1449   -3.9113   -1.1405 H   0  0  0  0  0  0  0  0  0  0  0  0
    1.7854   -4.3224    0.4685 H   0  0  0  0  0  0  0  0  0  0  0  0
    0.1125   -4.7536    0.0398 H   0  0  0  0  0  0  0  0  0  0  0  0
   -4.6813    1.1385   -2.1293 H   0  0  0  0  0  0  0  0  0  0  0  0
   -5.1378   -0.5093   -1.6347 H   0  0  0  0  0  0  0  0  0  0  0  0
   -4.7433    0.0935    0.7379 H   0  0  0  0  0  0  0  0  0  0  0  0
   -4.2868    1.7413    0.2434 H   0  0  0  0  0  0  0  0  0  0  0  0
   -6.7000    2.0624   -0.6610 H   0  0  0  0  0  0  0  0  0  0  0  0
   -6.2827   -0.1203    2.5527 H   0  0  0  0  0  0  0  0  0  0  0  0
   -7.6059   -1.1093    1.8899 H   0  0  0  0  0  0  0  0  0  0  0  0
   -6.0238   -1.0781    1.0749 H   0  0  0  0  0  0  0  0  0  0  0  0
   -9.2999    0.3519    0.5980 H   0  0  0  0  0  0  0  0  0  0  0  0
   -8.8465    1.4671    1.9091 H   0  0  0  0  0  0  0  0  0  0  0  0
   -9.7080    2.6306    0.0091 H   0  0  0  0  0  0  0  0  0  0  0  0
  1  2  1  0  0  0  0
  2  3  2  0  0  0  0
  3  4  1  0  0  0  0
  4  5  1  0  0  0  0
  5  6  1  0  0  0  0
  6  7  2  0  0  0  0
  7  8  1  0  0  0  0
  8  9  1  0  0  0  0
  9 10  2  0  0  0  0
 10 11  1  0  0  0  0
 11 12  2  0  0  0  0
 12 13  1  0  0  0  0
 13 14  2  0  0  0  0
 14 15  1  0  0  0  0
 15 16  2  0  0  0  0
 11 16  1  0  0  0  0
 16 17  1  0  0  0  0
 17 18  1  0  0  0  0
  9 18  1  0  0  0  0
 18 19  2  0  0  0  0
 10 20  1  0  0  0  0
  6 21  1  0  0  0  0
  2 22  1  0  0  0  0
 22 23  1  0  0  0  0
 23 24  1  0  0  0  0
 24 25  2  0  0  0  0
 25 26  1  0  0  0  0
 25 27  1  0  0  0  0
 27 28  1  0  0  0  0
  1 29  1  0  0  0  0
  1 30  1  0  0  0  0
  1 31  1  0  0  0  0
  3 32  1  0  0  0  0
  4 33  1  0  0  0  0
  4 34  1  0  0  0  0
  5 35  1  0  0  0  0
  5 36  1  0  0  0  0
  7 37  1  0  0  0  0
  8 38  1  0  0  0  0
  8 39  1  0  0  0  0
 12 40  1  0  0  0  0
 13 41  1  0  0  0  0
 14 42  1  0  0  0  0
 15 43  1  0  0  0  0
 20 44  1  0  0  0  0
 21 45  1  0  0  0  0
 21 46  1  0  0  0  0
 21 47  1  0  0  0  0
 22 48  1  0  0  0  0
 22 49  1  0  0  0  0
 23 50  1  0  0  0  0
 23 51  1  0  0  0  0
 24 52  1  0  0  0  0
 26 53  1  0  0  0  0
 26 54  1  0  0  0  0
 26 55  1  0  0  0  0
 27 56  1  0  0  0  0
 27 57  1  0  0  0  0
 28 58  1  0  0  0  0
M  END
$$$$
