C11H21NO11S3
APtclcactv06281817133D 0   0.00000     0.00000
 
 47 47  0  0  0  0  0  0  0  0999 V2000
    4.5899    4.4166   -0.2995 C   0  0  0  0  0  0  0  0  0  0  0  0
    4.3463    2.6233   -0.1745 S   0  0  0  0  0  0  0  0  0  0  0  0
    4.9955    2.0005   -1.2744 O   0  0  0  0  0  0  0  0  0  0  0  0
    4.6721    2.2132    1.1464 O   0  0  0  0  0  0  0  0  0  0  0  0
    2.5528    2.4721   -0.4008 C   0  0  0  0  0  0  0  0  0  0  0  0
    2.1517    0.9976   -0.3248 C   0  0  0  0  0  0  0  0  0  0  0  0
    0.6390    0.8701   -0.5157 C   0  0  0  0  0  0  0  0  0  0  0  0
    0.2439   -0.5823   -0.4409 C   0  0  0  0  0  0  0  0  0  0  0  0
    1.1449   -1.4879   -0.2409 N   0  0  0  0  0  0  0  0  0  0  0  0
    0.7625   -2.8392   -0.0598 O   0  0  0  0  0  0  0  0  0  0  0  0
    1.9308   -3.7883    0.1649 S   0  0  0  0  0  0  0  0  0  0  0  0
    1.3932   -5.1031    0.1246 O   0  0  0  0  0  0  0  0  0  0  0  0
    2.9753   -3.3492   -0.6926 O   0  0  0  0  0  0  0  0  0  0  0  0
    2.4225   -3.5685    1.5885 O   0  0  0  0  0  0  0  0  0  0  0  0
   -1.4458   -1.0463   -0.6258 S   0  0  0  0  0  0  0  0  0  0  0  0
   -2.1807    0.5722   -0.9670 C   0  0  0  0  0  0  0  0  0  0  0  0
   -3.5808    0.3831   -1.5566 C   0  0  0  0  0  0  0  0  0  0  0  0
   -4.4687   -0.3229   -0.5273 C   0  0  0  0  0  0  0  0  0  0  0  0
   -4.4881    0.5005    0.7642 C   0  0  0  0  0  0  0  0  0  0  0  0
   -3.0530    0.6851    1.2642 C   0  0  0  0  0  0  0  0  0  0  0  0
   -2.2737    1.3190    0.2478 O   0  0  0  0  0  0  0  0  0  0  0  0
   -3.0587    1.5573    2.5212 C   0  0  0  0  0  0  0  0  0  0  0  0
   -1.7350    1.6337    3.0540 O   0  0  0  0  0  0  0  0  0  0  0  0
   -5.0722    1.7790    0.5067 O   0  0  0  0  0  0  0  0  0  0  0  0
   -5.7972   -0.4379   -1.0409 O   0  0  0  0  0  0  0  0  0  0  0  0
   -4.1408    1.6585   -1.8756 O   0  0  0  0  0  0  0  0  0  0  0  0
    4.2514    4.7620   -1.2764 H   0  0  0  0  0  0  0  0  0  0  0  0
    4.0166    4.9164    0.4812 H   0  0  0  0  0  0  0  0  0  0  0  0
    5.6480    4.6488   -0.1786 H   0  0  0  0  0  0  0  0  0  0  0  0
    2.0395    3.0292    0.3829 H   0  0  0  0  0  0  0  0  0  0  0  0
    2.2743    2.8747   -1.3747 H   0  0  0  0  0  0  0  0  0  0  0  0
    2.6651    0.4406   -1.1086 H   0  0  0  0  0  0  0  0  0  0  0  0
    2.4303    0.5950    0.6491 H   0  0  0  0  0  0  0  0  0  0  0  0
    0.1257    1.4271    0.2681 H   0  0  0  0  0  0  0  0  0  0  0  0
    0.3605    1.2727   -1.4896 H   0  0  0  0  0  0  0  0  0  0  0  0
    3.1710   -4.1280    1.8369 H   0  0  0  0  0  0  0  0  0  0  0  0
   -1.5563    1.1121   -1.6789 H   0  0  0  0  0  0  0  0  0  0  0  0
   -3.5168   -0.2238   -2.4597 H   0  0  0  0  0  0  0  0  0  0  0  0
   -4.0689   -1.3157   -0.3208 H   0  0  0  0  0  0  0  0  0  0  0  0
   -5.0730   -0.0224    1.5208 H   0  0  0  0  0  0  0  0  0  0  0  0
   -2.6218   -0.2881    1.4988 H   0  0  0  0  0  0  0  0  0  0  0  0
   -3.4065    2.5586    2.2670 H   0  0  0  0  0  0  0  0  0  0  0  0
   -3.7249    1.1191    3.2644 H   0  0  0  0  0  0  0  0  0  0  0  0
   -1.6635    2.1722    3.8540 H   0  0  0  0  0  0  0  0  0  0  0  0
   -5.9820    1.7376    0.1816 H   0  0  0  0  0  0  0  0  0  0  0  0
   -5.8586   -0.9425   -1.8635 H   0  0  0  0  0  0  0  0  0  0  0  0
   -3.6263    2.1640   -2.5197 H   0  0  0  0  0  0  0  0  0  0  0  0
  1  2  1  0  0  0  0
  2  3  2  0  0  0  0
  2  4  2  0  0  0  0
  2  5  1  0  0  0  0
  5  6  1  0  0  0  0
  6  7  1  0  0  0  0
  7  8  1  0  0  0  0
  8  9  2  0  0  0  0
  9 10  1  0  0  0  0
 10 11  1  0  0  0  0
 11 12  2  0  0  0  0
 11 13  2  0  0  0  0
 11 14  1  0  0  0  0
  8 15  1  0  0  0  0
 15 16  1  0  0  0  0
 16 17  1  0  0  0  0
 17 18  1  0  0  0  0
 18 19  1  0  0  0  0
 19 20  1  0  0  0  0
 20 21  1  0  0  0  0
 16 21  1  0  0  0  0
 20 22  1  0  0  0  0
 22 23  1  0  0  0  0
 19 24  1  0  0  0  0
 18 25  1  0  0  0  0
 17 26  1  0  0  0  0
  1 27  1  0  0  0  0
  1 28  1  0  0  0  0
  1 29  1  0  0  0  0
  5 30  1  0  0  0  0
  5 31  1  0  0  0  0
  6 32  1  0  0  0  0
  6 33  1  0  0  0  0
  7 34  1  0  0  0  0
  7 35  1  0  0  0  0
 14 36  1  0  0  0  0
 16 37  1  0  0  0  0
 17 38  1  0  0  0  0
 18 39  1  0  0  0  0
 19 40  1  0  0  0  0
 20 41  1  0  0  0  0
 22 42  1  0  0  0  0
 22 43  1  0  0  0  0
 23 44  1  0  0  0  0
 24 45  1  0  0  0  0
 25 46  1  0  0  0  0
 26 47  1  0  0  0  0
M  END
$$$$
