C13H8O6
APtclcactv06281817133D 0   0.00000     0.00000
 
 27 29  0  0  0  0  0  0  0  0999 V2000
   -2.2387   -1.7877   -0.1280 C   0  0  0  0  0  0  0  0  0  0  0  0
   -3.4821   -1.2336   -0.2499 C   0  0  0  0  0  0  0  0  0  0  0  0
   -3.6442    0.1468   -0.1790 C   0  0  0  0  0  0  0  0  0  0  0  0
   -2.5498    0.9776    0.0192 C   0  0  0  0  0  0  0  0  0  0  0  0
   -1.2765    0.4281    0.1487 C   0  0  0  0  0  0  0  0  0  0  0  0
   -1.1286   -0.9659    0.0678 C   0  0  0  0  0  0  0  0  0  0  0  0
    0.2290   -1.5372    0.1870 C   0  0  0  0  0  0  0  0  0  0  0  0
    0.4162   -2.7297    0.3494 O   0  0  0  0  0  0  0  0  0  0  0  0
    1.3429   -0.5760    0.0968 C   0  0  0  0  0  0  0  0  0  0  0  0
    2.6626   -1.0151   -0.0676 C   0  0  0  0  0  0  0  0  0  0  0  0
    3.6829   -0.0859   -0.1623 C   0  0  0  0  0  0  0  0  0  0  0  0
    3.3945    1.2721   -0.0916 C   0  0  0  0  0  0  0  0  0  0  0  0
    2.0904    1.7121    0.0772 C   0  0  0  0  0  0  0  0  0  0  0  0
    1.0518    0.7974    0.1769 C   0  0  0  0  0  0  0  0  0  0  0  0
   -0.2125    1.2313    0.3550 O   0  0  0  0  0  0  0  0  0  0  0  0
    4.4008    2.1776   -0.1885 O   0  0  0  0  0  0  0  0  0  0  0  0
    2.9383   -2.3419   -0.1332 O   0  0  0  0  0  0  0  0  0  0  0  0
   -2.7207    2.3261    0.0862 O   0  0  0  0  0  0  0  0  0  0  0  0
   -4.8845    0.6862   -0.3052 O   0  0  0  0  0  0  0  0  0  0  0  0
   -2.1165   -2.8596   -0.1788 H   0  0  0  0  0  0  0  0  0  0  0  0
   -4.3419   -1.8692   -0.4021 H   0  0  0  0  0  0  0  0  0  0  0  0
    4.7033   -0.4153   -0.2907 H   0  0  0  0  0  0  0  0  0  0  0  0
    1.8824    2.7705    0.1313 H   0  0  0  0  0  0  0  0  0  0  0  0
    4.5871    2.4633   -1.0934 H   0  0  0  0  0  0  0  0  0  0  0  0
    2.9163   -2.7044   -1.0294 H   0  0  0  0  0  0  0  0  0  0  0  0
   -2.8843    2.6578    0.9797 H   0  0  0  0  0  0  0  0  0  0  0  0
   -5.3579    0.7840    0.5323 H   0  0  0  0  0  0  0  0  0  0  0  0
  1  2  2  0  0  0  0
  2  3  1  0  0  0  0
  3  4  2  0  0  0  0
  4  5  1  0  0  0  0
  5  6  2  0  0  0  0
  1  6  1  0  0  0  0
  6  7  1  0  0  0  0
  7  8  2  0  0  0  0
  7  9  1  0  0  0  0
  9 10  2  0  0  0  0
 10 11  1  0  0  0  0
 11 12  2  0  0  0  0
 12 13  1  0  0  0  0
 13 14  2  0  0  0  0
  9 14  1  0  0  0  0
 14 15  1  0  0  0  0
  5 15  1  0  0  0  0
 12 16  1  0  0  0  0
 10 17  1  0  0  0  0
  4 18  1  0  0  0  0
  3 19  1  0  0  0  0
  1 20  1  0  0  0  0
  2 21  1  0  0  0  0
 11 22  1  0  0  0  0
 13 23  1  0  0  0  0
 16 24  1  0  0  0  0
 17 25  1  0  0  0  0
 18 26  1  0  0  0  0
 19 27  1  0  0  0  0
M  END
$$$$
