C20H18O6
APtclcactv06281817133D 0   0.00000     0.00000
 
 44 46  0  0  0  0  0  0  0  0999 V2000
    6.2437   -1.3314   -0.1031 C   0  0  0  0  0  0  0  0  0  0  0  0
    5.8456   -0.2953    0.9162 C   0  0  0  0  0  0  0  0  0  0  0  0
    5.0165    0.6637    0.5860 C   0  0  0  0  0  0  0  0  0  0  0  0
    4.3637    0.6609   -0.7722 C   0  0  0  0  0  0  0  0  0  0  0  0
    2.8675    0.7420   -0.6106 C   0  0  0  0  0  0  0  0  0  0  0  0
    2.2407    1.9826   -0.5684 C   0  0  0  0  0  0  0  0  0  0  0  0
    0.8654    2.0749   -0.4207 C   0  0  0  0  0  0  0  0  0  0  0  0
    0.1000    0.9241   -0.3128 C   0  0  0  0  0  0  0  0  0  0  0  0
    0.7313   -0.3317   -0.3551 C   0  0  0  0  0  0  0  0  0  0  0  0
    2.1209   -0.4173   -0.5104 C   0  0  0  0  0  0  0  0  0  0  0  0
    2.7309   -1.6290   -0.5514 O   0  0  0  0  0  0  0  0  0  0  0  0
   -0.0996   -1.5407   -0.2388 C   0  0  0  0  0  0  0  0  0  0  0  0
    0.3958   -2.6559   -0.2689 O   0  0  0  0  0  0  0  0  0  0  0  0
   -1.4990   -1.3594   -0.0897 C   0  0  0  0  0  0  0  0  0  0  0  0
   -2.0119   -0.0974   -0.0605 C   0  0  0  0  0  0  0  0  0  0  0  0
   -1.2397    0.9974   -0.1677 O   0  0  0  0  0  0  0  0  0  0  0  0
   -3.4682    0.0736    0.0950 C   0  0  0  0  0  0  0  0  0  0  0  0
   -3.9714    0.9855    1.0274 C   0  0  0  0  0  0  0  0  0  0  0  0
   -5.3326    1.1423    1.1689 C   0  0  0  0  0  0  0  0  0  0  0  0
   -6.2051    0.3952    0.3869 C   0  0  0  0  0  0  0  0  0  0  0  0
   -5.7094   -0.5124   -0.5411 C   0  0  0  0  0  0  0  0  0  0  0  0
   -4.3497   -0.6716   -0.6935 C   0  0  0  0  0  0  0  0  0  0  0  0
   -7.5463    0.5524    0.5304 O   0  0  0  0  0  0  0  0  0  0  0  0
   -2.3223   -2.4372    0.0226 O   0  0  0  0  0  0  0  0  0  0  0  0
    2.9830    3.1145   -0.6724 O   0  0  0  0  0  0  0  0  0  0  0  0
    6.4013   -0.3625    2.3154 C   0  0  0  0  0  0  0  0  0  0  0  0
    6.6472   -0.8360   -0.9862 H   0  0  0  0  0  0  0  0  0  0  0  0
    7.0020   -1.9881    0.3234 H   0  0  0  0  0  0  0  0  0  0  0  0
    5.3700   -1.9195   -0.3838 H   0  0  0  0  0  0  0  0  0  0  0  0
    4.8009    1.4563    1.2872 H   0  0  0  0  0  0  0  0  0  0  0  0
    4.7142    1.5190   -1.3456 H   0  0  0  0  0  0  0  0  0  0  0  0
    4.6230   -0.2580   -1.2981 H   0  0  0  0  0  0  0  0  0  0  0  0
    0.3900    3.0441   -0.3893 H   0  0  0  0  0  0  0  0  0  0  0  0
    2.8083   -2.0004   -1.4409 H   0  0  0  0  0  0  0  0  0  0  0  0
   -3.2940    1.5660    1.6361 H   0  0  0  0  0  0  0  0  0  0  0  0
   -5.7223    1.8466    1.8890 H   0  0  0  0  0  0  0  0  0  0  0  0
   -6.3913   -1.0912   -1.1465 H   0  0  0  0  0  0  0  0  0  0  0  0
   -3.9653   -1.3770   -1.4153 H   0  0  0  0  0  0  0  0  0  0  0  0
   -7.9262    1.2319   -0.0431 H   0  0  0  0  0  0  0  0  0  0  0  0
   -1.8633   -3.2877   -0.0098 H   0  0  0  0  0  0  0  0  0  0  0  0
    3.1028    3.4242   -1.5806 H   0  0  0  0  0  0  0  0  0  0  0  0
    7.0675   -1.2209    2.4010 H   0  0  0  0  0  0  0  0  0  0  0  0
    6.9561    0.5509    2.5303 H   0  0  0  0  0  0  0  0  0  0  0  0
    5.5821   -0.4659    3.0271 H   0  0  0  0  0  0  0  0  0  0  0  0
  1  2  1  0  0  0  0
  2  3  2  0  0  0  0
  3  4  1  0  0  0  0
  4  5  1  0  0  0  0
  5  6  2  0  0  0  0
  6  7  1  0  0  0  0
  7  8  2  0  0  0  0
  8  9  1  0  0  0  0
  9 10  2  0  0  0  0
  5 10  1  0  0  0  0
 10 11  1  0  0  0  0
  9 12  1  0  0  0  0
 12 13  2  0  0  0  0
 12 14  1  0  0  0  0
 14 15  2  0  0  0  0
 15 16  1  0  0  0  0
  8 16  1  0  0  0  0
 15 17  1  0  0  0  0
 17 18  2  0  0  0  0
 18 19  1  0  0  0  0
 19 20  2  0  0  0  0
 20 21  1  0  0  0  0
 21 22  2  0  0  0  0
 17 22  1  0  0  0  0
 20 23  1  0  0  0  0
 14 24  1  0  0  0  0
  6 25  1  0  0  0  0
  2 26  1  0  0  0  0
  1 27  1  0  0  0  0
  1 28  1  0  0  0  0
  1 29  1  0  0  0  0
  3 30  1  0  0  0  0
  4 31  1  0  0  0  0
  4 32  1  0  0  0  0
  7 33  1  0  0  0  0
 11 34  1  0  0  0  0
 18 35  1  0  0  0  0
 19 36  1  0  0  0  0
 21 37  1  0  0  0  0
 22 38  1  0  0  0  0
 23 39  1  0  0  0  0
 24 40  1  0  0  0  0
 25 41  1  0  0  0  0
 26 42  1  0  0  0  0
 26 43  1  0  0  0  0
 26 44  1  0  0  0  0
M  END
$$$$
