C17H14O6
APtclcactv06281817133D 0   0.00000     0.00000
 
 37 39  0  0  0  0  0  0  0  0999 V2000
    5.4729   -0.0756    1.0340 C   0  0  0  0  0  0  0  0  0  0  0  0
    4.8082    0.0728   -0.2223 O   0  0  0  0  0  0  0  0  0  0  0  0
    3.4729    0.3362   -0.1878 C   0  0  0  0  0  0  0  0  0  0  0  0
    3.0245    1.6555   -0.1541 C   0  0  0  0  0  0  0  0  0  0  0  0
    1.6686    1.9394   -0.1188 C   0  0  0  0  0  0  0  0  0  0  0  0
    0.7421    0.9079   -0.1166 C   0  0  0  0  0  0  0  0  0  0  0  0
    1.1904   -0.4249   -0.1505 C   0  0  0  0  0  0  0  0  0  0  0  0
    2.5616   -0.7072   -0.1919 C   0  0  0  0  0  0  0  0  0  0  0  0
    2.9948   -1.9942   -0.2248 O   0  0  0  0  0  0  0  0  0  0  0  0
    0.1895   -1.5033   -0.1475 C   0  0  0  0  0  0  0  0  0  0  0  0
    0.5221   -2.6773   -0.1756 O   0  0  0  0  0  0  0  0  0  0  0  0
   -1.1789   -1.1246   -0.1101 C   0  0  0  0  0  0  0  0  0  0  0  0
   -1.5076    0.1963   -0.0791 C   0  0  0  0  0  0  0  0  0  0  0  0
   -0.5817    1.1702   -0.0820 O   0  0  0  0  0  0  0  0  0  0  0  0
   -2.9342    0.5726   -0.0404 C   0  0  0  0  0  0  0  0  0  0  0  0
   -3.3847    1.5222    0.8798 C   0  0  0  0  0  0  0  0  0  0  0  0
   -4.7193    1.8690    0.9104 C   0  0  0  0  0  0  0  0  0  0  0  0
   -5.6113    1.2784    0.0326 C   0  0  0  0  0  0  0  0  0  0  0  0
   -5.1721    0.3370   -0.8816 C   0  0  0  0  0  0  0  0  0  0  0  0
   -3.8392   -0.0149   -0.9276 C   0  0  0  0  0  0  0  0  0  0  0  0
   -2.1535   -2.0742   -0.1057 O   0  0  0  0  0  0  0  0  0  0  0  0
   -2.2302   -2.9197    1.0438 C   0  0  0  0  0  0  0  0  0  0  0  0
    3.9250    2.6724   -0.1554 O   0  0  0  0  0  0  0  0  0  0  0  0
    5.3706    0.8440    1.6100 H   0  0  0  0  0  0  0  0  0  0  0  0
    5.0255   -0.9020    1.5863 H   0  0  0  0  0  0  0  0  0  0  0  0
    6.5295   -0.2822    0.8638 H   0  0  0  0  0  0  0  0  0  0  0  0
    1.3330    2.9656   -0.0925 H   0  0  0  0  0  0  0  0  0  0  0  0
    3.0965   -2.3523   -1.1172 H   0  0  0  0  0  0  0  0  0  0  0  0
   -2.6898    1.9834    1.5659 H   0  0  0  0  0  0  0  0  0  0  0  0
   -5.0691    2.6030    1.6212 H   0  0  0  0  0  0  0  0  0  0  0  0
   -6.6554    1.5532    0.0614 H   0  0  0  0  0  0  0  0  0  0  0  0
   -5.8738   -0.1199   -1.5637 H   0  0  0  0  0  0  0  0  0  0  0  0
   -3.4977   -0.7497   -1.6416 H   0  0  0  0  0  0  0  0  0  0  0  0
   -2.3109   -2.3064    1.9412 H   0  0  0  0  0  0  0  0  0  0  0  0
   -3.1062   -3.5633    0.9635 H   0  0  0  0  0  0  0  0  0  0  0  0
   -1.3320   -3.5344    1.1033 H   0  0  0  0  0  0  0  0  0  0  0  0
    4.1664    2.9829   -1.0389 H   0  0  0  0  0  0  0  0  0  0  0  0
  1  2  1  0  0  0  0
  2  3  1  0  0  0  0
  3  4  2  0  0  0  0
  4  5  1  0  0  0  0
  5  6  2  0  0  0  0
  6  7  1  0  0  0  0
  7  8  2  0  0  0  0
  3  8  1  0  0  0  0
  8  9  1  0  0  0  0
  7 10  1  0  0  0  0
 10 11  2  0  0  0  0
 10 12  1  0  0  0  0
 12 13  2  0  0  0  0
 13 14  1  0  0  0  0
  6 14  1  0  0  0  0
 13 15  1  0  0  0  0
 15 16  2  0  0  0  0
 16 17  1  0  0  0  0
 17 18  2  0  0  0  0
 18 19  1  0  0  0  0
 19 20  2  0  0  0  0
 15 20  1  0  0  0  0
 12 21  1  0  0  0  0
 21 22  1  0  0  0  0
  4 23  1  0  0  0  0
  1 24  1  0  0  0  0
  1 25  1  0  0  0  0
  1 26  1  0  0  0  0
  5 27  1  0  0  0  0
  9 28  1  0  0  0  0
 16 29  1  0  0  0  0
 17 30  1  0  0  0  0
 18 31  1  0  0  0  0
 19 32  1  0  0  0  0
 20 33  1  0  0  0  0
 22 34  1  0  0  0  0
 22 35  1  0  0  0  0
 22 36  1  0  0  0  0
 23 37  1  0  0  0  0
M  END
$$$$
