C28H32O16
APtclcactv06281817133D 0   0.00000     0.00000
 
 76 80  0  0  0  0  0  0  0  0999 V2000
    5.9275   -0.5370   -1.1989 C   0  0  0  0  0  0  0  0  0  0  0  0
    4.9199   -1.4229   -1.9343 C   0  0  0  0  0  0  0  0  0  0  0  0
    4.8564   -2.7945   -1.2572 C   0  0  0  0  0  0  0  0  0  0  0  0
    4.3605   -2.6223    0.1819 C   0  0  0  0  0  0  0  0  0  0  0  0
    2.9990   -1.9208    0.1606 C   0  0  0  0  0  0  0  0  0  0  0  0
    3.1343   -0.5830   -0.5713 C   0  0  0  0  0  0  0  0  0  0  0  0
    3.6287   -0.8121   -1.8924 O   0  0  0  0  0  0  0  0  0  0  0  0
    1.8561    0.0517   -0.6442 O   0  0  0  0  0  0  0  0  0  0  0  0
    1.8958    1.3800   -1.1696 C   0  0  0  0  0  0  0  0  0  0  0  0
    0.4911    1.9854   -1.1327 C   0  0  0  0  0  0  0  0  0  0  0  0
    0.5478    3.4367   -1.6167 C   0  0  0  0  0  0  0  0  0  0  0  0
   -0.8699    4.0166   -1.6341 C   0  0  0  0  0  0  0  0  0  0  0  0
   -1.7569    3.1410   -2.5246 C   0  0  0  0  0  0  0  0  0  0  0  0
   -1.7245    1.7011   -2.0056 C   0  0  0  0  0  0  0  0  0  0  0  0
   -0.3743    1.2335   -1.9859 O   0  0  0  0  0  0  0  0  0  0  0  0
   -2.2626    1.6593   -0.6824 O   0  0  0  0  0  0  0  0  0  0  0  0
   -2.4376    0.4300   -0.1252 C   0  0  0  0  0  0  0  0  0  0  0  0
   -1.8300    0.1175    1.0537 C   0  0  0  0  0  0  0  0  0  0  0  0
   -1.9730   -1.0821    1.6427 O   0  0  0  0  0  0  0  0  0  0  0  0
   -2.7295   -2.0632    1.1075 C   0  0  0  0  0  0  0  0  0  0  0  0
   -2.8548   -3.2887    1.7435 C   0  0  0  0  0  0  0  0  0  0  0  0
   -3.6361   -4.2860    1.1808 C   0  0  0  0  0  0  0  0  0  0  0  0
   -4.3004   -4.0726   -0.0221 C   0  0  0  0  0  0  0  0  0  0  0  0
   -4.1876   -2.8574   -0.6717 C   0  0  0  0  0  0  0  0  0  0  0  0
   -3.4006   -1.8445   -0.1087 C   0  0  0  0  0  0  0  0  0  0  0  0
   -3.2590   -0.5346   -0.7642 C   0  0  0  0  0  0  0  0  0  0  0  0
   -3.8225   -0.2890   -1.8189 O   0  0  0  0  0  0  0  0  0  0  0  0
   -4.8344   -2.6474   -1.8462 O   0  0  0  0  0  0  0  0  0  0  0  0
   -3.7535   -5.4832    1.8101 O   0  0  0  0  0  0  0  0  0  0  0  0
   -0.9839    1.1330    1.7073 C   0  0  0  0  0  0  0  0  0  0  0  0
    0.2928    0.7929    2.1635 C   0  0  0  0  0  0  0  0  0  0  0  0
    1.0814    1.7483    2.7753 C   0  0  0  0  0  0  0  0  0  0  0  0
    0.6034    3.0475    2.9367 C   0  0  0  0  0  0  0  0  0  0  0  0
   -0.6642    3.3855    2.4838 C   0  0  0  0  0  0  0  0  0  0  0  0
   -1.4543    2.4394    1.8670 C   0  0  0  0  0  0  0  0  0  0  0  0
    1.3802    3.9854    3.5394 O   0  0  0  0  0  0  0  0  0  0  0  0
    2.3241    1.4209    3.2204 O   0  0  0  0  0  0  0  0  0  0  0  0
    2.7909    0.1021    2.9290 C   0  0  0  0  0  0  0  0  0  0  0  0
   -3.0990    3.6308   -2.4907 O   0  0  0  0  0  0  0  0  0  0  0  0
   -1.3956    4.0341   -0.3054 O   0  0  0  0  0  0  0  0  0  0  0  0
    1.3666    4.2036   -0.7316 O   0  0  0  0  0  0  0  0  0  0  0  0
    2.0486   -2.7432   -0.5195 O   0  0  0  0  0  0  0  0  0  0  0  0
    4.2281   -3.9045    0.7985 O   0  0  0  0  0  0  0  0  0  0  0  0
    3.9552   -3.6400   -1.9748 O   0  0  0  0  0  0  0  0  0  0  0  0
    6.9122   -1.0035   -1.2302 H   0  0  0  0  0  0  0  0  0  0  0  0
    5.9727    0.4395   -1.6812 H   0  0  0  0  0  0  0  0  0  0  0  0
    5.6156   -0.4159   -0.1616 H   0  0  0  0  0  0  0  0  0  0  0  0
    5.2315   -1.5438   -2.9718 H   0  0  0  0  0  0  0  0  0  0  0  0
    5.8497   -3.2430   -1.2490 H   0  0  0  0  0  0  0  0  0  0  0  0
    5.0732   -2.0181    0.7433 H   0  0  0  0  0  0  0  0  0  0  0  0
    2.6640   -1.7445    1.1828 H   0  0  0  0  0  0  0  0  0  0  0  0
    3.8288    0.0591   -0.0296 H   0  0  0  0  0  0  0  0  0  0  0  0
    2.5698    1.9890   -0.5672 H   0  0  0  0  0  0  0  0  0  0  0  0
    2.2529    1.3530   -2.1991 H   0  0  0  0  0  0  0  0  0  0  0  0
    0.1099    1.9572   -0.1120 H   0  0  0  0  0  0  0  0  0  0  0  0
    0.9670    3.4692   -2.6223 H   0  0  0  0  0  0  0  0  0  0  0  0
   -0.8439    5.0315   -2.0307 H   0  0  0  0  0  0  0  0  0  0  0  0
   -1.3843    3.1676   -3.5485 H   0  0  0  0  0  0  0  0  0  0  0  0
   -2.3200    1.0651   -2.6606 H   0  0  0  0  0  0  0  0  0  0  0  0
   -2.3431   -3.4666    2.6778 H   0  0  0  0  0  0  0  0  0  0  0  0
   -4.9056   -4.8580   -0.4500 H   0  0  0  0  0  0  0  0  0  0  0  0
   -5.7253   -2.2853   -1.7453 H   0  0  0  0  0  0  0  0  0  0  0  0
   -4.4905   -5.5287    2.4345 H   0  0  0  0  0  0  0  0  0  0  0  0
    0.6618   -0.2144    2.0385 H   0  0  0  0  0  0  0  0  0  0  0  0
   -1.0307    4.3935    2.6110 H   0  0  0  0  0  0  0  0  0  0  0  0
   -2.4403    2.7052    1.5155 H   0  0  0  0  0  0  0  0  0  0  0  0
    1.9450    4.4795    2.9295 H   0  0  0  0  0  0  0  0  0  0  0  0
    3.7550   -0.0571    3.4121 H   0  0  0  0  0  0  0  0  0  0  0  0
    2.0728   -0.6282    3.3018 H   0  0  0  0  0  0  0  0  0  0  0  0
    2.9012   -0.0144    1.8509 H   0  0  0  0  0  0  0  0  0  0  0  0
   -3.7170    3.1225   -3.0337 H   0  0  0  0  0  0  0  0  0  0  0  0
   -2.2925    4.3900   -0.2419 H   0  0  0  0  0  0  0  0  0  0  0  0
    1.4471    5.1351   -0.9783 H   0  0  0  0  0  0  0  0  0  0  0  0
    1.1622   -2.3601   -0.5706 H   0  0  0  0  0  0  0  0  0  0  0  0
    3.9172   -3.8707    1.7136 H   0  0  0  0  0  0  0  0  0  0  0  0
    4.2055   -3.7889   -2.8969 H   0  0  0  0  0  0  0  0  0  0  0  0
  1  2  1  0  0  0  0
  2  3  1  0  0  0  0
  3  4  1  0  0  0  0
  4  5  1  0  0  0  0
  5  6  1  0  0  0  0
  6  7  1  0  0  0  0
  2  7  1  0  0  0  0
  6  8  1  0  0  0  0
  8  9  1  0  0  0  0
  9 10  1  0  0  0  0
 10 11  1  0  0  0  0
 11 12  1  0  0  0  0
 12 13  1  0  0  0  0
 13 14  1  0  0  0  0
 14 15  1  0  0  0  0
 10 15  1  0  0  0  0
 14 16  1  0  0  0  0
 16 17  1  0  0  0  0
 17 18  2  0  0  0  0
 18 19  1  0  0  0  0
 19 20  1  0  0  0  0
 20 21  2  0  0  0  0
 21 22  1  0  0  0  0
 22 23  2  0  0  0  0
 23 24  1  0  0  0  0
 24 25  2  0  0  0  0
 20 25  1  0  0  0  0
 25 26  1  0  0  0  0
 17 26  1  0  0  0  0
 26 27  2  0  0  0  0
 24 28  1  0  0  0  0
 22 29  1  0  0  0  0
 18 30  1  0  0  0  0
 30 31  2  0  0  0  0
 31 32  1  0  0  0  0
 32 33  2  0  0  0  0
 33 34  1  0  0  0  0
 34 35  2  0  0  0  0
 30 35  1  0  0  0  0
 33 36  1  0  0  0  0
 32 37  1  0  0  0  0
 37 38  1  0  0  0  0
 13 39  1  0  0  0  0
 12 40  1  0  0  0  0
 11 41  1  0  0  0  0
  5 42  1  0  0  0  0
  4 43  1  0  0  0  0
  3 44  1  0  0  0  0
  1 45  1  0  0  0  0
  1 46  1  0  0  0  0
  1 47  1  0  0  0  0
  2 48  1  0  0  0  0
  3 49  1  0  0  0  0
  4 50  1  0  0  0  0
  5 51  1  0  0  0  0
  6 52  1  0  0  0  0
  9 53  1  0  0  0  0
  9 54  1  0  0  0  0
 10 55  1  0  0  0  0
 11 56  1  0  0  0  0
 12 57  1  0  0  0  0
 13 58  1  0  0  0  0
 14 59  1  0  0  0  0
 21 60  1  0  0  0  0
 23 61  1  0  0  0  0
 28 62  1  0  0  0  0
 29 63  1  0  0  0  0
 31 64  1  0  0  0  0
 34 65  1  0  0  0  0
 35 66  1  0  0  0  0
 36 67  1  0  0  0  0
 38 68  1  0  0  0  0
 38 69  1  0  0  0  0
 38 70  1  0  0  0  0
 39 71  1  0  0  0  0
 40 72  1  0  0  0  0
 41 73  1  0  0  0  0
 42 74  1  0  0  0  0
 43 75  1  0  0  0  0
 44 76  1  0  0  0  0
M  END
$$$$
