C25H26O7
APtclcactv06281817133D 0   0.00000     0.00000
 
 58 61  0  0  0  0  0  0  0  0999 V2000
   -5.4999    0.6431    2.0700 C   0  0  0  0  0  0  0  0  0  0  0  0
   -5.5938    1.0647    0.6022 C   0  0  0  0  0  0  0  0  0  0  0  0
   -4.5810    2.1455    0.3299 C   0  0  0  0  0  0  0  0  0  0  0  0
   -3.3464    1.8195   -0.0501 C   0  0  0  0  0  0  0  0  0  0  0  0
   -3.0215    0.3859   -0.2028 C   0  0  0  0  0  0  0  0  0  0  0  0
   -1.6983   -0.0554   -0.2615 C   0  0  0  0  0  0  0  0  0  0  0  0
   -1.4473   -1.4293   -0.4070 C   0  0  0  0  0  0  0  0  0  0  0  0
   -2.5093   -2.3397   -0.4902 C   0  0  0  0  0  0  0  0  0  0  0  0
   -3.8166   -1.8866   -0.4311 C   0  0  0  0  0  0  0  0  0  0  0  0
   -4.0771   -0.5333   -0.2891 C   0  0  0  0  0  0  0  0  0  0  0  0
   -5.3517   -0.0699   -0.2302 O   0  0  0  0  0  0  0  0  0  0  0  0
   -2.2567   -3.6655   -0.6291 O   0  0  0  0  0  0  0  0  0  0  0  0
   -0.0473   -1.8852   -0.4700 C   0  0  0  0  0  0  0  0  0  0  0  0
    0.2323   -3.0668   -0.5949 O   0  0  0  0  0  0  0  0  0  0  0  0
    0.9581   -0.8953   -0.3800 C   0  0  0  0  0  0  0  0  0  0  0  0
    0.5987    0.4099   -0.2398 C   0  0  0  0  0  0  0  0  0  0  0  0
   -0.6755    0.8173   -0.1810 O   0  0  0  0  0  0  0  0  0  0  0  0
    1.6631    1.4237   -0.1487 C   0  0  0  0  0  0  0  0  0  0  0  0
    2.4904    1.6777   -1.2532 C   0  0  0  0  0  0  0  0  0  0  0  0
    3.4881    2.6325   -1.1593 C   0  0  0  0  0  0  0  0  0  0  0  0
    3.6683    3.3344    0.0235 C   0  0  0  0  0  0  0  0  0  0  0  0
    2.8493    3.0834    1.1199 C   0  0  0  0  0  0  0  0  0  0  0  0
    1.8499    2.1411    1.0371 C   0  0  0  0  0  0  0  0  0  0  0  0
    4.6483    4.2697    0.1118 O   0  0  0  0  0  0  0  0  0  0  0  0
    2.3132    0.9895   -2.4094 O   0  0  0  0  0  0  0  0  0  0  0  0
    2.4136   -1.2816   -0.4382 C   0  0  0  0  0  0  0  0  0  0  0  0
    2.8936   -1.6733    0.9608 C   0  0  0  0  0  0  0  0  0  0  0  0
    4.3713   -2.0655    0.9017 C   0  0  0  0  0  0  0  0  0  0  0  0
    4.8188   -2.5756    2.2730 C   0  0  0  0  0  0  0  0  0  0  0  0
    4.5649   -3.1685   -0.1408 C   0  0  0  0  0  0  0  0  0  0  0  0
    5.1527   -0.9253    0.5394 O   0  0  0  0  0  0  0  0  0  0  0  0
   -6.9971    1.6056    0.3213 C   0  0  0  0  0  0  0  0  0  0  0  0
   -5.7026    1.5029    2.7086 H   0  0  0  0  0  0  0  0  0  0  0  0
   -6.2318   -0.1392    2.2709 H   0  0  0  0  0  0  0  0  0  0  0  0
   -4.4985    0.2654    2.2762 H   0  0  0  0  0  0  0  0  0  0  0  0
   -4.8553    3.1840    0.4422 H   0  0  0  0  0  0  0  0  0  0  0  0
   -2.6047    2.5808   -0.2414 H   0  0  0  0  0  0  0  0  0  0  0  0
   -4.6342   -2.5892   -0.4963 H   0  0  0  0  0  0  0  0  0  0  0  0
   -2.1748   -4.1402    0.2093 H   0  0  0  0  0  0  0  0  0  0  0  0
    4.1268    2.8309   -2.0072 H   0  0  0  0  0  0  0  0  0  0  0  0
    2.9955    3.6334    2.0378 H   0  0  0  0  0  0  0  0  0  0  0  0
    1.2159    1.9494    1.8902 H   0  0  0  0  0  0  0  0  0  0  0  0
    4.3673    5.1591   -0.1434 H   0  0  0  0  0  0  0  0  0  0  0  0
    1.7593    1.4456   -3.0577 H   0  0  0  0  0  0  0  0  0  0  0  0
    2.5383   -2.1268   -1.1150 H   0  0  0  0  0  0  0  0  0  0  0  0
    2.9995   -0.4367   -0.8001 H   0  0  0  0  0  0  0  0  0  0  0  0
    2.7688   -0.8281    1.6376 H   0  0  0  0  0  0  0  0  0  0  0  0
    2.3076   -2.5181    1.3227 H   0  0  0  0  0  0  0  0  0  0  0  0
    4.2228   -3.4454    2.5493 H   0  0  0  0  0  0  0  0  0  0  0  0
    5.8715   -2.8550    2.2309 H   0  0  0  0  0  0  0  0  0  0  0  0
    4.6809   -1.7898    3.0157 H   0  0  0  0  0  0  0  0  0  0  0  0
    4.2461   -2.8052   -1.1177 H   0  0  0  0  0  0  0  0  0  0  0  0
    5.6176   -3.4480   -0.1829 H   0  0  0  0  0  0  0  0  0  0  0  0
    3.9689   -4.0383    0.1356 H   0  0  0  0  0  0  0  0  0  0  0  0
    6.1019   -1.1008    0.4827 H   0  0  0  0  0  0  0  0  0  0  0  0
   -7.1896    2.4665    0.9615 H   0  0  0  0  0  0  0  0  0  0  0  0
   -7.0678    1.9071   -0.7238 H   0  0  0  0  0  0  0  0  0  0  0  0
   -7.7338    0.8287    0.5259 H   0  0  0  0  0  0  0  0  0  0  0  0
  1  2  1  0  0  0  0
  2  3  1  0  0  0  0
  3  4  2  0  0  0  0
  4  5  1  0  0  0  0
  5  6  2  0  0  0  0
  6  7  1  0  0  0  0
  7  8  2  0  0  0  0
  8  9  1  0  0  0  0
  9 10  2  0  0  0  0
  5 10  1  0  0  0  0
 10 11  1  0  0  0  0
  2 11  1  0  0  0  0
  8 12  1  0  0  0  0
  7 13  1  0  0  0  0
 13 14  2  0  0  0  0
 13 15  1  0  0  0  0
 15 16  2  0  0  0  0
 16 17  1  0  0  0  0
  6 17  1  0  0  0  0
 16 18  1  0  0  0  0
 18 19  2  0  0  0  0
 19 20  1  0  0  0  0
 20 21  2  0  0  0  0
 21 22  1  0  0  0  0
 22 23  2  0  0  0  0
 18 23  1  0  0  0  0
 21 24  1  0  0  0  0
 19 25  1  0  0  0  0
 15 26  1  0  0  0  0
 26 27  1  0  0  0  0
 27 28  1  0  0  0  0
 28 29  1  0  0  0  0
 28 30  1  0  0  0  0
 28 31  1  0  0  0  0
  2 32  1  0  0  0  0
  1 33  1  0  0  0  0
  1 34  1  0  0  0  0
  1 35  1  0  0  0  0
  3 36  1  0  0  0  0
  4 37  1  0  0  0  0
  9 38  1  0  0  0  0
 12 39  1  0  0  0  0
 20 40  1  0  0  0  0
 22 41  1  0  0  0  0
 23 42  1  0  0  0  0
 24 43  1  0  0  0  0
 25 44  1  0  0  0  0
 26 45  1  0  0  0  0
 26 46  1  0  0  0  0
 27 47  1  0  0  0  0
 27 48  1  0  0  0  0
 29 49  1  0  0  0  0
 29 50  1  0  0  0  0
 29 51  1  0  0  0  0
 30 52  1  0  0  0  0
 30 53  1  0  0  0  0
 30 54  1  0  0  0  0
 31 55  1  0  0  0  0
 32 56  1  0  0  0  0
 32 57  1  0  0  0  0
 32 58  1  0  0  0  0
M  END
$$$$
