C25H24O6
APtclcactv06281817133D 0   0.00000     0.00000
 
 55 58  0  0  0  0  0  0  0  0999 V2000
   -5.6370   -3.2939    0.9771 C   0  0  0  0  0  0  0  0  0  0  0  0
   -5.6313   -2.7539   -0.4298 C   0  0  0  0  0  0  0  0  0  0  0  0
   -5.5978   -1.4604   -0.6348 C   0  0  0  0  0  0  0  0  0  0  0  0
   -5.4386   -0.5169    0.5295 C   0  0  0  0  0  0  0  0  0  0  0  0
   -4.2725    0.4031    0.2747 C   0  0  0  0  0  0  0  0  0  0  0  0
   -4.4727    1.6139   -0.3794 C   0  0  0  0  0  0  0  0  0  0  0  0
   -3.4133    2.4746   -0.6181 C   0  0  0  0  0  0  0  0  0  0  0  0
   -2.1323    2.1343   -0.2057 C   0  0  0  0  0  0  0  0  0  0  0  0
   -1.9286    0.9047    0.4468 C   0  0  0  0  0  0  0  0  0  0  0  0
   -3.0051    0.0452    0.6965 C   0  0  0  0  0  0  0  0  0  0  0  0
   -2.8048   -1.1337    1.3379 O   0  0  0  0  0  0  0  0  0  0  0  0
   -0.5569    0.5551    0.8533 C   0  0  0  0  0  0  0  0  0  0  0  0
   -0.3217   -0.3722    1.6092 O   0  0  0  0  0  0  0  0  0  0  0  0
    0.5157    1.3974    0.2877 C   0  0  0  0  0  0  0  0  0  0  0  0
    0.1623    2.5567   -0.3241 C   0  0  0  0  0  0  0  0  0  0  0  0
   -1.1011    2.9732   -0.4210 O   0  0  0  0  0  0  0  0  0  0  0  0
    1.9383    0.9891    0.3855 C   0  0  0  0  0  0  0  0  0  0  0  0
    2.6017    0.4904   -0.7396 C   0  0  0  0  0  0  0  0  0  0  0  0
    3.9380    0.1116   -0.6321 C   0  0  0  0  0  0  0  0  0  0  0  0
    4.6073    0.2309    0.5946 C   0  0  0  0  0  0  0  0  0  0  0  0
    3.9395    0.7252    1.7010 C   0  0  0  0  0  0  0  0  0  0  0  0
    2.6159    1.1078    1.5978 C   0  0  0  0  0  0  0  0  0  0  0  0
    5.9099   -0.1463    0.6682 O   0  0  0  0  0  0  0  0  0  0  0  0
    6.3158   -1.2457   -0.1480 C   0  0  0  0  0  0  0  0  0  0  0  0
    5.8259   -1.0653   -1.5605 C   0  0  0  0  0  0  0  0  0  0  0  0
    4.6839   -0.4208   -1.7922 C   0  0  0  0  0  0  0  0  0  0  0  0
    7.8432   -1.3348   -0.1513 C   0  0  0  0  0  0  0  0  0  0  0  0
    5.7369   -2.5406    0.4254 C   0  0  0  0  0  0  0  0  0  0  0  0
    1.9497    0.3761   -1.9255 O   0  0  0  0  0  0  0  0  0  0  0  0
   -5.7207    1.9565   -0.7891 O   0  0  0  0  0  0  0  0  0  0  0  0
   -5.6643   -3.7017   -1.6009 C   0  0  0  0  0  0  0  0  0  0  0  0
   -6.4627   -2.8502    1.5333 H   0  0  0  0  0  0  0  0  0  0  0  0
   -5.7576   -4.3769    0.9501 H   0  0  0  0  0  0  0  0  0  0  0  0
   -4.6948   -3.0454    1.4655 H   0  0  0  0  0  0  0  0  0  0  0  0
   -5.6842   -1.0703   -1.6381 H   0  0  0  0  0  0  0  0  0  0  0  0
   -6.3478    0.0727    0.6463 H   0  0  0  0  0  0  0  0  0  0  0  0
   -5.2575   -1.0896    1.4391 H   0  0  0  0  0  0  0  0  0  0  0  0
   -3.5845    3.4119   -1.1264 H   0  0  0  0  0  0  0  0  0  0  0  0
   -2.8851   -1.0767    2.2999 H   0  0  0  0  0  0  0  0  0  0  0  0
    0.9408    3.1706   -0.7524 H   0  0  0  0  0  0  0  0  0  0  0  0
    4.4551    0.8165    2.6456 H   0  0  0  0  0  0  0  0  0  0  0  0
    2.1000    1.4929    2.4649 H   0  0  0  0  0  0  0  0  0  0  0  0
    6.4009   -1.4585   -2.3858 H   0  0  0  0  0  0  0  0  0  0  0  0
    4.3132   -0.2911   -2.7982 H   0  0  0  0  0  0  0  0  0  0  0  0
    8.2006   -1.4848    0.8675 H   0  0  0  0  0  0  0  0  0  0  0  0
    8.1569   -2.1730   -0.7734 H   0  0  0  0  0  0  0  0  0  0  0  0
    8.2603   -0.4101   -0.5502 H   0  0  0  0  0  0  0  0  0  0  0  0
    4.6488   -2.4776    0.4386 H   0  0  0  0  0  0  0  0  0  0  0  0
    6.0446   -3.3823   -0.1951 H   0  0  0  0  0  0  0  0  0  0  0  0
    6.1048   -2.6845    1.4413 H   0  0  0  0  0  0  0  0  0  0  0  0
    2.0103    1.1624   -2.4851 H   0  0  0  0  0  0  0  0  0  0  0  0
   -6.2287    2.4509   -0.1315 H   0  0  0  0  0  0  0  0  0  0  0  0
   -6.6995   -3.9026   -1.8768 H   0  0  0  0  0  0  0  0  0  0  0  0
   -5.1435   -3.2526   -2.4466 H   0  0  0  0  0  0  0  0  0  0  0  0
   -5.1737   -4.6356   -1.3264 H   0  0  0  0  0  0  0  0  0  0  0  0
  1  2  1  0  0  0  0
  2  3  2  0  0  0  0
  3  4  1  0  0  0  0
  4  5  1  0  0  0  0
  5  6  2  0  0  0  0
  6  7  1  0  0  0  0
  7  8  2  0  0  0  0
  8  9  1  0  0  0  0
  9 10  2  0  0  0  0
  5 10  1  0  0  0  0
 10 11  1  0  0  0  0
  9 12  1  0  0  0  0
 12 13  2  0  0  0  0
 12 14  1  0  0  0  0
 14 15  2  0  0  0  0
 15 16  1  0  0  0  0
  8 16  1  0  0  0  0
 14 17  1  0  0  0  0
 17 18  2  0  0  0  0
 18 19  1  0  0  0  0
 19 20  2  0  0  0  0
 20 21  1  0  0  0  0
 21 22  2  0  0  0  0
 17 22  1  0  0  0  0
 20 23  1  0  0  0  0
 23 24  1  0  0  0  0
 24 25  1  0  0  0  0
 25 26  2  0  0  0  0
 19 26  1  0  0  0  0
 24 27  1  0  0  0  0
 24 28  1  0  0  0  0
 18 29  1  0  0  0  0
  6 30  1  0  0  0  0
  2 31  1  0  0  0  0
  1 32  1  0  0  0  0
  1 33  1  0  0  0  0
  1 34  1  0  0  0  0
  3 35  1  0  0  0  0
  4 36  1  0  0  0  0
  4 37  1  0  0  0  0
  7 38  1  0  0  0  0
 11 39  1  0  0  0  0
 15 40  1  0  0  0  0
 21 41  1  0  0  0  0
 22 42  1  0  0  0  0
 25 43  1  0  0  0  0
 26 44  1  0  0  0  0
 27 45  1  0  0  0  0
 27 46  1  0  0  0  0
 27 47  1  0  0  0  0
 28 48  1  0  0  0  0
 28 49  1  0  0  0  0
 28 50  1  0  0  0  0
 29 51  1  0  0  0  0
 30 52  1  0  0  0  0
 31 53  1  0  0  0  0
 31 54  1  0  0  0  0
 31 55  1  0  0  0  0
M  END
$$$$
