C20H16O6
APtclcactv06281817133D 0   0.00000     0.00000
 
 42 45  0  0  0  0  0  0  0  0999 V2000
   -5.1885    1.7954   -0.7918 C   0  0  0  0  0  0  0  0  0  0  0  0
   -5.4771    0.3446   -0.4008 C   0  0  0  0  0  0  0  0  0  0  0  0
   -4.9781   -0.5712   -1.4871 C   0  0  0  0  0  0  0  0  0  0  0  0
   -3.7259   -1.0230   -1.4543 C   0  0  0  0  0  0  0  0  0  0  0  0
   -2.8664   -0.6086   -0.3251 C   0  0  0  0  0  0  0  0  0  0  0  0
   -3.4771   -0.0678    0.8158 C   0  0  0  0  0  0  0  0  0  0  0  0
   -4.8296    0.0529    0.8382 O   0  0  0  0  0  0  0  0  0  0  0  0
   -2.7028    0.3307    1.8909 C   0  0  0  0  0  0  0  0  0  0  0  0
   -1.3285    0.1973    1.8423 C   0  0  0  0  0  0  0  0  0  0  0  0
   -0.7097   -0.3386    0.7142 C   0  0  0  0  0  0  0  0  0  0  0  0
   -1.4811   -0.7461   -0.3783 C   0  0  0  0  0  0  0  0  0  0  0  0
   -0.8858   -1.2696   -1.4810 O   0  0  0  0  0  0  0  0  0  0  0  0
    0.7666   -0.4770    0.6729 C   0  0  0  0  0  0  0  0  0  0  0  0
    1.3587   -1.6898    0.8199 C   0  0  0  0  0  0  0  0  0  0  0  0
    2.6814   -1.8606    0.8067 O   0  0  0  0  0  0  0  0  0  0  0  0
    3.5053   -0.9058    0.3345 C   0  0  0  0  0  0  0  0  0  0  0  0
    4.8228   -1.2073    0.0184 C   0  0  0  0  0  0  0  0  0  0  0  0
    5.6683   -0.2177   -0.4569 C   0  0  0  0  0  0  0  0  0  0  0  0
    5.2151    1.0865   -0.6224 C   0  0  0  0  0  0  0  0  0  0  0  0
    3.9055    1.4086   -0.3164 C   0  0  0  0  0  0  0  0  0  0  0  0
    3.0438    0.4111    0.1550 C   0  0  0  0  0  0  0  0  0  0  0  0
    1.6341    0.6993    0.4647 C   0  0  0  0  0  0  0  0  0  0  0  0
    1.2093    1.8391    0.5488 O   0  0  0  0  0  0  0  0  0  0  0  0
    3.4593    2.6806   -0.4721 O   0  0  0  0  0  0  0  0  0  0  0  0
    6.9544   -0.5249   -0.7641 O   0  0  0  0  0  0  0  0  0  0  0  0
   -6.9867    0.1571   -0.2367 C   0  0  0  0  0  0  0  0  0  0  0  0
   -5.6970    2.0276   -1.7275 H   0  0  0  0  0  0  0  0  0  0  0  0
   -5.5483    2.4615   -0.0076 H   0  0  0  0  0  0  0  0  0  0  0  0
   -4.1144    1.9306   -0.9187 H   0  0  0  0  0  0  0  0  0  0  0  0
   -5.6360   -0.8619   -2.2928 H   0  0  0  0  0  0  0  0  0  0  0  0
   -3.3493   -1.6735   -2.2297 H   0  0  0  0  0  0  0  0  0  0  0  0
   -3.1733    0.7471    2.7693 H   0  0  0  0  0  0  0  0  0  0  0  0
   -0.7293    0.5109    2.6844 H   0  0  0  0  0  0  0  0  0  0  0  0
   -0.7794   -2.2303   -1.4520 H   0  0  0  0  0  0  0  0  0  0  0  0
    0.7292   -2.5570    0.9541 H   0  0  0  0  0  0  0  0  0  0  0  0
    5.1898   -2.2153    0.1435 H   0  0  0  0  0  0  0  0  0  0  0  0
    5.8864    1.8486   -0.9899 H   0  0  0  0  0  0  0  0  0  0  0  0
    3.0904    2.8636   -1.3471 H   0  0  0  0  0  0  0  0  0  0  0  0
    7.0839   -0.8038   -1.6809 H   0  0  0  0  0  0  0  0  0  0  0  0
   -7.4859    0.3881   -1.1778 H   0  0  0  0  0  0  0  0  0  0  0  0
   -7.1964   -0.8756    0.0419 H   0  0  0  0  0  0  0  0  0  0  0  0
   -7.3532    0.8253    0.5425 H   0  0  0  0  0  0  0  0  0  0  0  0
  1  2  1  0  0  0  0
  2  3  1  0  0  0  0
  3  4  2  0  0  0  0
  4  5  1  0  0  0  0
  5  6  2  0  0  0  0
  6  7  1  0  0  0  0
  2  7  1  0  0  0  0
  6  8  1  0  0  0  0
  8  9  2  0  0  0  0
  9 10  1  0  0  0  0
 10 11  2  0  0  0  0
  5 11  1  0  0  0  0
 11 12  1  0  0  0  0
 10 13  1  0  0  0  0
 13 14  2  0  0  0  0
 14 15  1  0  0  0  0
 15 16  1  0  0  0  0
 16 17  2  0  0  0  0
 17 18  1  0  0  0  0
 18 19  2  0  0  0  0
 19 20  1  0  0  0  0
 20 21  2  0  0  0  0
 16 21  1  0  0  0  0
 21 22  1  0  0  0  0
 13 22  1  0  0  0  0
 22 23  2  0  0  0  0
 20 24  1  0  0  0  0
 18 25  1  0  0  0  0
  2 26  1  0  0  0  0
  1 27  1  0  0  0  0
  1 28  1  0  0  0  0
  1 29  1  0  0  0  0
  3 30  1  0  0  0  0
  4 31  1  0  0  0  0
  8 32  1  0  0  0  0
  9 33  1  0  0  0  0
 12 34  1  0  0  0  0
 14 35  1  0  0  0  0
 17 36  1  0  0  0  0
 19 37  1  0  0  0  0
 24 38  1  0  0  0  0
 25 39  1  0  0  0  0
 26 40  1  0  0  0  0
 26 41  1  0  0  0  0
 26 42  1  0  0  0  0
M  END
$$$$
