C31H20O10
APtclcactv06281817133D 0   0.00000     0.00000
 
 61 66  0  0  0  0  0  0  0  0999 V2000
    7.0990   -0.1182   -4.1076 C   0  0  0  0  0  0  0  0  0  0  0  0
    5.7862   -0.4307   -3.6374 O   0  0  0  0  0  0  0  0  0  0  0  0
    5.5362   -0.2168   -2.3203 C   0  0  0  0  0  0  0  0  0  0  0  0
    6.5415    0.2850   -1.5014 C   0  0  0  0  0  0  0  0  0  0  0  0
    6.2977    0.5067   -0.1583 C   0  0  0  0  0  0  0  0  0  0  0  0
    5.0320    0.2223    0.3688 C   0  0  0  0  0  0  0  0  0  0  0  0
    4.0172   -0.2846   -0.4616 C   0  0  0  0  0  0  0  0  0  0  0  0
    4.2791   -0.4956   -1.8060 C   0  0  0  0  0  0  0  0  0  0  0  0
    2.8006   -0.5564    0.0563 O   0  0  0  0  0  0  0  0  0  0  0  0
    2.5132   -0.3601    1.3529 C   0  0  0  0  0  0  0  0  0  0  0  0
    3.4240    0.1264    2.2382 C   0  0  0  0  0  0  0  0  0  0  0  0
    4.7295    0.4428    1.7931 C   0  0  0  0  0  0  0  0  0  0  0  0
    5.5720    0.8808    2.5598 O   0  0  0  0  0  0  0  0  0  0  0  0
    1.1574   -0.6840    1.8359 C   0  0  0  0  0  0  0  0  0  0  0  0
    0.2013   -1.1844    0.9507 C   0  0  0  0  0  0  0  0  0  0  0  0
   -1.0739   -1.4875    1.4115 C   0  0  0  0  0  0  0  0  0  0  0  0
   -1.3927   -1.2895    2.7608 C   0  0  0  0  0  0  0  0  0  0  0  0
   -0.4373   -0.7912    3.6350 C   0  0  0  0  0  0  0  0  0  0  0  0
    0.8304   -0.4954    3.1824 C   0  0  0  0  0  0  0  0  0  0  0  0
   -2.6378   -1.5848    3.2138 O   0  0  0  0  0  0  0  0  0  0  0  0
   -2.0948   -2.0189    0.4771 C   0  0  0  0  0  0  0  0  0  0  0  0
   -2.2194   -3.3974    0.2850 C   0  0  0  0  0  0  0  0  0  0  0  0
   -3.1727   -3.9038   -0.5882 C   0  0  0  0  0  0  0  0  0  0  0  0
   -4.0114   -3.0477   -1.2789 C   0  0  0  0  0  0  0  0  0  0  0  0
   -3.8971   -1.6631   -1.0948 C   0  0  0  0  0  0  0  0  0  0  0  0
   -2.9397   -1.1431   -0.2101 C   0  0  0  0  0  0  0  0  0  0  0  0
   -2.8382    0.1912   -0.0391 O   0  0  0  0  0  0  0  0  0  0  0  0
   -3.6277    1.0598   -0.6905 C   0  0  0  0  0  0  0  0  0  0  0  0
   -4.5863    0.6587   -1.5685 C   0  0  0  0  0  0  0  0  0  0  0  0
   -4.7737   -0.7221   -1.8133 C   0  0  0  0  0  0  0  0  0  0  0  0
   -5.6239   -1.1180   -2.5943 O   0  0  0  0  0  0  0  0  0  0  0  0
   -3.4495    2.5033   -0.4446 C   0  0  0  0  0  0  0  0  0  0  0  0
   -2.1651    3.0380   -0.3099 C   0  0  0  0  0  0  0  0  0  0  0  0
   -2.0033    4.3863   -0.0803 C   0  0  0  0  0  0  0  0  0  0  0  0
   -3.1147    5.2148    0.0179 C   0  0  0  0  0  0  0  0  0  0  0  0
   -4.3936    4.6874   -0.1154 C   0  0  0  0  0  0  0  0  0  0  0  0
   -4.5643    3.3412   -0.3513 C   0  0  0  0  0  0  0  0  0  0  0  0
   -2.9507    6.5432    0.2452 O   0  0  0  0  0  0  0  0  0  0  0  0
   -4.9412   -3.5467   -2.1320 O   0  0  0  0  0  0  0  0  0  0  0  0
   -1.4020   -4.2475    0.9566 O   0  0  0  0  0  0  0  0  0  0  0  0
    7.2778    0.9956    0.6429 O   0  0  0  0  0  0  0  0  0  0  0  0
    7.3034    0.9390   -3.9386 H   0  0  0  0  0  0  0  0  0  0  0  0
    7.8307   -0.7204   -3.5691 H   0  0  0  0  0  0  0  0  0  0  0  0
    7.1641   -0.3350   -5.1739 H   0  0  0  0  0  0  0  0  0  0  0  0
    7.5153    0.5020   -1.9151 H   0  0  0  0  0  0  0  0  0  0  0  0
    3.5058   -0.8844   -2.4520 H   0  0  0  0  0  0  0  0  0  0  0  0
    3.1526    0.2707    3.2735 H   0  0  0  0  0  0  0  0  0  0  0  0
    0.4518   -1.3351   -0.0890 H   0  0  0  0  0  0  0  0  0  0  0  0
   -0.6865   -0.6394    4.6748 H   0  0  0  0  0  0  0  0  0  0  0  0
    1.5702   -0.1082    3.8673 H   0  0  0  0  0  0  0  0  0  0  0  0
   -2.7367   -2.4940    3.5278 H   0  0  0  0  0  0  0  0  0  0  0  0
   -3.2596   -4.9711   -0.7290 H   0  0  0  0  0  0  0  0  0  0  0  0
   -5.2022    1.3889   -2.0725 H   0  0  0  0  0  0  0  0  0  0  0  0
   -1.3009    2.3947   -0.3854 H   0  0  0  0  0  0  0  0  0  0  0  0
   -1.0113    4.8003    0.0239 H   0  0  0  0  0  0  0  0  0  0  0  0
   -5.2546    5.3348   -0.0384 H   0  0  0  0  0  0  0  0  0  0  0  0
   -5.5585    2.9322   -0.4547 H   0  0  0  0  0  0  0  0  0  0  0  0
   -2.8720    7.0731   -0.5598 H   0  0  0  0  0  0  0  0  0  0  0  0
   -5.7957   -3.7312   -1.7185 H   0  0  0  0  0  0  0  0  0  0  0  0
   -1.7495   -4.5333    1.8126 H   0  0  0  0  0  0  0  0  0  0  0  0
    7.3008    1.9611    0.6918 H   0  0  0  0  0  0  0  0  0  0  0  0
  1  2  1  0  0  0  0
  2  3  1  0  0  0  0
  3  4  2  0  0  0  0
  4  5  1  0  0  0  0
  5  6  2  0  0  0  0
  6  7  1  0  0  0  0
  7  8  2  0  0  0  0
  3  8  1  0  0  0  0
  7  9  1  0  0  0  0
  9 10  1  0  0  0  0
 10 11  2  0  0  0  0
 11 12  1  0  0  0  0
  6 12  1  0  0  0  0
 12 13  2  0  0  0  0
 10 14  1  0  0  0  0
 14 15  2  0  0  0  0
 15 16  1  0  0  0  0
 16 17  2  0  0  0  0
 17 18  1  0  0  0  0
 18 19  2  0  0  0  0
 14 19  1  0  0  0  0
 17 20  1  0  0  0  0
 16 21  1  0  0  0  0
 21 22  2  0  0  0  0
 22 23  1  0  0  0  0
 23 24  2  0  0  0  0
 24 25  1  0  0  0  0
 25 26  2  0  0  0  0
 21 26  1  0  0  0  0
 26 27  1  0  0  0  0
 27 28  1  0  0  0  0
 28 29  2  0  0  0  0
 29 30  1  0  0  0  0
 25 30  1  0  0  0  0
 30 31  2  0  0  0  0
 28 32  1  0  0  0  0
 32 33  2  0  0  0  0
 33 34  1  0  0  0  0
 34 35  2  0  0  0  0
 35 36  1  0  0  0  0
 36 37  2  0  0  0  0
 32 37  1  0  0  0  0
 35 38  1  0  0  0  0
 24 39  1  0  0  0  0
 22 40  1  0  0  0  0
  5 41  1  0  0  0  0
  1 42  1  0  0  0  0
  1 43  1  0  0  0  0
  1 44  1  0  0  0  0
  4 45  1  0  0  0  0
  8 46  1  0  0  0  0
 11 47  1  0  0  0  0
 15 48  1  0  0  0  0
 18 49  1  0  0  0  0
 19 50  1  0  0  0  0
 20 51  1  0  0  0  0
 23 52  1  0  0  0  0
 29 53  1  0  0  0  0
 33 54  1  0  0  0  0
 34 55  1  0  0  0  0
 36 56  1  0  0  0  0
 37 57  1  0  0  0  0
 38 58  1  0  0  0  0
 39 59  1  0  0  0  0
 40 60  1  0  0  0  0
 41 61  1  0  0  0  0
M  END
$$$$
