C16H10O6
APtclcactv06281817133D 0   0.00000     0.00000
 
 32 35  0  0  0  0  0  0  0  0999 V2000
    6.2838    0.6403   -0.0136 C   0  0  0  0  0  0  0  0  0  0  0  0
    5.1427    1.5006   -0.0064 O   0  0  0  0  0  0  0  0  0  0  0  0
    3.9210    0.9051   -0.0060 C   0  0  0  0  0  0  0  0  0  0  0  0
    3.8304   -0.4819   -0.0124 C   0  0  0  0  0  0  0  0  0  0  0  0
    2.5908   -1.0952   -0.0116 C   0  0  0  0  0  0  0  0  0  0  0  0
    1.4329   -0.3147   -0.0043 C   0  0  0  0  0  0  0  0  0  0  0  0
    1.5243    1.0853    0.0022 C   0  0  0  0  0  0  0  0  0  0  0  0
    2.7776    1.6849    0.0065 C   0  0  0  0  0  0  0  0  0  0  0  0
    0.2713    1.5909    0.0081 O   0  0  0  0  0  0  0  0  0  0  0  0
   -0.6515    0.6169    0.0058 C   0  0  0  0  0  0  0  0  0  0  0  0
   -0.0076   -0.6173   -0.0020 C   0  0  0  0  0  0  0  0  0  0  0  0
   -0.7697   -1.8055   -0.0064 C   0  0  0  0  0  0  0  0  0  0  0  0
   -0.1985   -2.8809   -0.0127 O   0  0  0  0  0  0  0  0  0  0  0  0
   -2.1127   -1.7733   -0.0034 O   0  0  0  0  0  0  0  0  0  0  0  0
   -2.8011   -0.6108    0.0041 C   0  0  0  0  0  0  0  0  0  0  0  0
   -2.1200    0.6188    0.0098 C   0  0  0  0  0  0  0  0  0  0  0  0
   -2.8369    1.8185    0.0167 C   0  0  0  0  0  0  0  0  0  0  0  0
   -4.2024    1.7943    0.0179 C   0  0  0  0  0  0  0  0  0  0  0  0
   -4.8843    0.5801    0.0122 C   0  0  0  0  0  0  0  0  0  0  0  0
   -4.1887   -0.6175    0.0071 C   0  0  0  0  0  0  0  0  0  0  0  0
   -6.2422    0.5703    0.0139 O   0  0  0  0  0  0  0  0  0  0  0  0
    2.5001   -2.4509   -0.0183 O   0  0  0  0  0  0  0  0  0  0  0  0
    6.2669    0.0070    0.8734 H   0  0  0  0  0  0  0  0  0  0  0  0
    6.2621    0.0156   -0.9065 H   0  0  0  0  0  0  0  0  0  0  0  0
    7.1926    1.2421   -0.0131 H   0  0  0  0  0  0  0  0  0  0  0  0
    4.7288   -1.0812   -0.0184 H   0  0  0  0  0  0  0  0  0  0  0  0
    2.8597    2.7617    0.0115 H   0  0  0  0  0  0  0  0  0  0  0  0
   -2.3122    2.7625    0.0215 H   0  0  0  0  0  0  0  0  0  0  0  0
   -4.7562    2.7215    0.0236 H   0  0  0  0  0  0  0  0  0  0  0  0
   -4.7253   -1.5547    0.0028 H   0  0  0  0  0  0  0  0  0  0  0  0
   -6.6366    0.5722   -0.8690 H   0  0  0  0  0  0  0  0  0  0  0  0
    2.4766   -2.8479    0.8631 H   0  0  0  0  0  0  0  0  0  0  0  0
  1  2  1  0  0  0  0
  2  3  1  0  0  0  0
  3  4  2  0  0  0  0
  4  5  1  0  0  0  0
  5  6  2  0  0  0  0
  6  7  1  0  0  0  0
  7  8  2  0  0  0  0
  3  8  1  0  0  0  0
  7  9  1  0  0  0  0
  9 10  1  0  0  0  0
 10 11  2  0  0  0  0
  6 11  1  0  0  0  0
 11 12  1  0  0  0  0
 12 13  2  0  0  0  0
 12 14  1  0  0  0  0
 14 15  1  0  0  0  0
 15 16  2  0  0  0  0
 10 16  1  0  0  0  0
 16 17  1  0  0  0  0
 17 18  2  0  0  0  0
 18 19  1  0  0  0  0
 19 20  2  0  0  0  0
 15 20  1  0  0  0  0
 19 21  1  0  0  0  0
  5 22  1  0  0  0  0
  1 23  1  0  0  0  0
  1 24  1  0  0  0  0
  1 25  1  0  0  0  0
  4 26  1  0  0  0  0
  8 27  1  0  0  0  0
 17 28  1  0  0  0  0
 18 29  1  0  0  0  0
 20 30  1  0  0  0  0
 21 31  1  0  0  0  0
 22 32  1  0  0  0  0
M  END
$$$$
