C20H19NO5
APtclcactv06281817133D 0   0.00000     0.00000
 
 45 48  0  0  0  0  0  0  0  0999 V2000
    5.4880    1.7446   -0.8454 C   0  0  0  0  0  0  0  0  0  0  0  0
    4.2926    1.1561   -0.0920 C   0  0  0  0  0  0  0  0  0  0  0  0
    3.1613    2.1536   -0.1227 C   0  0  0  0  0  0  0  0  0  0  0  0
    1.9054    1.7147   -0.1286 C   0  0  0  0  0  0  0  0  0  0  0  0
    1.6433    0.2619   -0.1064 C   0  0  0  0  0  0  0  0  0  0  0  0
    0.3951   -0.2664    0.2002 C   0  0  0  0  0  0  0  0  0  0  0  0
    0.1936   -1.6640    0.0802 C   0  0  0  0  0  0  0  0  0  0  0  0
    1.2747   -2.5139   -0.1782 C   0  0  0  0  0  0  0  0  0  0  0  0
    2.5266   -1.9760   -0.4199 C   0  0  0  0  0  0  0  0  0  0  0  0
    2.7127   -0.6016   -0.4052 C   0  0  0  0  0  0  0  0  0  0  0  0
    3.9362   -0.0891   -0.6924 O   0  0  0  0  0  0  0  0  0  0  0  0
    1.1076   -3.8599   -0.1947 O   0  0  0  0  0  0  0  0  0  0  0  0
   -1.1793   -2.1805    0.2042 C   0  0  0  0  0  0  0  0  0  0  0  0
   -1.4150   -3.3627    0.3673 O   0  0  0  0  0  0  0  0  0  0  0  0
   -2.2697   -1.1922    0.0864 C   0  0  0  0  0  0  0  0  0  0  0  0
   -1.9535    0.1670    0.3085 C   0  0  0  0  0  0  0  0  0  0  0  0
   -0.6616    0.4619    0.7047 N   0  0  0  0  0  0  0  0  0  0  0  0
   -0.4322    1.4675    1.7415 C   0  0  0  0  0  0  0  0  0  0  0  0
   -2.9392    1.1251    0.1256 C   0  0  0  0  0  0  0  0  0  0  0  0
   -4.2307    0.7267   -0.2069 C   0  0  0  0  0  0  0  0  0  0  0  0
   -4.5401   -0.6194   -0.3725 C   0  0  0  0  0  0  0  0  0  0  0  0
   -3.5711   -1.5729   -0.2329 C   0  0  0  0  0  0  0  0  0  0  0  0
   -5.1970    1.6673   -0.3719 O   0  0  0  0  0  0  0  0  0  0  0  0
   -2.6768    2.4563    0.2376 O   0  0  0  0  0  0  0  0  0  0  0  0
   -2.2733    3.1402   -0.9505 C   0  0  0  0  0  0  0  0  0  0  0  0
    4.7008    0.9116    1.3619 C   0  0  0  0  0  0  0  0  0  0  0  0
    5.7995    2.6720   -0.3648 H   0  0  0  0  0  0  0  0  0  0  0  0
    6.3132    1.0326   -0.8305 H   0  0  0  0  0  0  0  0  0  0  0  0
    5.2025    1.9484   -1.8774 H   0  0  0  0  0  0  0  0  0  0  0  0
    3.3692    3.2139   -0.1400 H   0  0  0  0  0  0  0  0  0  0  0  0
    1.0916    2.4253   -0.1810 H   0  0  0  0  0  0  0  0  0  0  0  0
    3.3626   -2.6298   -0.6211 H   0  0  0  0  0  0  0  0  0  0  0  0
    0.8786   -4.2173   -1.0636 H   0  0  0  0  0  0  0  0  0  0  0  0
   -1.3887    1.8688    2.0764 H   0  0  0  0  0  0  0  0  0  0  0  0
    0.0846    1.0089    2.5845 H   0  0  0  0  0  0  0  0  0  0  0  0
    0.1785    2.2744    1.3363 H   0  0  0  0  0  0  0  0  0  0  0  0
   -5.5509   -0.9139   -0.6128 H   0  0  0  0  0  0  0  0  0  0  0  0
   -3.8172   -2.6156   -0.3697 H   0  0  0  0  0  0  0  0  0  0  0  0
   -5.2738    1.9977   -1.2774 H   0  0  0  0  0  0  0  0  0  0  0  0
   -1.3565    2.6923   -1.3340 H   0  0  0  0  0  0  0  0  0  0  0  0
   -3.0592    3.0587   -1.7013 H   0  0  0  0  0  0  0  0  0  0  0  0
   -2.0963    4.1913   -0.7223 H   0  0  0  0  0  0  0  0  0  0  0  0
    4.9983    1.8551    1.8193 H   0  0  0  0  0  0  0  0  0  0  0  0
    3.8574    0.4919    1.9103 H   0  0  0  0  0  0  0  0  0  0  0  0
    5.5373    0.2134    1.3919 H   0  0  0  0  0  0  0  0  0  0  0  0
  1  2  1  0  0  0  0
  2  3  1  0  0  0  0
  3  4  2  0  0  0  0
  4  5  1  0  0  0  0
  5  6  2  0  0  0  0
  6  7  1  0  0  0  0
  7  8  2  0  0  0  0
  8  9  1  0  0  0  0
  9 10  2  0  0  0  0
  5 10  1  0  0  0  0
 10 11  1  0  0  0  0
  2 11  1  0  0  0  0
  8 12  1  0  0  0  0
  7 13  1  0  0  0  0
 13 14  2  0  0  0  0
 13 15  1  0  0  0  0
 15 16  2  0  0  0  0
 16 17  1  0  0  0  0
  6 17  1  0  0  0  0
 17 18  1  0  0  0  0
 16 19  1  0  0  0  0
 19 20  2  0  0  0  0
 20 21  1  0  0  0  0
 21 22  2  0  0  0  0
 15 22  1  0  0  0  0
 20 23  1  0  0  0  0
 19 24  1  0  0  0  0
 24 25  1  0  0  0  0
  2 26  1  0  0  0  0
  1 27  1  0  0  0  0
  1 28  1  0  0  0  0
  1 29  1  0  0  0  0
  3 30  1  0  0  0  0
  4 31  1  0  0  0  0
  9 32  1  0  0  0  0
 12 33  1  0  0  0  0
 18 34  1  0  0  0  0
 18 35  1  0  0  0  0
 18 36  1  0  0  0  0
 21 37  1  0  0  0  0
 22 38  1  0  0  0  0
 23 39  1  0  0  0  0
 25 40  1  0  0  0  0
 25 41  1  0  0  0  0
 25 42  1  0  0  0  0
 26 43  1  0  0  0  0
 26 44  1  0  0  0  0
 26 45  1  0  0  0  0
M  END
$$$$
