C26H28O16
APtclcactv06281817133D 0   0.00000     0.00000
 
 70 74  0  0  0  0  0  0  0  0999 V2000
   -5.4952   -0.5394   -1.4468 C   0  0  0  0  0  0  0  0  0  0  0  0
   -6.2358   -1.3149   -0.3542 C   0  0  0  0  0  0  0  0  0  0  0  0
   -5.2250   -2.1348    0.4536 C   0  0  0  0  0  0  0  0  0  0  0  0
   -4.1626   -1.1926    1.0279 C   0  0  0  0  0  0  0  0  0  0  0  0
   -3.5020   -0.4218   -0.1181 C   0  0  0  0  0  0  0  0  0  0  0  0
   -4.5012    0.2940   -0.8471 O   0  0  0  0  0  0  0  0  0  0  0  0
   -2.5488    0.4999    0.4146 O   0  0  0  0  0  0  0  0  0  0  0  0
   -1.7919    1.1929   -0.5798 C   0  0  0  0  0  0  0  0  0  0  0  0
   -1.4002    2.5768   -0.0528 C   0  0  0  0  0  0  0  0  0  0  0  0
   -0.5246    3.2789   -1.0952 C   0  0  0  0  0  0  0  0  0  0  0  0
    0.6959    2.4053   -1.3969 C   0  0  0  0  0  0  0  0  0  0  0  0
    0.2609    1.1228   -1.8531 O   0  0  0  0  0  0  0  0  0  0  0  0
   -0.5225    0.3999   -0.9014 C   0  0  0  0  0  0  0  0  0  0  0  0
    0.2364    0.2097    0.2944 O   0  0  0  0  0  0  0  0  0  0  0  0
    1.2403   -0.7081    0.2496 C   0  0  0  0  0  0  0  0  0  0  0  0
    2.5317   -0.3238    0.4523 C   0  0  0  0  0  0  0  0  0  0  0  0
    3.5564   -1.1930    0.4184 O   0  0  0  0  0  0  0  0  0  0  0  0
    3.3783   -2.5095    0.1809 C   0  0  0  0  0  0  0  0  0  0  0  0
    4.4590   -3.3775    0.1539 C   0  0  0  0  0  0  0  0  0  0  0  0
    4.2592   -4.7272   -0.0911 C   0  0  0  0  0  0  0  0  0  0  0  0
    2.9801   -5.2260   -0.3121 C   0  0  0  0  0  0  0  0  0  0  0  0
    1.8898   -4.3763   -0.2896 C   0  0  0  0  0  0  0  0  0  0  0  0
    2.0838   -3.0113   -0.0417 C   0  0  0  0  0  0  0  0  0  0  0  0
    0.9500   -2.0739   -0.0027 C   0  0  0  0  0  0  0  0  0  0  0  0
   -0.1951   -2.4558   -0.1850 O   0  0  0  0  0  0  0  0  0  0  0  0
    0.6407   -4.8610   -0.5060 O   0  0  0  0  0  0  0  0  0  0  0  0
    5.3229   -5.5704   -0.1158 O   0  0  0  0  0  0  0  0  0  0  0  0
    2.8157    1.0984    0.7184 C   0  0  0  0  0  0  0  0  0  0  0  0
    2.0658    1.7967    1.6691 C   0  0  0  0  0  0  0  0  0  0  0  0
    2.3361    3.1293    1.9145 C   0  0  0  0  0  0  0  0  0  0  0  0
    3.3542    3.7744    1.2145 C   0  0  0  0  0  0  0  0  0  0  0  0
    4.0990    3.0813    0.2705 C   0  0  0  0  0  0  0  0  0  0  0  0
    3.8392    1.7501    0.0247 C   0  0  0  0  0  0  0  0  0  0  0  0
    3.6179    5.0852    1.4566 O   0  0  0  0  0  0  0  0  0  0  0  0
    1.6085    3.8117    2.8388 O   0  0  0  0  0  0  0  0  0  0  0  0
    1.5448    3.0717   -2.4814 C   0  0  0  0  0  0  0  0  0  0  0  0
    2.7417    2.3168   -2.6804 O   0  0  0  0  0  0  0  0  0  0  0  0
   -1.2765    3.4792   -2.2937 O   0  0  0  0  0  0  0  0  0  0  0  0
   -2.5787    3.3505    0.1809 O   0  0  0  0  0  0  0  0  0  0  0  0
   -4.7786   -0.2716    1.9302 O   0  0  0  0  0  0  0  0  0  0  0  0
   -5.8975   -2.8047    1.5217 O   0  0  0  0  0  0  0  0  0  0  0  0
   -6.9068   -0.3971    0.5116 O   0  0  0  0  0  0  0  0  0  0  0  0
   -5.0171   -1.2412   -2.1302 H   0  0  0  0  0  0  0  0  0  0  0  0
   -6.2040    0.0789   -1.9976 H   0  0  0  0  0  0  0  0  0  0  0  0
   -6.9643   -1.9839   -0.8123 H   0  0  0  0  0  0  0  0  0  0  0  0
   -4.7485   -2.8688   -0.1963 H   0  0  0  0  0  0  0  0  0  0  0  0
   -3.4083   -1.7741    1.5581 H   0  0  0  0  0  0  0  0  0  0  0  0
   -2.9979   -1.1221   -0.7841 H   0  0  0  0  0  0  0  0  0  0  0  0
   -2.3920    1.3036   -1.4830 H   0  0  0  0  0  0  0  0  0  0  0  0
   -0.8432    2.4683    0.8778 H   0  0  0  0  0  0  0  0  0  0  0  0
   -0.1956    4.2422   -0.7053 H   0  0  0  0  0  0  0  0  0  0  0  0
    1.2907    2.2865   -0.4913 H   0  0  0  0  0  0  0  0  0  0  0  0
   -0.7954   -0.5701   -1.3171 H   0  0  0  0  0  0  0  0  0  0  0  0
    5.4572   -3.0018    0.3234 H   0  0  0  0  0  0  0  0  0  0  0  0
    2.8382   -6.2796   -0.5022 H   0  0  0  0  0  0  0  0  0  0  0  0
    0.1845   -5.1454    0.2978 H   0  0  0  0  0  0  0  0  0  0  0  0
    5.5376   -5.9581    0.7437 H   0  0  0  0  0  0  0  0  0  0  0  0
    1.2767    1.2959    2.2104 H   0  0  0  0  0  0  0  0  0  0  0  0
    4.8869    3.5851   -0.2697 H   0  0  0  0  0  0  0  0  0  0  0  0
    4.4204    1.2132   -0.7104 H   0  0  0  0  0  0  0  0  0  0  0  0
    4.2720    5.2326    2.1533 H   0  0  0  0  0  0  0  0  0  0  0  0
    1.9758    3.7766    3.7326 H   0  0  0  0  0  0  0  0  0  0  0  0
    0.9800    3.1096   -3.4129 H   0  0  0  0  0  0  0  0  0  0  0  0
    1.8015    4.0845   -2.1708 H   0  0  0  0  0  0  0  0  0  0  0  0
    3.3294    2.6821   -3.3559 H   0  0  0  0  0  0  0  0  0  0  0  0
   -0.7829    3.9201   -2.9987 H   0  0  0  0  0  0  0  0  0  0  0  0
   -2.4047    4.2406    0.5164 H   0  0  0  0  0  0  0  0  0  0  0  0
   -4.1631    0.3566    2.3322 H   0  0  0  0  0  0  0  0  0  0  0  0
   -6.5898   -3.4137    1.2301 H   0  0  0  0  0  0  0  0  0  0  0  0
   -7.5595    0.1593    0.0650 H   0  0  0  0  0  0  0  0  0  0  0  0
  1  2  1  0  0  0  0
  2  3  1  0  0  0  0
  3  4  1  0  0  0  0
  4  5  1  0  0  0  0
  5  6  1  0  0  0  0
  1  6  1  0  0  0  0
  5  7  1  0  0  0  0
  7  8  1  0  0  0  0
  8  9  1  0  0  0  0
  9 10  1  0  0  0  0
 10 11  1  0  0  0  0
 11 12  1  0  0  0  0
 12 13  1  0  0  0  0
  8 13  1  0  0  0  0
 13 14  1  0  0  0  0
 14 15  1  0  0  0  0
 15 16  2  0  0  0  0
 16 17  1  0  0  0  0
 17 18  1  0  0  0  0
 18 19  2  0  0  0  0
 19 20  1  0  0  0  0
 20 21  2  0  0  0  0
 21 22  1  0  0  0  0
 22 23  2  0  0  0  0
 18 23  1  0  0  0  0
 23 24  1  0  0  0  0
 15 24  1  0  0  0  0
 24 25  2  0  0  0  0
 22 26  1  0  0  0  0
 20 27  1  0  0  0  0
 16 28  1  0  0  0  0
 28 29  2  0  0  0  0
 29 30  1  0  0  0  0
 30 31  2  0  0  0  0
 31 32  1  0  0  0  0
 32 33  2  0  0  0  0
 28 33  1  0  0  0  0
 31 34  1  0  0  0  0
 30 35  1  0  0  0  0
 11 36  1  0  0  0  0
 36 37  1  0  0  0  0
 10 38  1  0  0  0  0
  9 39  1  0  0  0  0
  4 40  1  0  0  0  0
  3 41  1  0  0  0  0
  2 42  1  0  0  0  0
  1 43  1  0  0  0  0
  1 44  1  0  0  0  0
  2 45  1  0  0  0  0
  3 46  1  0  0  0  0
  4 47  1  0  0  0  0
  5 48  1  0  0  0  0
  8 49  1  0  0  0  0
  9 50  1  0  0  0  0
 10 51  1  0  0  0  0
 11 52  1  0  0  0  0
 13 53  1  0  0  0  0
 19 54  1  0  0  0  0
 21 55  1  0  0  0  0
 26 56  1  0  0  0  0
 27 57  1  0  0  0  0
 29 58  1  0  0  0  0
 32 59  1  0  0  0  0
 33 60  1  0  0  0  0
 34 61  1  0  0  0  0
 35 62  1  0  0  0  0
 36 63  1  0  0  0  0
 36 64  1  0  0  0  0
 37 65  1  0  0  0  0
 38 66  1  0  0  0  0
 39 67  1  0  0  0  0
 40 68  1  0  0  0  0
 41 69  1  0  0  0  0
 42 70  1  0  0  0  0
M  END
$$$$
