C17H14O7
APtclcactv06281817133D 0   0.00000     0.00000
 
 38 40  0  0  0  0  0  0  0  0999 V2000
    6.2380    0.9962   -1.1017 C   0  0  0  0  0  0  0  0  0  0  0  0
    5.5565   -0.0397   -0.3914 O   0  0  0  0  0  0  0  0  0  0  0  0
    4.2036    0.0562   -0.3086 C   0  0  0  0  0  0  0  0  0  0  0  0
    3.4777   -0.9210    0.3701 C   0  0  0  0  0  0  0  0  0  0  0  0
    2.1019   -0.8253    0.4554 C   0  0  0  0  0  0  0  0  0  0  0  0
    1.4414    0.2530   -0.1402 C   0  0  0  0  0  0  0  0  0  0  0  0
    2.1759    1.2292   -0.8192 C   0  0  0  0  0  0  0  0  0  0  0  0
    3.5486    1.1300   -0.8953 C   0  0  0  0  0  0  0  0  0  0  0  0
   -0.0266    0.3601   -0.0528 C   0  0  0  0  0  0  0  0  0  0  0  0
   -0.5771    1.5534    0.3073 C   0  0  0  0  0  0  0  0  0  0  0  0
   -1.9883    1.6728    0.3954 C   0  0  0  0  0  0  0  0  0  0  0  0
   -2.5169    2.7259    0.7145 O   0  0  0  0  0  0  0  0  0  0  0  0
   -2.7897    0.4778    0.0868 C   0  0  0  0  0  0  0  0  0  0  0  0
   -4.1890    0.5054    0.1478 C   0  0  0  0  0  0  0  0  0  0  0  0
   -4.9062   -0.6385   -0.1500 C   0  0  0  0  0  0  0  0  0  0  0  0
   -4.2417   -1.8068   -0.5069 C   0  0  0  0  0  0  0  0  0  0  0  0
   -2.8573   -1.8416   -0.5690 C   0  0  0  0  0  0  0  0  0  0  0  0
   -2.1204   -0.7048   -0.2748 C   0  0  0  0  0  0  0  0  0  0  0  0
   -0.7724   -0.7214   -0.3366 O   0  0  0  0  0  0  0  0  0  0  0  0
   -4.9559   -2.9243   -0.7969 O   0  0  0  0  0  0  0  0  0  0  0  0
   -4.8357    1.6462    0.4971 O   0  0  0  0  0  0  0  0  0  0  0  0
    0.2202    2.6219    0.5806 O   0  0  0  0  0  0  0  0  0  0  0  0
    4.1235   -1.9690    0.9481 O   0  0  0  0  0  0  0  0  0  0  0  0
    3.3169   -2.9333    1.6274 C   0  0  0  0  0  0  0  0  0  0  0  0
    7.3099    0.7986   -1.0923 H   0  0  0  0  0  0  0  0  0  0  0  0
    5.8828    1.0247   -2.1318 H   0  0  0  0  0  0  0  0  0  0  0  0
    6.0412    1.9553   -0.6227 H   0  0  0  0  0  0  0  0  0  0  0  0
    1.5382   -1.5820    0.9808 H   0  0  0  0  0  0  0  0  0  0  0  0
    1.6683    2.0633   -1.2808 H   0  0  0  0  0  0  0  0  0  0  0  0
    4.1150    1.8851   -1.4200 H   0  0  0  0  0  0  0  0  0  0  0  0
   -5.9852   -0.6247   -0.1051 H   0  0  0  0  0  0  0  0  0  0  0  0
   -2.3525   -2.7550   -0.8470 H   0  0  0  0  0  0  0  0  0  0  0  0
   -5.1951   -3.0071   -1.7302 H   0  0  0  0  0  0  0  0  0  0  0  0
   -5.0554    2.2185   -0.2507 H   0  0  0  0  0  0  0  0  0  0  0  0
   -0.2646    3.4217    0.8264 H   0  0  0  0  0  0  0  0  0  0  0  0
    2.6107   -3.3759    0.9249 H   0  0  0  0  0  0  0  0  0  0  0  0
    3.9551   -3.7140    2.0414 H   0  0  0  0  0  0  0  0  0  0  0  0
    2.7696   -2.4456    2.4341 H   0  0  0  0  0  0  0  0  0  0  0  0
  1  2  1  0  0  0  0
  2  3  1  0  0  0  0
  3  4  2  0  0  0  0
  4  5  1  0  0  0  0
  5  6  2  0  0  0  0
  6  7  1  0  0  0  0
  7  8  2  0  0  0  0
  3  8  1  0  0  0  0
  6  9  1  0  0  0  0
  9 10  2  0  0  0  0
 10 11  1  0  0  0  0
 11 12  2  0  0  0  0
 11 13  1  0  0  0  0
 13 14  2  0  0  0  0
 14 15  1  0  0  0  0
 15 16  2  0  0  0  0
 16 17  1  0  0  0  0
 17 18  2  0  0  0  0
 13 18  1  0  0  0  0
 18 19  1  0  0  0  0
  9 19  1  0  0  0  0
 16 20  1  0  0  0  0
 14 21  1  0  0  0  0
 10 22  1  0  0  0  0
  4 23  1  0  0  0  0
 23 24  1  0  0  0  0
  1 25  1  0  0  0  0
  1 26  1  0  0  0  0
  1 27  1  0  0  0  0
  5 28  1  0  0  0  0
  7 29  1  0  0  0  0
  8 30  1  0  0  0  0
 15 31  1  0  0  0  0
 17 32  1  0  0  0  0
 20 33  1  0  0  0  0
 21 34  1  0  0  0  0
 22 35  1  0  0  0  0
 24 36  1  0  0  0  0
 24 37  1  0  0  0  0
 24 38  1  0  0  0  0
M  END
$$$$
