C27H26O17
APtclcactv06281817143D 0   0.00000     0.00000
 
 70 74  0  0  0  0  0  0  0  0999 V2000
   -7.8974   -0.8153    0.1685 C   0  0  0  0  0  0  0  0  0  0  0  0
   -9.1760   -0.4724   -0.2114 C   0  0  0  0  0  0  0  0  0  0  0  0
   -9.3799    0.5575   -1.1220 C   0  0  0  0  0  0  0  0  0  0  0  0
   -8.2956    1.2456   -1.6531 C   0  0  0  0  0  0  0  0  0  0  0  0
   -7.0136    0.9091   -1.2790 C   0  0  0  0  0  0  0  0  0  0  0  0
   -6.8039   -0.1258   -0.3631 C   0  0  0  0  0  0  0  0  0  0  0  0
   -5.4327   -0.4895    0.0409 C   0  0  0  0  0  0  0  0  0  0  0  0
   -5.2604   -1.5009    0.9340 C   0  0  0  0  0  0  0  0  0  0  0  0
   -3.9523   -1.8642    1.3329 C   0  0  0  0  0  0  0  0  0  0  0  0
   -3.7608   -2.7667    2.1318 O   0  0  0  0  0  0  0  0  0  0  0  0
   -2.8310   -1.1109    0.7461 C   0  0  0  0  0  0  0  0  0  0  0  0
   -1.5036   -1.4026    1.0831 C   0  0  0  0  0  0  0  0  0  0  0  0
   -0.4791   -0.6721    0.5095 C   0  0  0  0  0  0  0  0  0  0  0  0
   -0.7671    0.3439   -0.3948 C   0  0  0  0  0  0  0  0  0  0  0  0
   -2.0792    0.6383   -0.7326 C   0  0  0  0  0  0  0  0  0  0  0  0
   -3.1194   -0.0831   -0.1685 C   0  0  0  0  0  0  0  0  0  0  0  0
   -4.4022    0.1868   -0.4911 O   0  0  0  0  0  0  0  0  0  0  0  0
    0.2462    1.0549   -0.9521 O   0  0  0  0  0  0  0  0  0  0  0  0
    1.5757    0.7038   -0.5631 C   0  0  0  0  0  0  0  0  0  0  0  0
    2.5795    1.5209   -1.3807 C   0  0  0  0  0  0  0  0  0  0  0  0
    2.3836    3.0091   -1.0754 C   0  0  0  0  0  0  0  0  0  0  0  0
    2.5405    3.2349    0.4315 C   0  0  0  0  0  0  0  0  0  0  0  0
    1.5382    2.3516    1.1791 C   0  0  0  0  0  0  0  0  0  0  0  0
    1.7552    0.9838    0.8266 O   0  0  0  0  0  0  0  0  0  0  0  0
    1.7266    2.5239    2.6643 C   0  0  0  0  0  0  0  0  0  0  0  0
    2.1036    1.5939    3.3373 O   0  0  0  0  0  0  0  0  0  0  0  0
    1.4755    3.7104    3.2395 O   0  0  0  0  0  0  0  0  0  0  0  0
    3.8693    2.8920    0.8299 O   0  0  0  0  0  0  0  0  0  0  0  0
    3.3646    3.7745   -1.7782 O   0  0  0  0  0  0  0  0  0  0  0  0
    3.9093    1.1326   -1.0303 O   0  0  0  0  0  0  0  0  0  0  0  0
    4.4305    0.0636   -1.8226 C   0  0  0  0  0  0  0  0  0  0  0  0
    5.8938   -0.1838   -1.4470 C   0  0  0  0  0  0  0  0  0  0  0  0
    5.9704   -0.6133    0.0213 C   0  0  0  0  0  0  0  0  0  0  0  0
    5.0999   -1.8573    0.2241 C   0  0  0  0  0  0  0  0  0  0  0  0
    3.6672   -1.5453   -0.2160 C   0  0  0  0  0  0  0  0  0  0  0  0
    3.6710   -1.1226   -1.5811 O   0  0  0  0  0  0  0  0  0  0  0  0
    2.8176   -2.7819   -0.0752 C   0  0  0  0  0  0  0  0  0  0  0  0
    2.3443   -3.3047   -1.0563 O   0  0  0  0  0  0  0  0  0  0  0  0
    2.5865   -3.3026    1.1402 O   0  0  0  0  0  0  0  0  0  0  0  0
    5.6164   -2.9345   -0.5600 O   0  0  0  0  0  0  0  0  0  0  0  0
    7.3249   -0.9173    0.3605 O   0  0  0  0  0  0  0  0  0  0  0  0
    6.4314   -1.2167   -2.2753 O   0  0  0  0  0  0  0  0  0  0  0  0
   -1.2247   -2.3945    1.9664 O   0  0  0  0  0  0  0  0  0  0  0  0
  -10.6419    0.8919   -1.4942 O   0  0  0  0  0  0  0  0  0  0  0  0
   -7.7400   -1.6128    0.8796 H   0  0  0  0  0  0  0  0  0  0  0  0
  -10.0214   -1.0049    0.1986 H   0  0  0  0  0  0  0  0  0  0  0  0
   -8.4585    2.0453   -2.3605 H   0  0  0  0  0  0  0  0  0  0  0  0
   -6.1715    1.4439   -1.6927 H   0  0  0  0  0  0  0  0  0  0  0  0
   -6.1162   -2.0228    1.3361 H   0  0  0  0  0  0  0  0  0  0  0  0
    0.5472   -0.8911    0.7648 H   0  0  0  0  0  0  0  0  0  0  0  0
   -2.2908    1.4303   -1.4358 H   0  0  0  0  0  0  0  0  0  0  0  0
    1.7387   -0.3586   -0.7441 H   0  0  0  0  0  0  0  0  0  0  0  0
    2.4149    1.3423   -2.4433 H   0  0  0  0  0  0  0  0  0  0  0  0
    1.3860    3.3173   -1.3883 H   0  0  0  0  0  0  0  0  0  0  0  0
    2.3481    4.2821    0.6649 H   0  0  0  0  0  0  0  0  0  0  0  0
    0.5237    2.6410    0.9051 H   0  0  0  0  0  0  0  0  0  0  0  0
    1.6107    3.7724    4.1950 H   0  0  0  0  0  0  0  0  0  0  0  0
    4.0398    3.0109    1.7743 H   0  0  0  0  0  0  0  0  0  0  0  0
    3.2994    4.7279   -1.6306 H   0  0  0  0  0  0  0  0  0  0  0  0
    4.3658    0.3283   -2.8779 H   0  0  0  0  0  0  0  0  0  0  0  0
    6.4662    0.7329   -1.5887 H   0  0  0  0  0  0  0  0  0  0  0  0
    5.6064    0.1940    0.6569 H   0  0  0  0  0  0  0  0  0  0  0  0
    5.1045   -2.1374    1.2775 H   0  0  0  0  0  0  0  0  0  0  0  0
    3.2597   -0.7509    0.4093 H   0  0  0  0  0  0  0  0  0  0  0  0
    2.0357   -4.0964    1.1803 H   0  0  0  0  0  0  0  0  0  0  0  0
    5.1127   -3.7561   -0.4799 H   0  0  0  0  0  0  0  0  0  0  0  0
    7.4473   -1.1971    1.2780 H   0  0  0  0  0  0  0  0  0  0  0  0
    6.4103   -1.0138   -3.2206 H   0  0  0  0  0  0  0  0  0  0  0  0
   -1.1026   -3.2623    1.5576 H   0  0  0  0  0  0  0  0  0  0  0  0
  -11.0501    1.5685   -0.9368 H   0  0  0  0  0  0  0  0  0  0  0  0
  1  2  2  0  0  0  0
  2  3  1  0  0  0  0
  3  4  2  0  0  0  0
  4  5  1  0  0  0  0
  5  6  2  0  0  0  0
  1  6  1  0  0  0  0
  6  7  1  0  0  0  0
  7  8  2  0  0  0  0
  8  9  1  0  0  0  0
  9 10  2  0  0  0  0
  9 11  1  0  0  0  0
 11 12  2  0  0  0  0
 12 13  1  0  0  0  0
 13 14  2  0  0  0  0
 14 15  1  0  0  0  0
 15 16  2  0  0  0  0
 11 16  1  0  0  0  0
 16 17  1  0  0  0  0
  7 17  1  0  0  0  0
 14 18  1  0  0  0  0
 18 19  1  0  0  0  0
 19 20  1  0  0  0  0
 20 21  1  0  0  0  0
 21 22  1  0  0  0  0
 22 23  1  0  0  0  0
 23 24  1  0  0  0  0
 19 24  1  0  0  0  0
 23 25  1  0  0  0  0
 25 26  2  0  0  0  0
 25 27  1  0  0  0  0
 22 28  1  0  0  0  0
 21 29  1  0  0  0  0
 20 30  1  0  0  0  0
 30 31  1  0  0  0  0
 31 32  1  0  0  0  0
 32 33  1  0  0  0  0
 33 34  1  0  0  0  0
 34 35  1  0  0  0  0
 35 36  1  0  0  0  0
 31 36  1  0  0  0  0
 35 37  1  0  0  0  0
 37 38  2  0  0  0  0
 37 39  1  0  0  0  0
 34 40  1  0  0  0  0
 33 41  1  0  0  0  0
 32 42  1  0  0  0  0
 12 43  1  0  0  0  0
  3 44  1  0  0  0  0
  1 45  1  0  0  0  0
  2 46  1  0  0  0  0
  4 47  1  0  0  0  0
  5 48  1  0  0  0  0
  8 49  1  0  0  0  0
 13 50  1  0  0  0  0
 15 51  1  0  0  0  0
 19 52  1  0  0  0  0
 20 53  1  0  0  0  0
 21 54  1  0  0  0  0
 22 55  1  0  0  0  0
 23 56  1  0  0  0  0
 27 57  1  0  0  0  0
 28 58  1  0  0  0  0
 29 59  1  0  0  0  0
 31 60  1  0  0  0  0
 32 61  1  0  0  0  0
 33 62  1  0  0  0  0
 34 63  1  0  0  0  0
 35 64  1  0  0  0  0
 39 65  1  0  0  0  0
 40 66  1  0  0  0  0
 41 67  1  0  0  0  0
 42 68  1  0  0  0  0
 43 69  1  0  0  0  0
 44 70  1  0  0  0  0
M  END
$$$$
