C16H10O8
APtclcactv06281817143D 0   0.00000     0.00000
 
 34 37  0  0  0  0  0  0  0  0999 V2000
    4.6142    1.5030   -0.9598 C   0  0  0  0  0  0  0  0  0  0  0  0
    4.1047    1.0091    0.2806 O   0  0  0  0  0  0  0  0  0  0  0  0
    3.0447    0.1612    0.2182 C   0  0  0  0  0  0  0  0  0  0  0  0
    3.2582   -1.2144    0.1222 C   0  0  0  0  0  0  0  0  0  0  0  0
    2.2039   -2.1134    0.0488 C   0  0  0  0  0  0  0  0  0  0  0  0
    0.9017   -1.6315    0.0610 C   0  0  0  0  0  0  0  0  0  0  0  0
    0.6944   -0.2395    0.1628 C   0  0  0  0  0  0  0  0  0  0  0  0
    1.7486    0.6662    0.2560 C   0  0  0  0  0  0  0  0  0  0  0  0
    1.4875    1.9887    0.4033 O   0  0  0  0  0  0  0  0  0  0  0  0
    0.3009    2.4729   -0.0352 C   0  0  0  0  0  0  0  0  0  0  0  0
    0.2301    3.5895   -0.5120 O   0  0  0  0  0  0  0  0  0  0  0  0
   -0.9008    1.6315    0.0717 C   0  0  0  0  0  0  0  0  0  0  0  0
   -2.2032    2.1132    0.0672 C   0  0  0  0  0  0  0  0  0  0  0  0
   -3.2571    1.2144    0.1476 C   0  0  0  0  0  0  0  0  0  0  0  0
   -3.0432   -0.1614    0.2384 C   0  0  0  0  0  0  0  0  0  0  0  0
   -1.7470   -0.6671    0.2601 C   0  0  0  0  0  0  0  0  0  0  0  0
   -0.6934    0.2385    0.1777 C   0  0  0  0  0  0  0  0  0  0  0  0
   -1.4856   -1.9910    0.3947 O   0  0  0  0  0  0  0  0  0  0  0  0
   -0.3009   -2.4716   -0.0485 C   0  0  0  0  0  0  0  0  0  0  0  0
   -0.2314   -3.5822   -0.5396 O   0  0  0  0  0  0  0  0  0  0  0  0
   -4.1029   -1.0093    0.3062 O   0  0  0  0  0  0  0  0  0  0  0  0
   -4.6215   -1.4999   -0.9317 C   0  0  0  0  0  0  0  0  0  0  0  0
   -4.5320    1.6869    0.1380 O   0  0  0  0  0  0  0  0  0  0  0  0
    4.5332   -1.6863    0.0997 O   0  0  0  0  0  0  0  0  0  0  0  0
    5.4568    2.1673   -0.7677 H   0  0  0  0  0  0  0  0  0  0  0  0
    4.9440    0.6666   -1.5760 H   0  0  0  0  0  0  0  0  0  0  0  0
    3.8304    2.0519   -1.4817 H   0  0  0  0  0  0  0  0  0  0  0  0
    2.3937   -3.1745   -0.0175 H   0  0  0  0  0  0  0  0  0  0  0  0
   -2.3933    3.1743    0.0023 H   0  0  0  0  0  0  0  0  0  0  0  0
   -5.4628   -2.1645   -0.7353 H   0  0  0  0  0  0  0  0  0  0  0  0
   -4.9556   -0.6618   -1.5433 H   0  0  0  0  0  0  0  0  0  0  0  0
   -3.8416   -2.0476   -1.4608 H   0  0  0  0  0  0  0  0  0  0  0  0
   -4.9166    1.7632   -0.7459 H   0  0  0  0  0  0  0  0  0  0  0  0
    4.8944   -1.8854    0.9743 H   0  0  0  0  0  0  0  0  0  0  0  0
  1  2  1  0  0  0  0
  2  3  1  0  0  0  0
  3  4  2  0  0  0  0
  4  5  1  0  0  0  0
  5  6  2  0  0  0  0
  6  7  1  0  0  0  0
  7  8  2  0  0  0  0
  3  8  1  0  0  0  0
  8  9  1  0  0  0  0
  9 10  1  0  0  0  0
 10 11  2  0  0  0  0
 10 12  1  0  0  0  0
 12 13  2  0  0  0  0
 13 14  1  0  0  0  0
 14 15  2  0  0  0  0
 15 16  1  0  0  0  0
 16 17  2  0  0  0  0
 12 17  1  0  0  0  0
  7 17  1  0  0  0  0
 16 18  1  0  0  0  0
 18 19  1  0  0  0  0
  6 19  1  0  0  0  0
 19 20  2  0  0  0  0
 15 21  1  0  0  0  0
 21 22  1  0  0  0  0
 14 23  1  0  0  0  0
  4 24  1  0  0  0  0
  1 25  1  0  0  0  0
  1 26  1  0  0  0  0
  1 27  1  0  0  0  0
  5 28  1  0  0  0  0
 13 29  1  0  0  0  0
 22 30  1  0  0  0  0
 22 31  1  0  0  0  0
 22 32  1  0  0  0  0
 23 33  1  0  0  0  0
 24 34  1  0  0  0  0
M  END
$$$$
