C28H24O15
APtclcactv06281817143D 0   0.00000     0.00000
 
 67 71  0  0  0  0  0  0  0  0999 V2000
    3.0447   -2.3390   -1.3289 C   0  0  0  0  0  0  0  0  0  0  0  0
    3.1146   -3.7145   -1.3063 C   0  0  0  0  0  0  0  0  0  0  0  0
    3.5118   -4.3731   -0.1490 C   0  0  0  0  0  0  0  0  0  0  0  0
    3.8407   -3.6483    0.9899 C   0  0  0  0  0  0  0  0  0  0  0  0
    3.7737   -2.2725    0.9765 C   0  0  0  0  0  0  0  0  0  0  0  0
    3.3746   -1.6056   -0.1854 C   0  0  0  0  0  0  0  0  0  0  0  0
    3.3017   -0.1330   -0.2048 C   0  0  0  0  0  0  0  0  0  0  0  0
    2.1844    0.4620   -0.7089 C   0  0  0  0  0  0  0  0  0  0  0  0
    2.0989    1.8782   -0.7346 C   0  0  0  0  0  0  0  0  0  0  0  0
    1.1137    2.4461   -1.1783 O   0  0  0  0  0  0  0  0  0  0  0  0
    3.2442    2.6355   -0.2050 C   0  0  0  0  0  0  0  0  0  0  0  0
    3.2453    4.0362   -0.1908 C   0  0  0  0  0  0  0  0  0  0  0  0
    4.3405    4.7112    0.3156 C   0  0  0  0  0  0  0  0  0  0  0  0
    5.4321    4.0031    0.8063 C   0  0  0  0  0  0  0  0  0  0  0  0
    5.4381    2.6169    0.7955 C   0  0  0  0  0  0  0  0  0  0  0  0
    4.3491    1.9220    0.2923 C   0  0  0  0  0  0  0  0  0  0  0  0
    4.3377    0.5726    0.2804 O   0  0  0  0  0  0  0  0  0  0  0  0
    6.5026    4.6760    1.3005 O   0  0  0  0  0  0  0  0  0  0  0  0
    2.1795    4.7256   -0.6710 O   0  0  0  0  0  0  0  0  0  0  0  0
    1.1589   -0.2959   -1.1843 O   0  0  0  0  0  0  0  0  0  0  0  0
   -0.0994   -0.1763   -0.5177 C   0  0  0  0  0  0  0  0  0  0  0  0
   -1.1953   -0.8108   -1.3780 C   0  0  0  0  0  0  0  0  0  0  0  0
   -0.8995   -2.3041   -1.5481 C   0  0  0  0  0  0  0  0  0  0  0  0
   -0.7971   -2.9539   -0.1648 C   0  0  0  0  0  0  0  0  0  0  0  0
    0.2834   -2.2366    0.6486 C   0  0  0  0  0  0  0  0  0  0  0  0
   -0.0367   -0.8471    0.7426 O   0  0  0  0  0  0  0  0  0  0  0  0
    0.3505   -2.8408    2.0527 C   0  0  0  0  0  0  0  0  0  0  0  0
    1.4350   -2.2521    2.7733 O   0  0  0  0  0  0  0  0  0  0  0  0
   -2.0529   -2.8447    0.5083 O   0  0  0  0  0  0  0  0  0  0  0  0
   -1.9558   -2.9194   -2.2883 O   0  0  0  0  0  0  0  0  0  0  0  0
   -2.4821   -0.6422   -0.7267 O   0  0  0  0  0  0  0  0  0  0  0  0
   -3.1571    0.4937   -0.9907 C   0  0  0  0  0  0  0  0  0  0  0  0
   -2.6835    1.3207   -1.7445 O   0  0  0  0  0  0  0  0  0  0  0  0
   -4.4708    0.7332   -0.3647 C   0  0  0  0  0  0  0  0  0  0  0  0
   -5.1721    1.9110   -0.6376 C   0  0  0  0  0  0  0  0  0  0  0  0
   -6.4032    2.1326   -0.0500 C   0  0  0  0  0  0  0  0  0  0  0  0
   -6.9450    1.1838    0.8133 C   0  0  0  0  0  0  0  0  0  0  0  0
   -6.2485    0.0095    1.0870 C   0  0  0  0  0  0  0  0  0  0  0  0
   -5.0194   -0.2197    0.4980 C   0  0  0  0  0  0  0  0  0  0  0  0
   -6.7806   -0.9151    1.9306 O   0  0  0  0  0  0  0  0  0  0  0  0
   -8.1554    1.4045    1.3900 O   0  0  0  0  0  0  0  0  0  0  0  0
   -7.0860    3.2786   -0.3148 O   0  0  0  0  0  0  0  0  0  0  0  0
    3.5784   -5.7293   -0.1310 O   0  0  0  0  0  0  0  0  0  0  0  0
    2.7398   -1.8277   -2.2300 H   0  0  0  0  0  0  0  0  0  0  0  0
    2.8599   -4.2819   -2.1892 H   0  0  0  0  0  0  0  0  0  0  0  0
    4.1489   -4.1644    1.8872 H   0  0  0  0  0  0  0  0  0  0  0  0
    4.0287   -1.7100    1.8625 H   0  0  0  0  0  0  0  0  0  0  0  0
    4.3484    5.7911    0.3298 H   0  0  0  0  0  0  0  0  0  0  0  0
    6.2916    2.0780    1.1793 H   0  0  0  0  0  0  0  0  0  0  0  0
    6.4465    4.8633    2.2475 H   0  0  0  0  0  0  0  0  0  0  0  0
    1.5035    4.9175   -0.0066 H   0  0  0  0  0  0  0  0  0  0  0  0
   -0.3274    0.8776   -0.3578 H   0  0  0  0  0  0  0  0  0  0  0  0
   -1.2151   -0.3297   -2.3558 H   0  0  0  0  0  0  0  0  0  0  0  0
    0.0428   -2.4307   -2.0811 H   0  0  0  0  0  0  0  0  0  0  0  0
   -0.5321   -4.0055   -0.2751 H   0  0  0  0  0  0  0  0  0  0  0  0
    1.2482   -2.3548    0.1554 H   0  0  0  0  0  0  0  0  0  0  0  0
   -0.5841   -2.6440    2.5779 H   0  0  0  0  0  0  0  0  0  0  0  0
    0.5056   -3.9171    1.9780 H   0  0  0  0  0  0  0  0  0  0  0  0
    1.5376   -2.5888    3.6740 H   0  0  0  0  0  0  0  0  0  0  0  0
   -2.0606   -3.2362    1.3924 H   0  0  0  0  0  0  0  0  0  0  0  0
   -1.8337   -3.8675   -2.4337 H   0  0  0  0  0  0  0  0  0  0  0  0
   -4.7522    2.6474   -1.3068 H   0  0  0  0  0  0  0  0  0  0  0  0
   -4.4798   -1.1308    0.7103 H   0  0  0  0  0  0  0  0  0  0  0  0
   -7.3317   -1.5773    1.4914 H   0  0  0  0  0  0  0  0  0  0  0  0
   -8.9032    1.0737    0.8738 H   0  0  0  0  0  0  0  0  0  0  0  0
   -7.6806    3.2156   -1.0747 H   0  0  0  0  0  0  0  0  0  0  0  0
    4.4389   -6.0843   -0.3930 H   0  0  0  0  0  0  0  0  0  0  0  0
  1  2  2  0  0  0  0
  2  3  1  0  0  0  0
  3  4  2  0  0  0  0
  4  5  1  0  0  0  0
  5  6  2  0  0  0  0
  1  6  1  0  0  0  0
  6  7  1  0  0  0  0
  7  8  2  0  0  0  0
  8  9  1  0  0  0  0
  9 10  2  0  0  0  0
  9 11  1  0  0  0  0
 11 12  2  0  0  0  0
 12 13  1  0  0  0  0
 13 14  2  0  0  0  0
 14 15  1  0  0  0  0
 15 16  2  0  0  0  0
 11 16  1  0  0  0  0
 16 17  1  0  0  0  0
  7 17  1  0  0  0  0
 14 18  1  0  0  0  0
 12 19  1  0  0  0  0
  8 20  1  0  0  0  0
 20 21  1  0  0  0  0
 21 22  1  0  0  0  0
 22 23  1  0  0  0  0
 23 24  1  0  0  0  0
 24 25  1  0  0  0  0
 25 26  1  0  0  0  0
 21 26  1  0  0  0  0
 25 27  1  0  0  0  0
 27 28  1  0  0  0  0
 24 29  1  0  0  0  0
 23 30  1  0  0  0  0
 22 31  1  0  0  0  0
 31 32  1  0  0  0  0
 32 33  2  0  0  0  0
 32 34  1  0  0  0  0
 34 35  2  0  0  0  0
 35 36  1  0  0  0  0
 36 37  2  0  0  0  0
 37 38  1  0  0  0  0
 38 39  2  0  0  0  0
 34 39  1  0  0  0  0
 38 40  1  0  0  0  0
 37 41  1  0  0  0  0
 36 42  1  0  0  0  0
  3 43  1  0  0  0  0
  1 44  1  0  0  0  0
  2 45  1  0  0  0  0
  4 46  1  0  0  0  0
  5 47  1  0  0  0  0
 13 48  1  0  0  0  0
 15 49  1  0  0  0  0
 18 50  1  0  0  0  0
 19 51  1  0  0  0  0
 21 52  1  0  0  0  0
 22 53  1  0  0  0  0
 23 54  1  0  0  0  0
 24 55  1  0  0  0  0
 25 56  1  0  0  0  0
 27 57  1  0  0  0  0
 27 58  1  0  0  0  0
 28 59  1  0  0  0  0
 29 60  1  0  0  0  0
 30 61  1  0  0  0  0
 35 62  1  0  0  0  0
 39 63  1  0  0  0  0
 40 64  1  0  0  0  0
 41 65  1  0  0  0  0
 42 66  1  0  0  0  0
 43 67  1  0  0  0  0
M  END
$$$$
