C17H14O7
APtclcactv06281817143D 0   0.00000     0.00000
 
 38 40  0  0  0  0  0  0  0  0999 V2000
    6.4287    1.7796    1.1265 C   0  0  0  0  0  0  0  0  0  0  0  0
    6.0781    0.6943    0.2655 O   0  0  0  0  0  0  0  0  0  0  0  0
    4.7629    0.3530    0.2064 C   0  0  0  0  0  0  0  0  0  0  0  0
    4.3531   -0.6954   -0.6129 C   0  0  0  0  0  0  0  0  0  0  0  0
    3.0153   -1.0432   -0.6735 C   0  0  0  0  0  0  0  0  0  0  0  0
    2.0807   -0.3423    0.0865 C   0  0  0  0  0  0  0  0  0  0  0  0
    2.4968    0.7063    0.9049 C   0  0  0  0  0  0  0  0  0  0  0  0
    3.8333    1.0459    0.9664 C   0  0  0  0  0  0  0  0  0  0  0  0
    0.6455   -0.7115    0.0242 C   0  0  0  0  0  0  0  0  0  0  0  0
    0.2150   -1.9200    0.4696 C   0  0  0  0  0  0  0  0  0  0  0  0
   -1.0611   -2.3022    0.4184 O   0  0  0  0  0  0  0  0  0  0  0  0
   -2.0514   -1.4104    0.2202 C   0  0  0  0  0  0  0  0  0  0  0  0
   -3.3687   -1.7514    0.4944 C   0  0  0  0  0  0  0  0  0  0  0  0
   -4.3848   -0.8348    0.2789 C   0  0  0  0  0  0  0  0  0  0  0  0
   -4.1035    0.4372   -0.2164 C   0  0  0  0  0  0  0  0  0  0  0  0
   -2.7944    0.7984   -0.4934 C   0  0  0  0  0  0  0  0  0  0  0  0
   -1.7650   -0.1221   -0.2675 C   0  0  0  0  0  0  0  0  0  0  0  0
   -0.3570    0.2266   -0.5182 C   0  0  0  0  0  0  0  0  0  0  0  0
   -0.0378    1.2260   -1.1394 O   0  0  0  0  0  0  0  0  0  0  0  0
   -2.5133    2.0348   -0.9802 O   0  0  0  0  0  0  0  0  0  0  0  0
   -5.1142    1.3243   -0.4285 O   0  0  0  0  0  0  0  0  0  0  0  0
   -5.4644    2.1812    0.6601 C   0  0  0  0  0  0  0  0  0  0  0  0
   -5.6696   -1.1798    0.5529 O   0  0  0  0  0  0  0  0  0  0  0  0
    5.2673   -1.3772   -1.3538 O   0  0  0  0  0  0  0  0  0  0  0  0
    5.9063    2.6810    0.8060 H   0  0  0  0  0  0  0  0  0  0  0  0
    6.1424    1.5382    2.1502 H   0  0  0  0  0  0  0  0  0  0  0  0
    7.5047    1.9473    1.0800 H   0  0  0  0  0  0  0  0  0  0  0  0
    2.6958   -1.8560   -1.3089 H   0  0  0  0  0  0  0  0  0  0  0  0
    1.7739    1.2505    1.4945 H   0  0  0  0  0  0  0  0  0  0  0  0
    4.1542    1.8588    1.6010 H   0  0  0  0  0  0  0  0  0  0  0  0
    0.9407   -2.6037    0.8846 H   0  0  0  0  0  0  0  0  0  0  0  0
   -3.6022   -2.7342    0.8765 H   0  0  0  0  0  0  0  0  0  0  0  0
   -2.3413    2.6968   -0.2966 H   0  0  0  0  0  0  0  0  0  0  0  0
   -6.2813    2.8367    0.3584 H   0  0  0  0  0  0  0  0  0  0  0  0
   -5.7786    1.5773    1.5114 H   0  0  0  0  0  0  0  0  0  0  0  0
   -4.6003    2.7834    0.9410 H   0  0  0  0  0  0  0  0  0  0  0  0
   -5.9461   -0.9797    1.4577 H   0  0  0  0  0  0  0  0  0  0  0  0
    5.6493   -2.1416   -0.9010 H   0  0  0  0  0  0  0  0  0  0  0  0
  1  2  1  0  0  0  0
  2  3  1  0  0  0  0
  3  4  2  0  0  0  0
  4  5  1  0  0  0  0
  5  6  2  0  0  0  0
  6  7  1  0  0  0  0
  7  8  2  0  0  0  0
  3  8  1  0  0  0  0
  6  9  1  0  0  0  0
  9 10  2  0  0  0  0
 10 11  1  0  0  0  0
 11 12  1  0  0  0  0
 12 13  2  0  0  0  0
 13 14  1  0  0  0  0
 14 15  2  0  0  0  0
 15 16  1  0  0  0  0
 16 17  2  0  0  0  0
 12 17  1  0  0  0  0
 17 18  1  0  0  0  0
  9 18  1  0  0  0  0
 18 19  2  0  0  0  0
 16 20  1  0  0  0  0
 15 21  1  0  0  0  0
 21 22  1  0  0  0  0
 14 23  1  0  0  0  0
  4 24  1  0  0  0  0
  1 25  1  0  0  0  0
  1 26  1  0  0  0  0
  1 27  1  0  0  0  0
  5 28  1  0  0  0  0
  7 29  1  0  0  0  0
  8 30  1  0  0  0  0
 10 31  1  0  0  0  0
 13 32  1  0  0  0  0
 20 33  1  0  0  0  0
 22 34  1  0  0  0  0
 22 35  1  0  0  0  0
 22 36  1  0  0  0  0
 23 37  1  0  0  0  0
 24 38  1  0  0  0  0
M  END
$$$$
