C28H33O16
APtclcactv06281817143D 0   0.00000     0.00000
 
 77 81  0  0  0  0  0  0  0  0999 V2000
    5.2866    3.8154    2.2054 C   0  0  0  0  0  0  0  0  0  0  0  0
    6.1224    2.9763    1.4058 O   0  0  0  0  0  0  0  0  0  0  0  0
    5.5032    2.1630    0.5087 C   0  0  0  0  0  0  0  0  0  0  0  0
    6.2580    1.3187   -0.3031 C   0  0  0  0  0  0  0  0  0  0  0  0
    5.6289    0.4883   -1.2197 C   0  0  0  0  0  0  0  0  0  0  0  0
    4.2545    0.4948   -1.3305 C   0  0  0  0  0  0  0  0  0  0  0  0
    3.4928    1.3380   -0.5198 C   0  0  0  0  0  0  0  0  0  0  0  0
    4.1249    2.1698    0.4061 C   0  0  0  0  0  0  0  0  0  0  0  0
    2.0183    1.3463   -0.6381 C   0  0  0  0  0  0  0  0  0  0  0  0
    1.3498    0.1223   -0.8211 C   0  0  0  0  0  0  0  0  0  0  0  0
   -0.0238    0.1484   -0.9288 C   0  0  0  0  0  0  0  0  0  0  0  0
   -0.6162    1.4255   -0.8416 C   0  0  0  0  0  0  0  0  0  0  0  0
   -2.0092    1.5984   -0.9348 C   0  0  0  0  0  0  0  0  0  0  0  0
   -2.5417    2.8543   -0.8446 C   0  0  0  0  0  0  0  0  0  0  0  0
   -1.7145    3.9642   -0.6614 C   0  0  0  0  0  0  0  0  0  0  0  0
   -0.3473    3.8225   -0.5669 C   0  0  0  0  0  0  0  0  0  0  0  0
    0.2311    2.5470   -0.6550 C   0  0  0  0  0  0  0  0  0  0  0  0
    1.4373    2.4048   -0.5684 O   0  3  0  0  0  0  0  0  0  0  0  0
   -2.2660    5.2022   -0.5755 O   0  0  0  0  0  0  0  0  0  0  0  0
   -2.8201    0.5244   -1.1138 O   0  0  0  0  0  0  0  0  0  0  0  0
   -4.2237    0.7783   -1.1993 C   0  0  0  0  0  0  0  0  0  0  0  0
   -4.9594   -0.5246   -1.5235 C   0  0  0  0  0  0  0  0  0  0  0  0
   -4.7364   -1.5247   -0.3849 C   0  0  0  0  0  0  0  0  0  0  0  0
   -5.2132   -0.8995    0.9297 C   0  0  0  0  0  0  0  0  0  0  0  0
   -4.4677    0.4179    1.1592 C   0  0  0  0  0  0  0  0  0  0  0  0
   -4.6924    1.2902    0.0498 O   0  0  0  0  0  0  0  0  0  0  0  0
   -4.9815    1.0785    2.4400 C   0  0  0  0  0  0  0  0  0  0  0  0
   -4.2071    2.2471    2.7168 O   0  0  0  0  0  0  0  0  0  0  0  0
   -6.6178   -0.6469    0.8566 O   0  0  0  0  0  0  0  0  0  0  0  0
   -5.4793   -2.7175   -0.6440 O   0  0  0  0  0  0  0  0  0  0  0  0
   -6.3573   -0.2621   -1.6616 O   0  0  0  0  0  0  0  0  0  0  0  0
    2.0368   -1.0486   -0.8900 O   0  0  0  0  0  0  0  0  0  0  0  0
    1.2706   -2.2402   -1.0775 C   0  0  0  0  0  0  0  0  0  0  0  0
    2.2151   -3.4319   -1.2549 C   0  0  0  0  0  0  0  0  0  0  0  0
    3.0458   -3.6092    0.0198 C   0  0  0  0  0  0  0  0  0  0  0  0
    2.1002   -3.7891    1.2114 C   0  0  0  0  0  0  0  0  0  0  0  0
    1.1602   -2.5836    1.2935 C   0  0  0  0  0  0  0  0  0  0  0  0
    0.4406   -2.4578    0.0653 O   0  0  0  0  0  0  0  0  0  0  0  0
    0.1729   -2.7840    2.4450 C   0  0  0  0  0  0  0  0  0  0  0  0
   -0.6276   -1.6099    2.5959 O   0  0  0  0  0  0  0  0  0  0  0  0
    1.3330   -4.9819    1.0363 O   0  0  0  0  0  0  0  0  0  0  0  0
    3.8780   -4.7637   -0.1087 O   0  0  0  0  0  0  0  0  0  0  0  0
    1.4509   -4.6152   -1.4953 O   0  0  0  0  0  0  0  0  0  0  0  0
    7.6126    1.3089   -0.1974 O   0  0  0  0  0  0  0  0  0  0  0  0
    4.7112    4.4775    1.5584 H   0  0  0  0  0  0  0  0  0  0  0  0
    4.6057    3.1979    2.7912 H   0  0  0  0  0  0  0  0  0  0  0  0
    5.9055    4.4110    2.8766 H   0  0  0  0  0  0  0  0  0  0  0  0
    6.2170   -0.1644   -1.8478 H   0  0  0  0  0  0  0  0  0  0  0  0
    3.7674   -0.1522   -2.0449 H   0  0  0  0  0  0  0  0  0  0  0  0
    3.5386    2.8232    1.0352 H   0  0  0  0  0  0  0  0  0  0  0  0
   -0.6077   -0.7490   -1.0709 H   0  0  0  0  0  0  0  0  0  0  0  0
   -3.6109    2.9891   -0.9159 H   0  0  0  0  0  0  0  0  0  0  0  0
    0.2781    4.6915   -0.4248 H   0  0  0  0  0  0  0  0  0  0  0  0
   -2.4961    5.4687    0.3252 H   0  0  0  0  0  0  0  0  0  0  0  0
   -4.4138    1.5084   -1.9859 H   0  0  0  0  0  0  0  0  0  0  0  0
   -4.5721   -0.9397   -2.4540 H   0  0  0  0  0  0  0  0  0  0  0  0
   -3.6753   -1.7631   -0.3115 H   0  0  0  0  0  0  0  0  0  0  0  0
   -5.0074   -1.5827    1.7537 H   0  0  0  0  0  0  0  0  0  0  0  0
   -3.4002    0.2195    1.2552 H   0  0  0  0  0  0  0  0  0  0  0  0
   -6.0271    1.3577    2.3106 H   0  0  0  0  0  0  0  0  0  0  0  0
   -4.8925    0.3784    3.2708 H   0  0  0  0  0  0  0  0  0  0  0  0
   -4.4778    2.7179    3.5169 H   0  0  0  0  0  0  0  0  0  0  0  0
   -7.1525   -1.4386    0.7073 H   0  0  0  0  0  0  0  0  0  0  0  0
   -5.2337   -3.1630   -1.4664 H   0  0  0  0  0  0  0  0  0  0  0  0
   -6.5717    0.3682   -2.3629 H   0  0  0  0  0  0  0  0  0  0  0  0
    0.6469   -2.1354   -1.9653 H   0  0  0  0  0  0  0  0  0  0  0  0
    2.8789   -3.2480   -2.0996 H   0  0  0  0  0  0  0  0  0  0  0  0
    3.6660   -2.7266    0.1765 H   0  0  0  0  0  0  0  0  0  0  0  0
    2.6819   -3.8607    2.1304 H   0  0  0  0  0  0  0  0  0  0  0  0
    1.7432   -1.6792    1.4675 H   0  0  0  0  0  0  0  0  0  0  0  0
   -0.4703   -3.6368    2.2280 H   0  0  0  0  0  0  0  0  0  0  0  0
    0.7233   -2.9694    3.3674 H   0  0  0  0  0  0  0  0  0  0  0  0
   -1.2776   -1.6661    3.3096 H   0  0  0  0  0  0  0  0  0  0  0  0
    1.8658   -5.7863    0.9714 H   0  0  0  0  0  0  0  0  0  0  0  0
    4.4985   -4.7209   -0.8492 H   0  0  0  0  0  0  0  0  0  0  0  0
    0.8961   -4.5713   -2.2861 H   0  0  0  0  0  0  0  0  0  0  0  0
    7.9524    0.6709    0.4450 H   0  0  0  0  0  0  0  0  0  0  0  0
  1  2  1  0  0  0  0
  2  3  1  0  0  0  0
  3  4  2  0  0  0  0
  4  5  1  0  0  0  0
  5  6  2  0  0  0  0
  6  7  1  0  0  0  0
  7  8  2  0  0  0  0
  3  8  1  0  0  0  0
  7  9  1  0  0  0  0
  9 10  2  0  0  0  0
 10 11  1  0  0  0  0
 11 12  2  0  0  0  0
 12 13  1  0  0  0  0
 13 14  2  0  0  0  0
 14 15  1  0  0  0  0
 15 16  2  0  0  0  0
 16 17  1  0  0  0  0
 12 17  1  0  0  0  0
 17 18  2  0  0  0  0
  9 18  1  0  0  0  0
 15 19  1  0  0  0  0
 13 20  1  0  0  0  0
 20 21  1  0  0  0  0
 21 22  1  0  0  0  0
 22 23  1  0  0  0  0
 23 24  1  0  0  0  0
 24 25  1  0  0  0  0
 25 26  1  0  0  0  0
 21 26  1  0  0  0  0
 25 27  1  0  0  0  0
 27 28  1  0  0  0  0
 24 29  1  0  0  0  0
 23 30  1  0  0  0  0
 22 31  1  0  0  0  0
 10 32  1  0  0  0  0
 32 33  1  0  0  0  0
 33 34  1  0  0  0  0
 34 35  1  0  0  0  0
 35 36  1  0  0  0  0
 36 37  1  0  0  0  0
 37 38  1  0  0  0  0
 33 38  1  0  0  0  0
 37 39  1  0  0  0  0
 39 40  1  0  0  0  0
 36 41  1  0  0  0  0
 35 42  1  0  0  0  0
 34 43  1  0  0  0  0
  4 44  1  0  0  0  0
  1 45  1  0  0  0  0
  1 46  1  0  0  0  0
  1 47  1  0  0  0  0
  5 48  1  0  0  0  0
  6 49  1  0  0  0  0
  8 50  1  0  0  0  0
 11 51  1  0  0  0  0
 14 52  1  0  0  0  0
 16 53  1  0  0  0  0
 19 54  1  0  0  0  0
 21 55  1  0  0  0  0
 22 56  1  0  0  0  0
 23 57  1  0  0  0  0
 24 58  1  0  0  0  0
 25 59  1  0  0  0  0
 27 60  1  0  0  0  0
 27 61  1  0  0  0  0
 28 62  1  0  0  0  0
 29 63  1  0  0  0  0
 30 64  1  0  0  0  0
 31 65  1  0  0  0  0
 33 66  1  0  0  0  0
 34 67  1  0  0  0  0
 35 68  1  0  0  0  0
 36 69  1  0  0  0  0
 37 70  1  0  0  0  0
 39 71  1  0  0  0  0
 39 72  1  0  0  0  0
 40 73  1  0  0  0  0
 41 74  1  0  0  0  0
 42 75  1  0  0  0  0
 43 76  1  0  0  0  0
 44 77  1  0  0  0  0
M  CHG  1  18   1
M  END
$$$$
