C16H11NO3
APtclcactv06281817143D 0   0.00000     0.00000
 
 31 34  0  0  0  0  0  0  0  0999 V2000
    4.5949    1.6562   -0.0058 C   0  0  0  0  0  0  0  0  0  0  0  0
    4.2611    0.2667   -0.0096 O   0  0  0  0  0  0  0  0  0  0  0  0
    2.9388   -0.0505   -0.0094 C   0  0  0  0  0  0  0  0  0  0  0  0
    2.5489   -1.3919   -0.0131 C   0  0  0  0  0  0  0  0  0  0  0  0
    1.2048   -1.7276   -0.0119 C   0  0  0  0  0  0  0  0  0  0  0  0
    0.2465   -0.7267   -0.0052 C   0  0  0  0  0  0  0  0  0  0  0  0
   -1.1985   -1.0177   -0.0036 C   0  0  0  0  0  0  0  0  0  0  0  0
   -1.7484   -2.2938   -0.0073 C   0  0  0  0  0  0  0  0  0  0  0  0
   -3.1298   -2.4353   -0.0051 C   0  0  0  0  0  0  0  0  0  0  0  0
   -3.9799   -1.3438   -0.0012 C   0  0  0  0  0  0  0  0  0  0  0  0
   -3.4461   -0.0556    0.0013 C   0  0  0  0  0  0  0  0  0  0  0  0
   -2.0595    0.0705    0.0003 C   0  0  0  0  0  0  0  0  0  0  0  0
   -1.6996    1.3828    0.0039 N   0  0  0  0  0  0  0  0  0  0  0  0
   -2.8571    2.1326    0.0076 C   0  0  0  0  0  0  0  0  0  0  0  0
   -3.9364    1.3243    0.0056 C   0  0  0  0  0  0  0  0  0  0  0  0
   -0.3846    1.6964    0.0031 C   0  0  0  0  0  0  0  0  0  0  0  0
   -0.0416    2.8636    0.0066 O   0  0  0  0  0  0  0  0  0  0  0  0
    0.6344    0.6351   -0.0020 C   0  0  0  0  0  0  0  0  0  0  0  0
    1.9945    0.9556    0.0000 C   0  0  0  0  0  0  0  0  0  0  0  0
    3.4908   -2.3703   -0.0183 O   0  0  0  0  0  0  0  0  0  0  0  0
    4.1794    2.1321   -0.8940 H   0  0  0  0  0  0  0  0  0  0  0  0
    4.1809    2.1269    0.8860 H   0  0  0  0  0  0  0  0  0  0  0  0
    5.6790    1.7694   -0.0063 H   0  0  0  0  0  0  0  0  0  0  0  0
    0.9051   -2.7652   -0.0165 H   0  0  0  0  0  0  0  0  0  0  0  0
   -1.1095   -3.1645   -0.0122 H   0  0  0  0  0  0  0  0  0  0  0  0
   -3.5539   -3.4286   -0.0069 H   0  0  0  0  0  0  0  0  0  0  0  0
   -5.0502   -1.4885   -0.0003 H   0  0  0  0  0  0  0  0  0  0  0  0
   -2.8938    3.2120    0.0123 H   0  0  0  0  0  0  0  0  0  0  0  0
   -4.9702    1.6366    0.0064 H   0  0  0  0  0  0  0  0  0  0  0  0
    2.3062    1.9896    0.0050 H   0  0  0  0  0  0  0  0  0  0  0  0
    3.7654   -2.6566    0.8636 H   0  0  0  0  0  0  0  0  0  0  0  0
  1  2  1  0  0  0  0
  2  3  1  0  0  0  0
  3  4  2  0  0  0  0
  4  5  1  0  0  0  0
  5  6  2  0  0  0  0
  6  7  1  0  0  0  0
  7  8  2  0  0  0  0
  8  9  1  0  0  0  0
  9 10  2  0  0  0  0
 10 11  1  0  0  0  0
 11 12  2  0  0  0  0
  7 12  1  0  0  0  0
 12 13  1  0  0  0  0
 13 14  1  0  0  0  0
 14 15  2  0  0  0  0
 11 15  1  0  0  0  0
 13 16  1  0  0  0  0
 16 17  2  0  0  0  0
 16 18  1  0  0  0  0
  6 18  1  0  0  0  0
 18 19  2  0  0  0  0
  3 19  1  0  0  0  0
  4 20  1  0  0  0  0
  1 21  1  0  0  0  0
  1 22  1  0  0  0  0
  1 23  1  0  0  0  0
  5 24  1  0  0  0  0
  8 25  1  0  0  0  0
  9 26  1  0  0  0  0
 10 27  1  0  0  0  0
 14 28  1  0  0  0  0
 15 29  1  0  0  0  0
 19 30  1  0  0  0  0
 20 31  1  0  0  0  0
M  END
$$$$
