C17H14O8
APtclcactv06281817143D 0   0.00000     0.00000
 
 39 41  0  0  0  0  0  0  0  0999 V2000
   -3.7827    2.4180   -1.9360 C   0  0  0  0  0  0  0  0  0  0  0  0
   -4.5718    1.6072   -1.0631 O   0  0  0  0  0  0  0  0  0  0  0  0
   -3.9189    0.6497   -0.3516 C   0  0  0  0  0  0  0  0  0  0  0  0
   -4.6277   -0.1765    0.5187 C   0  0  0  0  0  0  0  0  0  0  0  0
   -3.9648   -1.1546    1.2469 C   0  0  0  0  0  0  0  0  0  0  0  0
   -2.6022   -1.3136    1.1128 C   0  0  0  0  0  0  0  0  0  0  0  0
   -1.8850   -0.4890    0.2416 C   0  0  0  0  0  0  0  0  0  0  0  0
   -2.5537    0.4922   -0.4959 C   0  0  0  0  0  0  0  0  0  0  0  0
   -0.4273   -0.6573    0.0966 C   0  0  0  0  0  0  0  0  0  0  0  0
    0.0736   -1.9115   -0.0855 C   0  0  0  0  0  0  0  0  0  0  0  0
    1.4739   -2.0904   -0.2266 C   0  0  0  0  0  0  0  0  0  0  0  0
    1.9582   -3.1987   -0.3916 O   0  0  0  0  0  0  0  0  0  0  0  0
    2.3200   -0.8876   -0.1669 C   0  0  0  0  0  0  0  0  0  0  0  0
    1.7010    0.3599    0.0247 C   0  0  0  0  0  0  0  0  0  0  0  0
    0.3579    0.4325    0.1435 O   0  0  0  0  0  0  0  0  0  0  0  0
    2.4827    1.5073    0.0840 C   0  0  0  0  0  0  0  0  0  0  0  0
    3.8621    1.4143   -0.0457 C   0  0  0  0  0  0  0  0  0  0  0  0
    4.4739    0.1801   -0.2357 C   0  0  0  0  0  0  0  0  0  0  0  0
    3.7124   -0.9716   -0.2963 C   0  0  0  0  0  0  0  0  0  0  0  0
    4.3099   -2.1769   -0.4814 O   0  0  0  0  0  0  0  0  0  0  0  0
    4.6210    2.5397    0.0132 O   0  0  0  0  0  0  0  0  0  0  0  0
    1.8963    2.7223    0.2688 O   0  0  0  0  0  0  0  0  0  0  0  0
    1.7256    3.1619    1.6177 C   0  0  0  0  0  0  0  0  0  0  0  0
   -0.7629   -2.9840   -0.1312 O   0  0  0  0  0  0  0  0  0  0  0  0
   -5.9709   -0.0238    0.6550 O   0  0  0  0  0  0  0  0  0  0  0  0
   -3.2938    1.7852   -2.6767 H   0  0  0  0  0  0  0  0  0  0  0  0
   -4.4250    3.1392   -2.4415 H   0  0  0  0  0  0  0  0  0  0  0  0
   -3.0276    2.9482   -1.3558 H   0  0  0  0  0  0  0  0  0  0  0  0
   -4.5179   -1.7924    1.9204 H   0  0  0  0  0  0  0  0  0  0  0  0
   -2.0888   -2.0750    1.6812 H   0  0  0  0  0  0  0  0  0  0  0  0
   -2.0034    1.1316   -1.1702 H   0  0  0  0  0  0  0  0  0  0  0  0
    5.5477    0.1213   -0.3355 H   0  0  0  0  0  0  0  0  0  0  0  0
    4.5593   -2.6226    0.3397 H   0  0  0  0  0  0  0  0  0  0  0  0
    4.9164    2.7687    0.9050 H   0  0  0  0  0  0  0  0  0  0  0  0
    1.0997    2.4498    2.1555 H   0  0  0  0  0  0  0  0  0  0  0  0
    2.6990    3.2296    2.1037 H   0  0  0  0  0  0  0  0  0  0  0  0
    1.2481    4.1417    1.6229 H   0  0  0  0  0  0  0  0  0  0  0  0
   -0.3120   -3.8291   -0.2637 H   0  0  0  0  0  0  0  0  0  0  0  0
   -6.4919   -0.5568    0.0389 H   0  0  0  0  0  0  0  0  0  0  0  0
  1  2  1  0  0  0  0
  2  3  1  0  0  0  0
  3  4  2  0  0  0  0
  4  5  1  0  0  0  0
  5  6  2  0  0  0  0
  6  7  1  0  0  0  0
  7  8  2  0  0  0  0
  3  8  1  0  0  0  0
  7  9  1  0  0  0  0
  9 10  2  0  0  0  0
 10 11  1  0  0  0  0
 11 12  2  0  0  0  0
 11 13  1  0  0  0  0
 13 14  2  0  0  0  0
 14 15  1  0  0  0  0
  9 15  1  0  0  0  0
 14 16  1  0  0  0  0
 16 17  2  0  0  0  0
 17 18  1  0  0  0  0
 18 19  2  0  0  0  0
 13 19  1  0  0  0  0
 19 20  1  0  0  0  0
 17 21  1  0  0  0  0
 16 22  1  0  0  0  0
 22 23  1  0  0  0  0
 10 24  1  0  0  0  0
  4 25  1  0  0  0  0
  1 26  1  0  0  0  0
  1 27  1  0  0  0  0
  1 28  1  0  0  0  0
  5 29  1  0  0  0  0
  6 30  1  0  0  0  0
  8 31  1  0  0  0  0
 18 32  1  0  0  0  0
 20 33  1  0  0  0  0
 21 34  1  0  0  0  0
 23 35  1  0  0  0  0
 23 36  1  0  0  0  0
 23 37  1  0  0  0  0
 24 38  1  0  0  0  0
 25 39  1  0  0  0  0
M  END
$$$$
