C10H18O2
APtclcactv06231803043D 0   0.00000     0.00000
 
 30 29  0  0  0  0  0  0  0  0999 V2000
    3.4070   -0.1680   -1.2934 C   0  0  0  0  0  0  0  0  0  0  0  0
    2.9546    0.3915    0.0307 C   0  0  0  0  0  0  0  0  0  0  0  0
    3.6275    1.3633    0.5955 C   0  0  0  0  0  0  0  0  0  0  0  0
    1.7280   -0.1669    0.7051 C   0  0  0  0  0  0  0  0  0  0  0  0
    0.4955    0.1291   -0.1517 C   0  0  0  0  0  0  0  0  0  0  0  0
   -0.7627   -0.3265    0.5901 C   0  0  0  0  0  0  0  0  0  0  0  0
   -1.9952   -0.0305   -0.2668 C   0  0  0  0  0  0  0  0  0  0  0  0
   -1.8857   -0.7824   -1.5947 C   0  0  0  0  0  0  0  0  0  0  0  0
   -3.2345   -0.4792    0.4639 C   0  0  0  0  0  0  0  0  0  0  0  0
   -4.1689    0.3889    0.7630 C   0  0  0  0  0  0  0  0  0  0  0  0
   -2.0735    1.3738   -0.5196 O   0  0  0  0  0  0  0  0  0  0  0  0
    1.8717   -1.5801    0.8608 O   0  0  0  0  0  0  0  0  0  0  0  0
    4.3038    0.3571   -1.6224 H   0  0  0  0  0  0  0  0  0  0  0  0
    3.6276   -1.2297   -1.1829 H   0  0  0  0  0  0  0  0  0  0  0  0
    2.6169   -0.0360   -2.0326 H   0  0  0  0  0  0  0  0  0  0  0  0
    3.3032    1.7642    1.5445 H   0  0  0  0  0  0  0  0  0  0  0  0
    4.5065    1.7635    0.1122 H   0  0  0  0  0  0  0  0  0  0  0  0
    1.6093    0.2963    1.6847 H   0  0  0  0  0  0  0  0  0  0  0  0
    0.4358    1.2002   -0.3446 H   0  0  0  0  0  0  0  0  0  0  0  0
    0.5735   -0.4066   -1.0978 H   0  0  0  0  0  0  0  0  0  0  0  0
   -0.7030   -1.3976    0.7829 H   0  0  0  0  0  0  0  0  0  0  0  0
   -0.8407    0.2093    1.5361 H   0  0  0  0  0  0  0  0  0  0  0  0
   -1.8260   -1.8536   -1.4019 H   0  0  0  0  0  0  0  0  0  0  0  0
   -2.7638   -0.5716   -2.2052 H   0  0  0  0  0  0  0  0  0  0  0  0
   -0.9893   -0.4579   -2.1232 H   0  0  0  0  0  0  0  0  0  0  0  0
   -3.3523   -1.5164    0.7409 H   0  0  0  0  0  0  0  0  0  0  0  0
   -5.0571    0.0673    1.2866 H   0  0  0  0  0  0  0  0  0  0  0  0
   -4.0511    1.4261    0.4860 H   0  0  0  0  0  0  0  0  0  0  0  0
   -2.1450    1.9139    0.2793 H   0  0  0  0  0  0  0  0  0  0  0  0
    1.9819   -2.0584    0.0276 H   0  0  0  0  0  0  0  0  0  0  0  0
  1  2  1  0  0  0  0
  2  3  2  0  0  0  0
  2  4  1  0  0  0  0
  4  5  1  0  0  0  0
  5  6  1  0  0  0  0
  6  7  1  0  0  0  0
  7  8  1  0  0  0  0
  7  9  1  0  0  0  0
  9 10  2  0  0  0  0
  7 11  1  0  0  0  0
  4 12  1  0  0  0  0
  1 13  1  0  0  0  0
  1 14  1  0  0  0  0
  1 15  1  0  0  0  0
  3 16  1  0  0  0  0
  3 17  1  0  0  0  0
  4 18  1  0  0  0  0
  5 19  1  0  0  0  0
  5 20  1  0  0  0  0
  6 21  1  0  0  0  0
  6 22  1  0  0  0  0
  8 23  1  0  0  0  0
  8 24  1  0  0  0  0
  8 25  1  0  0  0  0
  9 26  1  0  0  0  0
 10 27  1  0  0  0  0
 10 28  1  0  0  0  0
 11 29  1  0  0  0  0
 12 30  1  0  0  0  0
M  END
$$$$
