C15H8O7
APtclcactv06281817143D 0   0.00000     0.00000
 
 30 33  0  0  0  0  0  0  0  0999 V2000
   -4.0159    1.3811    0.0154 C   0  0  0  0  0  0  0  0  0  0  0  0
   -4.6217    0.1299    0.0086 C   0  0  0  0  0  0  0  0  0  0  0  0
   -3.8553   -1.0253    0.0037 C   0  0  0  0  0  0  0  0  0  0  0  0
   -2.4714   -0.9429    0.0052 C   0  0  0  0  0  0  0  0  0  0  0  0
   -1.8551    0.3209    0.0117 C   0  0  0  0  0  0  0  0  0  0  0  0
   -2.6376    1.4849    0.0169 C   0  0  0  0  0  0  0  0  0  0  0  0
   -2.0448    2.7060    0.0226 O   0  0  0  0  0  0  0  0  0  0  0  0
   -0.3904    0.3964    0.0134 C   0  0  0  0  0  0  0  0  0  0  0  0
    0.3179   -0.8041    0.0085 C   0  0  0  0  0  0  0  0  0  0  0  0
    1.7411   -0.4270    0.0113 C   0  0  0  0  0  0  0  0  0  0  0  0
    2.9335   -1.1462    0.0091 C   0  0  0  0  0  0  0  0  0  0  0  0
    4.1400   -0.4729    0.0131 C   0  0  0  0  0  0  0  0  0  0  0  0
    4.1606    0.9217    0.0193 C   0  0  0  0  0  0  0  0  0  0  0  0
    2.9795    1.6404    0.0216 C   0  0  0  0  0  0  0  0  0  0  0  0
    1.7594    0.9761    0.0176 C   0  0  0  0  0  0  0  0  0  0  0  0
    0.4809    1.4163    0.0186 O   0  0  0  0  0  0  0  0  0  0  0  0
    5.3510    1.5794    0.0237 O   0  0  0  0  0  0  0  0  0  0  0  0
    5.3081   -1.1703    0.0115 O   0  0  0  0  0  0  0  0  0  0  0  0
   -0.3796   -2.0294    0.0019 C   0  0  0  0  0  0  0  0  0  0  0  0
    0.2475   -3.0733   -0.0021 O   0  0  0  0  0  0  0  0  0  0  0  0
   -1.7225   -2.0679    0.0008 O   0  0  0  0  0  0  0  0  0  0  0  0
   -5.9764    0.0384    0.0072 O   0  0  0  0  0  0  0  0  0  0  0  0
   -4.6236    2.2740    0.0151 H   0  0  0  0  0  0  0  0  0  0  0  0
   -4.3375   -1.9917   -0.0009 H   0  0  0  0  0  0  0  0  0  0  0  0
   -1.8730    3.0639   -0.8591 H   0  0  0  0  0  0  0  0  0  0  0  0
    2.9153   -2.2260    0.0046 H   0  0  0  0  0  0  0  0  0  0  0  0
    3.0054    2.7201    0.0264 H   0  0  0  0  0  0  0  0  0  0  0  0
    5.6964    1.7735   -0.8584 H   0  0  0  0  0  0  0  0  0  0  0  0
    5.6468   -1.3683   -0.8724 H   0  0  0  0  0  0  0  0  0  0  0  0
   -6.3682    0.0164   -0.8766 H   0  0  0  0  0  0  0  0  0  0  0  0
  1  2  2  0  0  0  0
  2  3  1  0  0  0  0
  3  4  2  0  0  0  0
  4  5  1  0  0  0  0
  5  6  2  0  0  0  0
  1  6  1  0  0  0  0
  6  7  1  0  0  0  0
  5  8  1  0  0  0  0
  8  9  2  0  0  0  0
  9 10  1  0  0  0  0
 10 11  2  0  0  0  0
 11 12  1  0  0  0  0
 12 13  2  0  0  0  0
 13 14  1  0  0  0  0
 14 15  2  0  0  0  0
 10 15  1  0  0  0  0
 15 16  1  0  0  0  0
  8 16  1  0  0  0  0
 13 17  1  0  0  0  0
 12 18  1  0  0  0  0
  9 19  1  0  0  0  0
 19 20  2  0  0  0  0
 19 21  1  0  0  0  0
  4 21  1  0  0  0  0
  2 22  1  0  0  0  0
  1 23  1  0  0  0  0
  3 24  1  0  0  0  0
  7 25  1  0  0  0  0
 11 26  1  0  0  0  0
 14 27  1  0  0  0  0
 17 28  1  0  0  0  0
 18 29  1  0  0  0  0
 22 30  1  0  0  0  0
M  END
$$$$
