C34H26O10
APtclcactv06281817143D 0   0.00000     0.00000
 
 70 75  0  0  0  0  0  0  0  0999 V2000
    4.2973    7.1092    0.4030 C   0  0  0  0  0  0  0  0  0  0  0  0
    3.0721    6.3792    0.3135 O   0  0  0  0  0  0  0  0  0  0  0  0
    3.1628    5.0558    0.0245 C   0  0  0  0  0  0  0  0  0  0  0  0
    2.0088    4.2881   -0.0769 C   0  0  0  0  0  0  0  0  0  0  0  0
    2.0963    2.9452   -0.3700 C   0  0  0  0  0  0  0  0  0  0  0  0
    3.3479    2.3548   -0.5659 C   0  0  0  0  0  0  0  0  0  0  0  0
    4.5059    3.1308   -0.4633 C   0  0  0  0  0  0  0  0  0  0  0  0
    4.4090    4.4740   -0.1747 C   0  0  0  0  0  0  0  0  0  0  0  0
    3.4465    0.9168   -0.8794 C   0  0  0  0  0  0  0  0  0  0  0  0
    4.3628    0.5084   -1.7984 C   0  0  0  0  0  0  0  0  0  0  0  0
    4.4713   -0.8672   -2.1110 C   0  0  0  0  0  0  0  0  0  0  0  0
    5.2820   -1.2693   -2.9298 O   0  0  0  0  0  0  0  0  0  0  0  0
    3.5678   -1.7953   -1.4091 C   0  0  0  0  0  0  0  0  0  0  0  0
    2.6587   -1.2685   -0.4786 C   0  0  0  0  0  0  0  0  0  0  0  0
    2.6326    0.0596   -0.2432 O   0  0  0  0  0  0  0  0  0  0  0  0
    1.7930   -2.1322    0.1978 C   0  0  0  0  0  0  0  0  0  0  0  0
    1.8418   -3.5050   -0.0586 C   0  0  0  0  0  0  0  0  0  0  0  0
    2.7445   -4.0180   -0.9804 C   0  0  0  0  0  0  0  0  0  0  0  0
    3.6063   -3.1740   -1.6574 C   0  0  0  0  0  0  0  0  0  0  0  0
    4.4868   -3.6794   -2.5578 O   0  0  0  0  0  0  0  0  0  0  0  0
    1.0007   -4.3432    0.5987 O   0  0  0  0  0  0  0  0  0  0  0  0
    1.1009   -5.7351    0.2913 C   0  0  0  0  0  0  0  0  0  0  0  0
    0.8264   -1.5939    1.1845 C   0  0  0  0  0  0  0  0  0  0  0  0
    1.1912   -1.4744    2.5314 C   0  0  0  0  0  0  0  0  0  0  0  0
    0.2864   -0.9706    3.4547 C   0  0  0  0  0  0  0  0  0  0  0  0
   -0.9743   -0.5860    3.0522 C   0  0  0  0  0  0  0  0  0  0  0  0
   -1.3489   -0.7015    1.7099 C   0  0  0  0  0  0  0  0  0  0  0  0
   -0.4418   -1.2012    0.7743 C   0  0  0  0  0  0  0  0  0  0  0  0
   -2.6993   -0.2894    1.2820 C   0  0  0  0  0  0  0  0  0  0  0  0
   -3.5601    0.1996    2.2147 C   0  0  0  0  0  0  0  0  0  0  0  0
   -4.8595    0.6004    1.8229 C   0  0  0  0  0  0  0  0  0  0  0  0
   -5.6575    1.0439    2.6328 O   0  0  0  0  0  0  0  0  0  0  0  0
   -5.2111    0.4618    0.3995 C   0  0  0  0  0  0  0  0  0  0  0  0
   -6.4740    0.8340   -0.0772 C   0  0  0  0  0  0  0  0  0  0  0  0
   -6.7646    0.6885   -1.4214 C   0  0  0  0  0  0  0  0  0  0  0  0
   -5.8085    0.1764   -2.2913 C   0  0  0  0  0  0  0  0  0  0  0  0
   -4.5560   -0.1941   -1.8260 C   0  0  0  0  0  0  0  0  0  0  0  0
   -4.2462   -0.0557   -0.4823 C   0  0  0  0  0  0  0  0  0  0  0  0
   -3.0297   -0.4064   -0.0139 O   0  0  0  0  0  0  0  0  0  0  0  0
   -6.1043    0.0373   -3.6088 O   0  0  0  0  0  0  0  0  0  0  0  0
   -7.4116    0.4363   -4.0259 C   0  0  0  0  0  0  0  0  0  0  0  0
   -7.4060    1.3332    0.7736 O   0  0  0  0  0  0  0  0  0  0  0  0
    2.4313   -1.8525    2.9340 O   0  0  0  0  0  0  0  0  0  0  0  0
    2.7362   -1.7034    4.3221 C   0  0  0  0  0  0  0  0  0  0  0  0
    4.9195    6.6799    1.1882 H   0  0  0  0  0  0  0  0  0  0  0  0
    4.8241    7.0529   -0.5496 H   0  0  0  0  0  0  0  0  0  0  0  0
    4.0828    8.1516    0.6385 H   0  0  0  0  0  0  0  0  0  0  0  0
    1.0421    4.7451    0.0746 H   0  0  0  0  0  0  0  0  0  0  0  0
    1.1990    2.3491   -0.4479 H   0  0  0  0  0  0  0  0  0  0  0  0
    5.4751    2.6785   -0.6140 H   0  0  0  0  0  0  0  0  0  0  0  0
    5.3033    5.0743   -0.0953 H   0  0  0  0  0  0  0  0  0  0  0  0
    5.0024    1.2291   -2.2861 H   0  0  0  0  0  0  0  0  0  0  0  0
    2.7737   -5.0808   -1.1699 H   0  0  0  0  0  0  0  0  0  0  0  0
    4.1424   -3.7280   -3.4601 H   0  0  0  0  0  0  0  0  0  0  0  0
    2.1059   -6.0871    0.5237 H   0  0  0  0  0  0  0  0  0  0  0  0
    0.3749   -6.2913    0.8843 H   0  0  0  0  0  0  0  0  0  0  0  0
    0.8982   -5.8887   -0.7686 H   0  0  0  0  0  0  0  0  0  0  0  0
    0.5709   -0.8798    4.4926 H   0  0  0  0  0  0  0  0  0  0  0  0
   -1.6747   -0.1948    3.7752 H   0  0  0  0  0  0  0  0  0  0  0  0
   -0.7279   -1.2917   -0.2632 H   0  0  0  0  0  0  0  0  0  0  0  0
   -3.2542    0.2812    3.2472 H   0  0  0  0  0  0  0  0  0  0  0  0
   -7.7367    0.9730   -1.7963 H   0  0  0  0  0  0  0  0  0  0  0  0
   -3.8214   -0.5910   -2.5110 H   0  0  0  0  0  0  0  0  0  0  0  0
   -7.5162    0.2734   -5.0986 H   0  0  0  0  0  0  0  0  0  0  0  0
   -8.1583   -0.1534   -3.4942 H   0  0  0  0  0  0  0  0  0  0  0  0
   -7.5572    1.4933   -3.8030 H   0  0  0  0  0  0  0  0  0  0  0  0
   -7.3776    2.2952    0.8676 H   0  0  0  0  0  0  0  0  0  0  0  0
    2.6439   -0.6545    4.6038 H   0  0  0  0  0  0  0  0  0  0  0  0
    2.0417   -2.3007    4.9129 H   0  0  0  0  0  0  0  0  0  0  0  0
    3.7556   -2.0413    4.5085 H   0  0  0  0  0  0  0  0  0  0  0  0
  1  2  1  0  0  0  0
  2  3  1  0  0  0  0
  3  4  2  0  0  0  0
  4  5  1  0  0  0  0
  5  6  2  0  0  0  0
  6  7  1  0  0  0  0
  7  8  2  0  0  0  0
  3  8  1  0  0  0  0
  6  9  1  0  0  0  0
  9 10  2  0  0  0  0
 10 11  1  0  0  0  0
 11 12  2  0  0  0  0
 11 13  1  0  0  0  0
 13 14  2  0  0  0  0
 14 15  1  0  0  0  0
  9 15  1  0  0  0  0
 14 16  1  0  0  0  0
 16 17  2  0  0  0  0
 17 18  1  0  0  0  0
 18 19  2  0  0  0  0
 13 19  1  0  0  0  0
 19 20  1  0  0  0  0
 17 21  1  0  0  0  0
 21 22  1  0  0  0  0
 16 23  1  0  0  0  0
 23 24  2  0  0  0  0
 24 25  1  0  0  0  0
 25 26  2  0  0  0  0
 26 27  1  0  0  0  0
 27 28  2  0  0  0  0
 23 28  1  0  0  0  0
 27 29  1  0  0  0  0
 29 30  2  0  0  0  0
 30 31  1  0  0  0  0
 31 32  2  0  0  0  0
 31 33  1  0  0  0  0
 33 34  2  0  0  0  0
 34 35  1  0  0  0  0
 35 36  2  0  0  0  0
 36 37  1  0  0  0  0
 37 38  2  0  0  0  0
 33 38  1  0  0  0  0
 38 39  1  0  0  0  0
 29 39  1  0  0  0  0
 36 40  1  0  0  0  0
 40 41  1  0  0  0  0
 34 42  1  0  0  0  0
 24 43  1  0  0  0  0
 43 44  1  0  0  0  0
  1 45  1  0  0  0  0
  1 46  1  0  0  0  0
  1 47  1  0  0  0  0
  4 48  1  0  0  0  0
  5 49  1  0  0  0  0
  7 50  1  0  0  0  0
  8 51  1  0  0  0  0
 10 52  1  0  0  0  0
 18 53  1  0  0  0  0
 20 54  1  0  0  0  0
 22 55  1  0  0  0  0
 22 56  1  0  0  0  0
 22 57  1  0  0  0  0
 25 58  1  0  0  0  0
 26 59  1  0  0  0  0
 28 60  1  0  0  0  0
 30 61  1  0  0  0  0
 35 62  1  0  0  0  0
 37 63  1  0  0  0  0
 41 64  1  0  0  0  0
 41 65  1  0  0  0  0
 41 66  1  0  0  0  0
 42 67  1  0  0  0  0
 44 68  1  0  0  0  0
 44 69  1  0  0  0  0
 44 70  1  0  0  0  0
M  END
$$$$
