C23H20O7
APtclcactv06281817143D 0   0.00000     0.00000
 
 50 54  0  0  0  0  0  0  0  0999 V2000
   -6.2249    0.3233    1.4217 C   0  0  0  0  0  0  0  0  0  0  0  0
   -6.0162    0.5257   -0.0804 C   0  0  0  0  0  0  0  0  0  0  0  0
   -5.2269    1.7883   -0.3058 C   0  0  0  0  0  0  0  0  0  0  0  0
   -3.8976    1.7462   -0.3441 C   0  0  0  0  0  0  0  0  0  0  0  0
   -3.2320    0.4361   -0.1949 C   0  0  0  0  0  0  0  0  0  0  0  0
   -1.8577    0.3442    0.0407 C   0  0  0  0  0  0  0  0  0  0  0  0
   -1.2818   -0.9316    0.1732 C   0  0  0  0  0  0  0  0  0  0  0  0
   -2.0697   -2.0857    0.0834 C   0  0  0  0  0  0  0  0  0  0  0  0
   -3.4272   -1.9761   -0.1685 C   0  0  0  0  0  0  0  0  0  0  0  0
   -4.0065   -0.7258   -0.3203 C   0  0  0  0  0  0  0  0  0  0  0  0
   -5.3263   -0.6032   -0.6154 O   0  0  0  0  0  0  0  0  0  0  0  0
   -1.5045   -3.3087    0.2423 O   0  0  0  0  0  0  0  0  0  0  0  0
    0.1741   -1.0083    0.3957 C   0  0  0  0  0  0  0  0  0  0  0  0
    0.7259   -2.0394    0.7404 O   0  0  0  0  0  0  0  0  0  0  0  0
    0.9146    0.2403    0.1747 C   0  0  0  0  0  0  0  0  0  0  0  0
    0.2266    1.4093    0.0479 C   0  0  0  0  0  0  0  0  0  0  0  0
   -1.1060    1.4543    0.1475 O   0  0  0  0  0  0  0  0  0  0  0  0
    1.0024    2.6774   -0.2214 C   0  0  0  0  0  0  0  0  0  0  0  0
    2.2844    2.6189    0.4024 O   0  0  0  0  0  0  0  0  0  0  0  0
    3.0357    1.5041    0.2084 C   0  0  0  0  0  0  0  0  0  0  0  0
    4.4131    1.5721    0.1252 C   0  0  0  0  0  0  0  0  0  0  0  0
    5.1524    0.4147   -0.0709 C   0  0  0  0  0  0  0  0  0  0  0  0
    4.5132   -0.8167   -0.1844 C   0  0  0  0  0  0  0  0  0  0  0  0
    3.1326   -0.8933   -0.1034 C   0  0  0  0  0  0  0  0  0  0  0  0
    2.3907    0.2643    0.0910 C   0  0  0  0  0  0  0  0  0  0  0  0
    5.2459   -1.9471   -0.3759 O   0  0  0  0  0  0  0  0  0  0  0  0
    4.5257   -3.1766   -0.4839 C   0  0  0  0  0  0  0  0  0  0  0  0
    6.5082    0.4836   -0.1530 O   0  0  0  0  0  0  0  0  0  0  0  0
    7.1008    1.7779   -0.0287 C   0  0  0  0  0  0  0  0  0  0  0  0
   -7.3783    0.6538   -0.7655 C   0  0  0  0  0  0  0  0  0  0  0  0
   -6.7708    1.1736    1.8305 H   0  0  0  0  0  0  0  0  0  0  0  0
   -6.7960   -0.5898    1.5895 H   0  0  0  0  0  0  0  0  0  0  0  0
   -5.2565    0.2420    1.9154 H   0  0  0  0  0  0  0  0  0  0  0  0
   -5.7406    2.7293   -0.4363 H   0  0  0  0  0  0  0  0  0  0  0  0
   -3.3193    2.6480   -0.4812 H   0  0  0  0  0  0  0  0  0  0  0  0
   -4.0349   -2.8654   -0.2471 H   0  0  0  0  0  0  0  0  0  0  0  0
   -1.4983   -3.6232    1.1567 H   0  0  0  0  0  0  0  0  0  0  0  0
    1.1301    2.8003   -1.2969 H   0  0  0  0  0  0  0  0  0  0  0  0
    0.4483    3.5294    0.1726 H   0  0  0  0  0  0  0  0  0  0  0  0
    4.9136    2.5251    0.2124 H   0  0  0  0  0  0  0  0  0  0  0  0
    2.6357   -1.8482   -0.1913 H   0  0  0  0  0  0  0  0  0  0  0  0
    3.9582   -3.3469    0.4311 H   0  0  0  0  0  0  0  0  0  0  0  0
    3.8418   -3.1239   -1.3310 H   0  0  0  0  0  0  0  0  0  0  0  0
    5.2276   -3.9969   -0.6340 H   0  0  0  0  0  0  0  0  0  0  0  0
    6.7261    2.4266   -0.8206 H   0  0  0  0  0  0  0  0  0  0  0  0
    6.8441    2.2035    0.9414 H   0  0  0  0  0  0  0  0  0  0  0  0
    8.1841    1.6911   -0.1123 H   0  0  0  0  0  0  0  0  0  0  0  0
   -7.9138    1.5087   -0.3523 H   0  0  0  0  0  0  0  0  0  0  0  0
   -7.2343    0.7982   -1.8362 H   0  0  0  0  0  0  0  0  0  0  0  0
   -7.9571   -0.2540   -0.5959 H   0  0  0  0  0  0  0  0  0  0  0  0
  1  2  1  0  0  0  0
  2  3  1  0  0  0  0
  3  4  2  0  0  0  0
  4  5  1  0  0  0  0
  5  6  2  0  0  0  0
  6  7  1  0  0  0  0
  7  8  2  0  0  0  0
  8  9  1  0  0  0  0
  9 10  2  0  0  0  0
  5 10  1  0  0  0  0
 10 11  1  0  0  0  0
  2 11  1  0  0  0  0
  8 12  1  0  0  0  0
  7 13  1  0  0  0  0
 13 14  2  0  0  0  0
 13 15  1  0  0  0  0
 15 16  2  0  0  0  0
 16 17  1  0  0  0  0
  6 17  1  0  0  0  0
 16 18  1  0  0  0  0
 18 19  1  0  0  0  0
 19 20  1  0  0  0  0
 20 21  2  0  0  0  0
 21 22  1  0  0  0  0
 22 23  2  0  0  0  0
 23 24  1  0  0  0  0
 24 25  2  0  0  0  0
 20 25  1  0  0  0  0
 15 25  1  0  0  0  0
 23 26  1  0  0  0  0
 26 27  1  0  0  0  0
 22 28  1  0  0  0  0
 28 29  1  0  0  0  0
  2 30  1  0  0  0  0
  1 31  1  0  0  0  0
  1 32  1  0  0  0  0
  1 33  1  0  0  0  0
  3 34  1  0  0  0  0
  4 35  1  0  0  0  0
  9 36  1  0  0  0  0
 12 37  1  0  0  0  0
 18 38  1  0  0  0  0
 18 39  1  0  0  0  0
 21 40  1  0  0  0  0
 24 41  1  0  0  0  0
 27 42  1  0  0  0  0
 27 43  1  0  0  0  0
 27 44  1  0  0  0  0
 29 45  1  0  0  0  0
 29 46  1  0  0  0  0
 29 47  1  0  0  0  0
 30 48  1  0  0  0  0
 30 49  1  0  0  0  0
 30 50  1  0  0  0  0
M  END
$$$$
