C19H18O7
APtclcactv06281817143D 0   0.00000     0.00000
 
 44 46  0  0  0  0  0  0  0  0999 V2000
   -7.0206   -1.3221   -0.7266 C   0  0  0  0  0  0  0  0  0  0  0  0
   -6.3315   -0.1707   -0.2353 O   0  0  0  0  0  0  0  0  0  0  0  0
   -4.9762   -0.2419   -0.1754 C   0  0  0  0  0  0  0  0  0  0  0  0
   -4.2428    0.8464    0.2944 C   0  0  0  0  0  0  0  0  0  0  0  0
   -2.8645    0.7756    0.3564 C   0  0  0  0  0  0  0  0  0  0  0  0
   -2.2087   -0.3889   -0.0526 C   0  0  0  0  0  0  0  0  0  0  0  0
   -2.9503   -1.4762   -0.5225 C   0  0  0  0  0  0  0  0  0  0  0  0
   -4.3253   -1.4004   -0.5767 C   0  0  0  0  0  0  0  0  0  0  0  0
   -0.7372   -0.4698    0.0110 C   0  0  0  0  0  0  0  0  0  0  0  0
   -0.1630   -1.6349    0.4157 C   0  0  0  0  0  0  0  0  0  0  0  0
    1.2468   -1.7316    0.4825 C   0  0  0  0  0  0  0  0  0  0  0  0
    1.7954   -2.7614    0.8408 O   0  0  0  0  0  0  0  0  0  0  0  0
    2.0269   -0.5415    0.1025 C   0  0  0  0  0  0  0  0  0  0  0  0
    3.4261   -0.5483    0.1384 C   0  0  0  0  0  0  0  0  0  0  0  0
    4.1233    0.5922   -0.2273 C   0  0  0  0  0  0  0  0  0  0  0  0
    3.4330    1.7348   -0.6267 C   0  0  0  0  0  0  0  0  0  0  0  0
    2.0475    1.7455   -0.6631 C   0  0  0  0  0  0  0  0  0  0  0  0
    1.3343    0.6134   -0.3016 C   0  0  0  0  0  0  0  0  0  0  0  0
   -0.0158    0.6071   -0.3378 O   0  0  0  0  0  0  0  0  0  0  0  0
    4.1242    2.8485   -0.9832 O   0  0  0  0  0  0  0  0  0  0  0  0
    5.4844    0.5963   -0.1960 O   0  0  0  0  0  0  0  0  0  0  0  0
    6.1040    1.0088    1.0238 C   0  0  0  0  0  0  0  0  0  0  0  0
    4.0953   -1.6639    0.5292 O   0  0  0  0  0  0  0  0  0  0  0  0
    4.5469   -2.5441   -0.5020 C   0  0  0  0  0  0  0  0  0  0  0  0
   -4.8841    1.9781    0.6912 O   0  0  0  0  0  0  0  0  0  0  0  0
   -4.0699    3.0542    1.1614 C   0  0  0  0  0  0  0  0  0  0  0  0
   -6.6932   -1.5347   -1.7444 H   0  0  0  0  0  0  0  0  0  0  0  0
   -6.8002   -2.1775   -0.0880 H   0  0  0  0  0  0  0  0  0  0  0  0
   -8.0939   -1.1325   -0.7224 H   0  0  0  0  0  0  0  0  0  0  0  0
   -2.2950    1.6182    0.7198 H   0  0  0  0  0  0  0  0  0  0  0  0
   -2.4462   -2.3773   -0.8392 H   0  0  0  0  0  0  0  0  0  0  0  0
   -4.8973   -2.2416   -0.9397 H   0  0  0  0  0  0  0  0  0  0  0  0
   -0.7793   -2.4801    0.6844 H   0  0  0  0  0  0  0  0  0  0  0  0
    1.5230    2.6370   -0.9737 H   0  0  0  0  0  0  0  0  0  0  0  0
    4.3444    2.8904   -1.9238 H   0  0  0  0  0  0  0  0  0  0  0  0
    5.7398    1.9984    1.2998 H   0  0  0  0  0  0  0  0  0  0  0  0
    5.8599    0.2984    1.8137 H   0  0  0  0  0  0  0  0  0  0  0  0
    7.1850    1.0442    0.8884 H   0  0  0  0  0  0  0  0  0  0  0  0
    5.1008   -3.3708   -0.0572 H   0  0  0  0  0  0  0  0  0  0  0  0
    3.6883   -2.9343   -1.0484 H   0  0  0  0  0  0  0  0  0  0  0  0
    5.1960   -1.9986   -1.1869 H   0  0  0  0  0  0  0  0  0  0  0  0
   -4.7051    3.8933    1.4452 H   0  0  0  0  0  0  0  0  0  0  0  0
   -3.4959    2.7240    2.0272 H   0  0  0  0  0  0  0  0  0  0  0  0
   -3.3877    3.3661    0.3706 H   0  0  0  0  0  0  0  0  0  0  0  0
  1  2  1  0  0  0  0
  2  3  1  0  0  0  0
  3  4  2  0  0  0  0
  4  5  1  0  0  0  0
  5  6  2  0  0  0  0
  6  7  1  0  0  0  0
  7  8  2  0  0  0  0
  3  8  1  0  0  0  0
  6  9  1  0  0  0  0
  9 10  2  0  0  0  0
 10 11  1  0  0  0  0
 11 12  2  0  0  0  0
 11 13  1  0  0  0  0
 13 14  2  0  0  0  0
 14 15  1  0  0  0  0
 15 16  2  0  0  0  0
 16 17  1  0  0  0  0
 17 18  2  0  0  0  0
 13 18  1  0  0  0  0
 18 19  1  0  0  0  0
  9 19  1  0  0  0  0
 16 20  1  0  0  0  0
 15 21  1  0  0  0  0
 21 22  1  0  0  0  0
 14 23  1  0  0  0  0
 23 24  1  0  0  0  0
  4 25  1  0  0  0  0
 25 26  1  0  0  0  0
  1 27  1  0  0  0  0
  1 28  1  0  0  0  0
  1 29  1  0  0  0  0
  5 30  1  0  0  0  0
  7 31  1  0  0  0  0
  8 32  1  0  0  0  0
 10 33  1  0  0  0  0
 17 34  1  0  0  0  0
 20 35  1  0  0  0  0
 22 36  1  0  0  0  0
 22 37  1  0  0  0  0
 22 38  1  0  0  0  0
 24 39  1  0  0  0  0
 24 40  1  0  0  0  0
 24 41  1  0  0  0  0
 26 42  1  0  0  0  0
 26 43  1  0  0  0  0
 26 44  1  0  0  0  0
M  END
$$$$
