C19H18O8
APtclcactv06281817143D 0   0.00000     0.00000
 
 45 47  0  0  0  0  0  0  0  0999 V2000
    7.0313   -1.6407   -0.6472 C   0  0  0  0  0  0  0  0  0  0  0  0
    6.5002   -0.7275    0.3152 O   0  0  0  0  0  0  0  0  0  0  0  0
    5.1683   -0.4708    0.2519 C   0  0  0  0  0  0  0  0  0  0  0  0
    4.5884    0.4080    1.1587 C   0  0  0  0  0  0  0  0  0  0  0  0
    3.2377    0.6714    1.0983 C   0  0  0  0  0  0  0  0  0  0  0  0
    2.4503    0.0533    0.1226 C   0  0  0  0  0  0  0  0  0  0  0  0
    3.0380   -0.8297   -0.7878 C   0  0  0  0  0  0  0  0  0  0  0  0
    4.3904   -1.0834   -0.7229 C   0  0  0  0  0  0  0  0  0  0  0  0
    1.0038    0.3317    0.0543 C   0  0  0  0  0  0  0  0  0  0  0  0
    0.5816    1.6265    0.1050 C   0  0  0  0  0  0  0  0  0  0  0  0
   -0.8065    1.9113    0.0405 C   0  0  0  0  0  0  0  0  0  0  0  0
   -1.2209    3.0588    0.0826 O   0  0  0  0  0  0  0  0  0  0  0  0
   -1.7277    0.7697   -0.0798 C   0  0  0  0  0  0  0  0  0  0  0  0
   -1.1873   -0.5275   -0.1237 C   0  0  0  0  0  0  0  0  0  0  0  0
    0.1511   -0.7004   -0.0612 O   0  0  0  0  0  0  0  0  0  0  0  0
   -2.0397   -1.6196   -0.2370 C   0  0  0  0  0  0  0  0  0  0  0  0
   -3.4122   -1.4247   -0.3057 C   0  0  0  0  0  0  0  0  0  0  0  0
   -3.9489   -0.1394   -0.2627 C   0  0  0  0  0  0  0  0  0  0  0  0
   -3.1134    0.9596   -0.1491 C   0  0  0  0  0  0  0  0  0  0  0  0
   -3.6349    2.2140   -0.1072 O   0  0  0  0  0  0  0  0  0  0  0  0
   -5.2972    0.0365   -0.3316 O   0  0  0  0  0  0  0  0  0  0  0  0
   -6.0140    0.0468    0.9045 C   0  0  0  0  0  0  0  0  0  0  0  0
   -4.2403   -2.4972   -0.4164 O   0  0  0  0  0  0  0  0  0  0  0  0
   -1.5282   -2.8807   -0.2810 O   0  0  0  0  0  0  0  0  0  0  0  0
   -1.3581   -3.5557    0.9670 C   0  0  0  0  0  0  0  0  0  0  0  0
    1.4848    2.6384    0.2171 O   0  0  0  0  0  0  0  0  0  0  0  0
    1.5907    3.5389   -0.8874 C   0  0  0  0  0  0  0  0  0  0  0  0
    8.1031   -1.7563   -0.4855 H   0  0  0  0  0  0  0  0  0  0  0  0
    6.5412   -2.6082   -0.5391 H   0  0  0  0  0  0  0  0  0  0  0  0
    6.8549   -1.2541   -1.6509 H   0  0  0  0  0  0  0  0  0  0  0  0
    5.1976    0.8850    1.9122 H   0  0  0  0  0  0  0  0  0  0  0  0
    2.7878    1.3540    1.8039 H   0  0  0  0  0  0  0  0  0  0  0  0
    2.4333   -1.3097   -1.5430 H   0  0  0  0  0  0  0  0  0  0  0  0
    4.8453   -1.7655   -1.4259 H   0  0  0  0  0  0  0  0  0  0  0  0
   -3.8382    2.5258    0.7853 H   0  0  0  0  0  0  0  0  0  0  0  0
   -7.0759    0.1947    0.7075 H   0  0  0  0  0  0  0  0  0  0  0  0
   -5.8686   -0.9042    1.4169 H   0  0  0  0  0  0  0  0  0  0  0  0
   -5.6446    0.8579    1.5321 H   0  0  0  0  0  0  0  0  0  0  0  0
   -4.5312   -2.8587    0.4320 H   0  0  0  0  0  0  0  0  0  0  0  0
   -0.6772   -2.9853    1.5988 H   0  0  0  0  0  0  0  0  0  0  0  0
   -2.3235   -3.6484    1.4645 H   0  0  0  0  0  0  0  0  0  0  0  0
   -0.9439   -4.5482    0.7898 H   0  0  0  0  0  0  0  0  0  0  0  0
    1.7814    2.9738   -1.7998 H   0  0  0  0  0  0  0  0  0  0  0  0
    0.6596    4.0957   -0.9928 H   0  0  0  0  0  0  0  0  0  0  0  0
    2.4118    4.2339   -0.7121 H   0  0  0  0  0  0  0  0  0  0  0  0
  1  2  1  0  0  0  0
  2  3  1  0  0  0  0
  3  4  2  0  0  0  0
  4  5  1  0  0  0  0
  5  6  2  0  0  0  0
  6  7  1  0  0  0  0
  7  8  2  0  0  0  0
  3  8  1  0  0  0  0
  6  9  1  0  0  0  0
  9 10  2  0  0  0  0
 10 11  1  0  0  0  0
 11 12  2  0  0  0  0
 11 13  1  0  0  0  0
 13 14  2  0  0  0  0
 14 15  1  0  0  0  0
  9 15  1  0  0  0  0
 14 16  1  0  0  0  0
 16 17  2  0  0  0  0
 17 18  1  0  0  0  0
 18 19  2  0  0  0  0
 13 19  1  0  0  0  0
 19 20  1  0  0  0  0
 18 21  1  0  0  0  0
 21 22  1  0  0  0  0
 17 23  1  0  0  0  0
 16 24  1  0  0  0  0
 24 25  1  0  0  0  0
 10 26  1  0  0  0  0
 26 27  1  0  0  0  0
  1 28  1  0  0  0  0
  1 29  1  0  0  0  0
  1 30  1  0  0  0  0
  4 31  1  0  0  0  0
  5 32  1  0  0  0  0
  7 33  1  0  0  0  0
  8 34  1  0  0  0  0
 20 35  1  0  0  0  0
 22 36  1  0  0  0  0
 22 37  1  0  0  0  0
 22 38  1  0  0  0  0
 23 39  1  0  0  0  0
 25 40  1  0  0  0  0
 25 41  1  0  0  0  0
 25 42  1  0  0  0  0
 27 43  1  0  0  0  0
 27 44  1  0  0  0  0
 27 45  1  0  0  0  0
M  END
$$$$
