C15H10O6
APtclcactv06281817143D 0   0.00000     0.00000
 
 31 33  0  0  0  0  0  0  0  0999 V2000
   -2.8790    0.4086   -1.0490 C   0  0  0  0  0  0  0  0  0  0  0  0
   -4.2482    0.5377   -1.1547 C   0  0  0  0  0  0  0  0  0  0  0  0
   -5.0762   -0.0271   -0.1944 C   0  0  0  0  0  0  0  0  0  0  0  0
   -4.5297   -0.7233    0.8748 C   0  0  0  0  0  0  0  0  0  0  0  0
   -3.1613   -0.8563    0.9859 C   0  0  0  0  0  0  0  0  0  0  0  0
   -2.3271   -0.2903    0.0233 C   0  0  0  0  0  0  0  0  0  0  0  0
   -0.8552   -0.4319    0.1395 C   0  0  0  0  0  0  0  0  0  0  0  0
   -0.2612   -1.6497    0.0482 C   0  0  0  0  0  0  0  0  0  0  0  0
    1.0547   -1.8284    0.1644 O   0  0  0  0  0  0  0  0  0  0  0  0
    1.9132   -0.7944    0.0667 C   0  0  0  0  0  0  0  0  0  0  0  0
    1.4507    0.5301    0.1663 C   0  0  0  0  0  0  0  0  0  0  0  0
    0.0067    0.7477    0.3516 C   0  0  0  0  0  0  0  0  0  0  0  0
   -0.4494    1.8328    0.6694 O   0  0  0  0  0  0  0  0  0  0  0  0
    2.3444    1.6041    0.0812 C   0  0  0  0  0  0  0  0  0  0  0  0
    3.6903    1.3564   -0.1149 C   0  0  0  0  0  0  0  0  0  0  0  0
    4.1499    0.0485   -0.2241 C   0  0  0  0  0  0  0  0  0  0  0  0
    3.2711   -1.0222   -0.1335 C   0  0  0  0  0  0  0  0  0  0  0  0
    3.7384   -2.2966   -0.2412 O   0  0  0  0  0  0  0  0  0  0  0  0
    5.4737   -0.1839   -0.4217 O   0  0  0  0  0  0  0  0  0  0  0  0
    1.8927    2.8799    0.1901 O   0  0  0  0  0  0  0  0  0  0  0  0
   -6.4250    0.1023   -0.3012 O   0  0  0  0  0  0  0  0  0  0  0  0
   -2.2354    0.8448   -1.7987 H   0  0  0  0  0  0  0  0  0  0  0  0
   -4.6764    1.0791   -1.9853 H   0  0  0  0  0  0  0  0  0  0  0  0
   -5.1766   -1.1610    1.6207 H   0  0  0  0  0  0  0  0  0  0  0  0
   -2.7367   -1.3982    1.8181 H   0  0  0  0  0  0  0  0  0  0  0  0
   -0.8844   -2.5143   -0.1265 H   0  0  0  0  0  0  0  0  0  0  0  0
    4.3857    2.1798   -0.1838 H   0  0  0  0  0  0  0  0  0  0  0  0
    3.9979   -2.6930    0.6018 H   0  0  0  0  0  0  0  0  0  0  0  0
    5.9824   -0.2801    0.3951 H   0  0  0  0  0  0  0  0  0  0  0  0
    1.8831    3.2179    1.0960 H   0  0  0  0  0  0  0  0  0  0  0  0
   -6.8498   -0.6078   -0.8015 H   0  0  0  0  0  0  0  0  0  0  0  0
  1  2  2  0  0  0  0
  2  3  1  0  0  0  0
  3  4  2  0  0  0  0
  4  5  1  0  0  0  0
  5  6  2  0  0  0  0
  1  6  1  0  0  0  0
  6  7  1  0  0  0  0
  7  8  2  0  0  0  0
  8  9  1  0  0  0  0
  9 10  1  0  0  0  0
 10 11  2  0  0  0  0
 11 12  1  0  0  0  0
  7 12  1  0  0  0  0
 12 13  2  0  0  0  0
 11 14  1  0  0  0  0
 14 15  2  0  0  0  0
 15 16  1  0  0  0  0
 16 17  2  0  0  0  0
 10 17  1  0  0  0  0
 17 18  1  0  0  0  0
 16 19  1  0  0  0  0
 14 20  1  0  0  0  0
  3 21  1  0  0  0  0
  1 22  1  0  0  0  0
  2 23  1  0  0  0  0
  4 24  1  0  0  0  0
  5 25  1  0  0  0  0
  8 26  1  0  0  0  0
 15 27  1  0  0  0  0
 18 28  1  0  0  0  0
 19 29  1  0  0  0  0
 20 30  1  0  0  0  0
 21 31  1  0  0  0  0
M  END
$$$$
