C20H18O5
APtclcactv06281817143D 0   0.00000     0.00000
 
 43 45  0  0  0  0  0  0  0  0999 V2000
   -6.6687   -0.3832   -1.4625 C   0  0  0  0  0  0  0  0  0  0  0  0
   -5.9990   -1.3308   -0.5009 C   0  0  0  0  0  0  0  0  0  0  0  0
   -4.6917   -1.3991   -0.4523 C   0  0  0  0  0  0  0  0  0  0  0  0
   -3.8564   -0.4392   -1.2597 C   0  0  0  0  0  0  0  0  0  0  0  0
   -2.8811    0.2646   -0.3517 C   0  0  0  0  0  0  0  0  0  0  0  0
   -3.3036    1.3366    0.4218 C   0  0  0  0  0  0  0  0  0  0  0  0
   -2.4081    1.9875    1.2595 C   0  0  0  0  0  0  0  0  0  0  0  0
   -1.0953    1.5704    1.3254 C   0  0  0  0  0  0  0  0  0  0  0  0
   -0.6677    0.4938    0.5497 C   0  0  0  0  0  0  0  0  0  0  0  0
   -1.5705   -0.1611   -0.2860 C   0  0  0  0  0  0  0  0  0  0  0  0
    0.7437    0.0429    0.6179 C   0  0  0  0  0  0  0  0  0  0  0  0
    1.0621   -1.1848    1.1028 C   0  0  0  0  0  0  0  0  0  0  0  0
    2.3165   -1.6266    1.1989 O   0  0  0  0  0  0  0  0  0  0  0  0
    3.3229   -1.0249    0.5364 C   0  0  0  0  0  0  0  0  0  0  0  0
    4.5417   -1.6688    0.3740 C   0  0  0  0  0  0  0  0  0  0  0  0
    5.5768   -1.0396   -0.2991 C   0  0  0  0  0  0  0  0  0  0  0  0
    5.4139    0.2401   -0.8183 C   0  0  0  0  0  0  0  0  0  0  0  0
    4.2069    0.8987   -0.6710 C   0  0  0  0  0  0  0  0  0  0  0  0
    3.1544    0.2645   -0.0004 C   0  0  0  0  0  0  0  0  0  0  0  0
    1.8425    0.9135    0.1547 C   0  0  0  0  0  0  0  0  0  0  0  0
    1.6738    2.0980   -0.0798 O   0  0  0  0  0  0  0  0  0  0  0  0
    4.0439    2.1490   -1.1725 O   0  0  0  0  0  0  0  0  0  0  0  0
    6.7638   -1.6799   -0.4530 O   0  0  0  0  0  0  0  0  0  0  0  0
   -4.5967    1.7504    0.3587 O   0  0  0  0  0  0  0  0  0  0  0  0
   -6.8331   -2.1998    0.4047 C   0  0  0  0  0  0  0  0  0  0  0  0
   -6.3104   -0.5779   -2.4733 H   0  0  0  0  0  0  0  0  0  0  0  0
   -7.7481   -0.5303   -1.4250 H   0  0  0  0  0  0  0  0  0  0  0  0
   -6.4321    0.6438   -1.1845 H   0  0  0  0  0  0  0  0  0  0  0  0
   -4.2124   -2.1433    0.1665 H   0  0  0  0  0  0  0  0  0  0  0  0
   -3.3086   -0.9891   -2.0250 H   0  0  0  0  0  0  0  0  0  0  0  0
   -4.5056    0.2961   -1.7352 H   0  0  0  0  0  0  0  0  0  0  0  0
   -2.7399    2.8217    1.8600 H   0  0  0  0  0  0  0  0  0  0  0  0
   -0.3990    2.0774    1.9771 H   0  0  0  0  0  0  0  0  0  0  0  0
   -1.2424   -0.9956   -0.8880 H   0  0  0  0  0  0  0  0  0  0  0  0
    0.2618   -1.8338    1.4262 H   0  0  0  0  0  0  0  0  0  0  0  0
    4.6838   -2.6621    0.7734 H   0  0  0  0  0  0  0  0  0  0  0  0
    6.2308    0.7201   -1.3367 H   0  0  0  0  0  0  0  0  0  0  0  0
    3.7162    2.1683   -2.0821 H   0  0  0  0  0  0  0  0  0  0  0  0
    6.8227   -2.2109   -1.2590 H   0  0  0  0  0  0  0  0  0  0  0  0
   -5.1804    1.3152    0.9951 H   0  0  0  0  0  0  0  0  0  0  0  0
   -7.0460   -3.1453   -0.0941 H   0  0  0  0  0  0  0  0  0  0  0  0
   -6.2872   -2.3912    1.3285 H   0  0  0  0  0  0  0  0  0  0  0  0
   -7.7695   -1.6915    0.6346 H   0  0  0  0  0  0  0  0  0  0  0  0
  1  2  1  0  0  0  0
  2  3  2  0  0  0  0
  3  4  1  0  0  0  0
  4  5  1  0  0  0  0
  5  6  2  0  0  0  0
  6  7  1  0  0  0  0
  7  8  2  0  0  0  0
  8  9  1  0  0  0  0
  9 10  2  0  0  0  0
  5 10  1  0  0  0  0
  9 11  1  0  0  0  0
 11 12  2  0  0  0  0
 12 13  1  0  0  0  0
 13 14  1  0  0  0  0
 14 15  2  0  0  0  0
 15 16  1  0  0  0  0
 16 17  2  0  0  0  0
 17 18  1  0  0  0  0
 18 19  2  0  0  0  0
 14 19  1  0  0  0  0
 19 20  1  0  0  0  0
 11 20  1  0  0  0  0
 20 21  2  0  0  0  0
 18 22  1  0  0  0  0
 16 23  1  0  0  0  0
  6 24  1  0  0  0  0
  2 25  1  0  0  0  0
  1 26  1  0  0  0  0
  1 27  1  0  0  0  0
  1 28  1  0  0  0  0
  3 29  1  0  0  0  0
  4 30  1  0  0  0  0
  4 31  1  0  0  0  0
  7 32  1  0  0  0  0
  8 33  1  0  0  0  0
 10 34  1  0  0  0  0
 12 35  1  0  0  0  0
 15 36  1  0  0  0  0
 17 37  1  0  0  0  0
 22 38  1  0  0  0  0
 23 39  1  0  0  0  0
 24 40  1  0  0  0  0
 25 41  1  0  0  0  0
 25 42  1  0  0  0  0
 25 43  1  0  0  0  0
M  END
$$$$
