C32H22O10
APtclcactv06281817143D 0   0.00000     0.00000
 
 64 69  0  0  0  0  0  0  0  0999 V2000
   -2.4700    1.4030   -4.3762 C   0  0  0  0  0  0  0  0  0  0  0  0
   -2.2722    1.5426   -2.9678 O   0  0  0  0  0  0  0  0  0  0  0  0
   -1.0372    1.2487   -2.4868 C   0  0  0  0  0  0  0  0  0  0  0  0
   -0.7748    1.3641   -1.1160 C   0  0  0  0  0  0  0  0  0  0  0  0
    0.4902    1.0627   -0.6264 C   0  0  0  0  0  0  0  0  0  0  0  0
    1.4921    0.6465   -1.5046 C   0  0  0  0  0  0  0  0  0  0  0  0
    1.2194    0.5347   -2.8715 C   0  0  0  0  0  0  0  0  0  0  0  0
   -0.0380    0.8290   -3.3531 C   0  0  0  0  0  0  0  0  0  0  0  0
    2.8373    0.3254   -0.9913 C   0  0  0  0  0  0  0  0  0  0  0  0
    3.7938   -0.0776   -1.8703 C   0  0  0  0  0  0  0  0  0  0  0  0
    5.0902   -0.3893   -1.3964 C   0  0  0  0  0  0  0  0  0  0  0  0
    5.9726   -0.7536   -2.1568 O   0  0  0  0  0  0  0  0  0  0  0  0
    5.3331   -0.2566    0.0501 C   0  0  0  0  0  0  0  0  0  0  0  0
    6.5857   -0.5434    0.6064 C   0  0  0  0  0  0  0  0  0  0  0  0
    6.7730   -0.4057    1.9696 C   0  0  0  0  0  0  0  0  0  0  0  0
    5.7241    0.0141    2.7799 C   0  0  0  0  0  0  0  0  0  0  0  0
    4.4813    0.2998    2.2356 C   0  0  0  0  0  0  0  0  0  0  0  0
    4.2745    0.1681    0.8716 C   0  0  0  0  0  0  0  0  0  0  0  0
    3.0722    0.4475    0.3249 O   0  0  0  0  0  0  0  0  0  0  0  0
    5.9185    0.1451    4.1171 O   0  0  0  0  0  0  0  0  0  0  0  0
    7.6080   -0.9539   -0.1862 O   0  0  0  0  0  0  0  0  0  0  0  0
   -1.8439    1.8072   -0.1895 C   0  0  0  0  0  0  0  0  0  0  0  0
   -2.0126    3.1664    0.0874 C   0  0  0  0  0  0  0  0  0  0  0  0
   -3.0113    3.5903    0.9538 C   0  0  0  0  0  0  0  0  0  0  0  0
   -3.8519    2.6700    1.5537 C   0  0  0  0  0  0  0  0  0  0  0  0
   -3.6935    1.3039    1.2841 C   0  0  0  0  0  0  0  0  0  0  0  0
   -2.6900    0.8673    0.4054 C   0  0  0  0  0  0  0  0  0  0  0  0
   -2.5466   -0.4498    0.1513 O   0  0  0  0  0  0  0  0  0  0  0  0
   -3.3365   -1.3787    0.7127 C   0  0  0  0  0  0  0  0  0  0  0  0
   -4.3375   -1.0604    1.5772 C   0  0  0  0  0  0  0  0  0  0  0  0
   -4.5707    0.2962    1.9047 C   0  0  0  0  0  0  0  0  0  0  0  0
   -5.4596    0.6184    2.6763 O   0  0  0  0  0  0  0  0  0  0  0  0
   -3.1111   -2.7978    0.3793 C   0  0  0  0  0  0  0  0  0  0  0  0
   -1.8088   -3.2913    0.2598 C   0  0  0  0  0  0  0  0  0  0  0  0
   -1.6029   -4.6171   -0.0511 C   0  0  0  0  0  0  0  0  0  0  0  0
   -2.6875   -5.4639   -0.2461 C   0  0  0  0  0  0  0  0  0  0  0  0
   -3.9839   -4.9772   -0.1287 C   0  0  0  0  0  0  0  0  0  0  0  0
   -4.1990   -3.6542    0.1877 C   0  0  0  0  0  0  0  0  0  0  0  0
   -2.4800   -6.7701   -0.5524 O   0  0  0  0  0  0  0  0  0  0  0  0
   -4.8261    3.0884    2.4006 O   0  0  0  0  0  0  0  0  0  0  0  0
   -1.1939    4.0790   -0.4947 O   0  0  0  0  0  0  0  0  0  0  0  0
   -1.4187    5.4524   -0.1703 C   0  0  0  0  0  0  0  0  0  0  0  0
   -1.7843    2.0637   -4.9066 H   0  0  0  0  0  0  0  0  0  0  0  0
   -2.2796    0.3706   -4.6693 H   0  0  0  0  0  0  0  0  0  0  0  0
   -3.4971    1.6684   -4.6268 H   0  0  0  0  0  0  0  0  0  0  0  0
    0.6975    1.1504    0.4298 H   0  0  0  0  0  0  0  0  0  0  0  0
    1.9948    0.2130   -3.5510 H   0  0  0  0  0  0  0  0  0  0  0  0
   -0.2438    0.7408   -4.4096 H   0  0  0  0  0  0  0  0  0  0  0  0
    3.5653   -0.1594   -2.9227 H   0  0  0  0  0  0  0  0  0  0  0  0
    7.7363   -0.6251    2.4059 H   0  0  0  0  0  0  0  0  0  0  0  0
    3.6738    0.6247    2.8750 H   0  0  0  0  0  0  0  0  0  0  0  0
    6.2201    1.0235    4.3865 H   0  0  0  0  0  0  0  0  0  0  0  0
    8.1495   -0.2325   -0.5348 H   0  0  0  0  0  0  0  0  0  0  0  0
   -3.1322    4.6434    1.1606 H   0  0  0  0  0  0  0  0  0  0  0  0
   -4.9517   -1.8372    2.0081 H   0  0  0  0  0  0  0  0  0  0  0  0
   -0.9654   -2.6339    0.4108 H   0  0  0  0  0  0  0  0  0  0  0  0
   -0.5970   -4.9992   -0.1440 H   0  0  0  0  0  0  0  0  0  0  0  0
   -4.8240   -5.6385   -0.2817 H   0  0  0  0  0  0  0  0  0  0  0  0
   -5.2068   -3.2769    0.2790 H   0  0  0  0  0  0  0  0  0  0  0  0
   -2.4172   -7.3498    0.2189 H   0  0  0  0  0  0  0  0  0  0  0  0
   -5.6691    3.2791    1.9669 H   0  0  0  0  0  0  0  0  0  0  0  0
   -2.4291    5.7349   -0.4658 H   0  0  0  0  0  0  0  0  0  0  0  0
   -1.3007    5.5960    0.9038 H   0  0  0  0  0  0  0  0  0  0  0  0
   -0.6977    6.0739   -0.7013 H   0  0  0  0  0  0  0  0  0  0  0  0
  1  2  1  0  0  0  0
  2  3  1  0  0  0  0
  3  4  2  0  0  0  0
  4  5  1  0  0  0  0
  5  6  2  0  0  0  0
  6  7  1  0  0  0  0
  7  8  2  0  0  0  0
  3  8  1  0  0  0  0
  6  9  1  0  0  0  0
  9 10  2  0  0  0  0
 10 11  1  0  0  0  0
 11 12  2  0  0  0  0
 11 13  1  0  0  0  0
 13 14  2  0  0  0  0
 14 15  1  0  0  0  0
 15 16  2  0  0  0  0
 16 17  1  0  0  0  0
 17 18  2  0  0  0  0
 13 18  1  0  0  0  0
 18 19  1  0  0  0  0
  9 19  1  0  0  0  0
 16 20  1  0  0  0  0
 14 21  1  0  0  0  0
  4 22  1  0  0  0  0
 22 23  2  0  0  0  0
 23 24  1  0  0  0  0
 24 25  2  0  0  0  0
 25 26  1  0  0  0  0
 26 27  2  0  0  0  0
 22 27  1  0  0  0  0
 27 28  1  0  0  0  0
 28 29  1  0  0  0  0
 29 30  2  0  0  0  0
 30 31  1  0  0  0  0
 26 31  1  0  0  0  0
 31 32  2  0  0  0  0
 29 33  1  0  0  0  0
 33 34  2  0  0  0  0
 34 35  1  0  0  0  0
 35 36  2  0  0  0  0
 36 37  1  0  0  0  0
 37 38  2  0  0  0  0
 33 38  1  0  0  0  0
 36 39  1  0  0  0  0
 25 40  1  0  0  0  0
 23 41  1  0  0  0  0
 41 42  1  0  0  0  0
  1 43  1  0  0  0  0
  1 44  1  0  0  0  0
  1 45  1  0  0  0  0
  5 46  1  0  0  0  0
  7 47  1  0  0  0  0
  8 48  1  0  0  0  0
 10 49  1  0  0  0  0
 15 50  1  0  0  0  0
 17 51  1  0  0  0  0
 20 52  1  0  0  0  0
 21 53  1  0  0  0  0
 24 54  1  0  0  0  0
 30 55  1  0  0  0  0
 34 56  1  0  0  0  0
 35 57  1  0  0  0  0
 37 58  1  0  0  0  0
 38 59  1  0  0  0  0
 39 60  1  0  0  0  0
 40 61  1  0  0  0  0
 42 62  1  0  0  0  0
 42 63  1  0  0  0  0
 42 64  1  0  0  0  0
M  END
$$$$
