C25H28O6
APtclcactv06281817143D 0   0.00000     0.00000
 
 59 61  0  0  0  0  0  0  0  0999 V2000
    5.1361   -3.1713   -0.6229 C   0  0  0  0  0  0  0  0  0  0  0  0
    5.0996   -2.4317    0.6896 C   0  0  0  0  0  0  0  0  0  0  0  0
    4.9371   -1.1319    0.7046 C   0  0  0  0  0  0  0  0  0  0  0  0
    4.6607   -0.3921   -0.5789 C   0  0  0  0  0  0  0  0  0  0  0  0
    3.3866    0.4002   -0.4377 C   0  0  0  0  0  0  0  0  0  0  0  0
    3.4293    1.7070    0.0342 C   0  0  0  0  0  0  0  0  0  0  0  0
    2.2671    2.4516    0.1660 C   0  0  0  0  0  0  0  0  0  0  0  0
    1.0404    1.8978   -0.1717 C   0  0  0  0  0  0  0  0  0  0  0  0
    0.9966    0.5725   -0.6399 C   0  0  0  0  0  0  0  0  0  0  0  0
    2.1750   -0.1708   -0.7831 C   0  0  0  0  0  0  0  0  0  0  0  0
    2.1274   -1.4448   -1.2472 O   0  0  0  0  0  0  0  0  0  0  0  0
   -0.3147   -0.0121   -0.9734 C   0  0  0  0  0  0  0  0  0  0  0  0
   -0.4181   -1.0597   -1.5861 O   0  0  0  0  0  0  0  0  0  0  0  0
   -1.4961    0.7499   -0.5187 C   0  0  0  0  0  0  0  0  0  0  0  0
   -2.7689    0.1786   -0.5390 C   0  0  0  0  0  0  0  0  0  0  0  0
   -3.8525    0.9121   -0.1008 C   0  0  0  0  0  0  0  0  0  0  0  0
   -3.6701    2.2180    0.3600 C   0  0  0  0  0  0  0  0  0  0  0  0
   -2.4099    2.7887    0.3790 C   0  0  0  0  0  0  0  0  0  0  0  0
   -1.3091    2.0650   -0.0625 C   0  0  0  0  0  0  0  0  0  0  0  0
   -0.0847    2.6316   -0.0549 O   0  0  0  0  0  0  0  0  0  0  0  0
   -4.7396    2.9342    0.7930 O   0  0  0  0  0  0  0  0  0  0  0  0
   -5.0975    0.3639   -0.1179 O   0  0  0  0  0  0  0  0  0  0  0  0
   -5.5129   -0.3395    1.0546 C   0  0  0  0  0  0  0  0  0  0  0  0
   -2.9592   -1.2309   -1.0371 C   0  0  0  0  0  0  0  0  0  0  0  0
   -2.6930   -2.2006    0.0854 C   0  0  0  0  0  0  0  0  0  0  0  0
   -3.5923   -3.0990    0.4020 C   0  0  0  0  0  0  0  0  0  0  0  0
   -4.8665   -3.2034   -0.3959 C   0  0  0  0  0  0  0  0  0  0  0  0
   -3.3526   -4.0281    1.5640 C   0  0  0  0  0  0  0  0  0  0  0  0
    4.6222    2.2604    0.3701 O   0  0  0  0  0  0  0  0  0  0  0  0
    4.6011    3.6067    0.8487 C   0  0  0  0  0  0  0  0  0  0  0  0
    5.2501   -3.1873    1.9847 C   0  0  0  0  0  0  0  0  0  0  0  0
    5.9021   -2.7355   -1.2644 H   0  0  0  0  0  0  0  0  0  0  0  0
    5.3676   -4.2210   -0.4421 H   0  0  0  0  0  0  0  0  0  0  0  0
    4.1650   -3.0924   -1.1116 H   0  0  0  0  0  0  0  0  0  0  0  0
    5.0011   -0.5904    1.6369 H   0  0  0  0  0  0  0  0  0  0  0  0
    5.4876    0.2848   -0.7934 H   0  0  0  0  0  0  0  0  0  0  0  0
    4.5554   -1.1071   -1.3949 H   0  0  0  0  0  0  0  0  0  0  0  0
    2.3166    3.4660    0.5332 H   0  0  0  0  0  0  0  0  0  0  0  0
    2.2011   -1.5161   -2.2088 H   0  0  0  0  0  0  0  0  0  0  0  0
   -2.2815    3.7993    0.7377 H   0  0  0  0  0  0  0  0  0  0  0  0
   -4.9231    2.8350    1.7373 H   0  0  0  0  0  0  0  0  0  0  0  0
   -6.5218   -0.7254    0.9085 H   0  0  0  0  0  0  0  0  0  0  0  0
   -4.8304   -1.1685    1.2418 H   0  0  0  0  0  0  0  0  0  0  0  0
   -5.5033    0.3388    1.9077 H   0  0  0  0  0  0  0  0  0  0  0  0
   -3.9827   -1.3563   -1.3905 H   0  0  0  0  0  0  0  0  0  0  0  0
   -2.2660   -1.4237   -1.8558 H   0  0  0  0  0  0  0  0  0  0  0  0
   -1.7608   -2.1548    0.6288 H   0  0  0  0  0  0  0  0  0  0  0  0
   -4.6947   -3.8240   -1.2753 H   0  0  0  0  0  0  0  0  0  0  0  0
   -5.6450   -3.6536    0.2201 H   0  0  0  0  0  0  0  0  0  0  0  0
   -5.1814   -2.2081   -0.7094 H   0  0  0  0  0  0  0  0  0  0  0  0
   -3.7456   -3.5784    2.4758 H   0  0  0  0  0  0  0  0  0  0  0  0
   -3.8567   -4.9770    1.3805 H   0  0  0  0  0  0  0  0  0  0  0  0
   -2.2823   -4.2010    1.6762 H   0  0  0  0  0  0  0  0  0  0  0  0
    4.1815    4.2582    0.0822 H   0  0  0  0  0  0  0  0  0  0  0  0
    3.9884    3.6629    1.7485 H   0  0  0  0  0  0  0  0  0  0  0  0
    5.6172    3.9259    1.0805 H   0  0  0  0  0  0  0  0  0  0  0  0
    6.3051   -3.2415    2.2533 H   0  0  0  0  0  0  0  0  0  0  0  0
    4.7008   -2.6714    2.7723 H   0  0  0  0  0  0  0  0  0  0  0  0
    4.8532   -4.1954    1.8654 H   0  0  0  0  0  0  0  0  0  0  0  0
  1  2  1  0  0  0  0
  2  3  2  0  0  0  0
  3  4  1  0  0  0  0
  4  5  1  0  0  0  0
  5  6  2  0  0  0  0
  6  7  1  0  0  0  0
  7  8  2  0  0  0  0
  8  9  1  0  0  0  0
  9 10  2  0  0  0  0
  5 10  1  0  0  0  0
 10 11  1  0  0  0  0
  9 12  1  0  0  0  0
 12 13  2  0  0  0  0
 12 14  1  0  0  0  0
 14 15  2  0  0  0  0
 15 16  1  0  0  0  0
 16 17  2  0  0  0  0
 17 18  1  0  0  0  0
 18 19  2  0  0  0  0
 14 19  1  0  0  0  0
 19 20  1  0  0  0  0
  8 20  1  0  0  0  0
 17 21  1  0  0  0  0
 16 22  1  0  0  0  0
 22 23  1  0  0  0  0
 15 24  1  0  0  0  0
 24 25  1  0  0  0  0
 25 26  2  0  0  0  0
 26 27  1  0  0  0  0
 26 28  1  0  0  0  0
  6 29  1  0  0  0  0
 29 30  1  0  0  0  0
  2 31  1  0  0  0  0
  1 32  1  0  0  0  0
  1 33  1  0  0  0  0
  1 34  1  0  0  0  0
  3 35  1  0  0  0  0
  4 36  1  0  0  0  0
  4 37  1  0  0  0  0
  7 38  1  0  0  0  0
 11 39  1  0  0  0  0
 18 40  1  0  0  0  0
 21 41  1  0  0  0  0
 23 42  1  0  0  0  0
 23 43  1  0  0  0  0
 23 44  1  0  0  0  0
 24 45  1  0  0  0  0
 24 46  1  0  0  0  0
 25 47  1  0  0  0  0
 27 48  1  0  0  0  0
 27 49  1  0  0  0  0
 27 50  1  0  0  0  0
 28 51  1  0  0  0  0
 28 52  1  0  0  0  0
 28 53  1  0  0  0  0
 30 54  1  0  0  0  0
 30 55  1  0  0  0  0
 30 56  1  0  0  0  0
 31 57  1  0  0  0  0
 31 58  1  0  0  0  0
 31 59  1  0  0  0  0
M  END
$$$$
