C18H16O8
APtclcactv06281817153D 0   0.00000     0.00000
 
 42 44  0  0  0  0  0  0  0  0999 V2000
   -3.5867   -3.2071   -1.0730 C   0  0  0  0  0  0  0  0  0  0  0  0
   -4.4223   -2.1778   -0.5397 O   0  0  0  0  0  0  0  0  0  0  0  0
   -3.8124   -1.0243   -0.1560 C   0  0  0  0  0  0  0  0  0  0  0  0
   -2.4433   -0.8893   -0.2906 C   0  0  0  0  0  0  0  0  0  0  0  0
   -1.8173    0.2963    0.1040 C   0  0  0  0  0  0  0  0  0  0  0  0
   -2.5777    1.3421    0.6335 C   0  0  0  0  0  0  0  0  0  0  0  0
   -3.9469    1.2014    0.7659 C   0  0  0  0  0  0  0  0  0  0  0  0
   -4.5684    0.0215    0.3668 C   0  0  0  0  0  0  0  0  0  0  0  0
   -5.9147   -0.1139    0.4976 O   0  0  0  0  0  0  0  0  0  0  0  0
   -6.7190    0.3018   -0.6080 C   0  0  0  0  0  0  0  0  0  0  0  0
   -4.6877    2.2188    1.2813 O   0  0  0  0  0  0  0  0  0  0  0  0
   -0.3564    0.4433   -0.0380 C   0  0  0  0  0  0  0  0  0  0  0  0
    0.1437    1.6389   -0.4515 C   0  0  0  0  0  0  0  0  0  0  0  0
    1.5422    1.7988   -0.5935 C   0  0  0  0  0  0  0  0  0  0  0  0
    2.0251    2.8574   -0.9618 O   0  0  0  0  0  0  0  0  0  0  0  0
    2.3927    0.6381   -0.2791 C   0  0  0  0  0  0  0  0  0  0  0  0
    3.7861    0.7072   -0.3913 C   0  0  0  0  0  0  0  0  0  0  0  0
    4.5511   -0.4072   -0.0856 C   0  0  0  0  0  0  0  0  0  0  0  0
    3.9339   -1.5856    0.3294 C   0  0  0  0  0  0  0  0  0  0  0  0
    2.5543   -1.6579    0.4413 C   0  0  0  0  0  0  0  0  0  0  0  0
    1.7740   -0.5526    0.1405 C   0  0  0  0  0  0  0  0  0  0  0  0
    0.4290   -0.6063    0.2510 O   0  0  0  0  0  0  0  0  0  0  0  0
    4.6911   -2.6734    0.6267 O   0  0  0  0  0  0  0  0  0  0  0  0
    5.9073   -0.3509   -0.1913 O   0  0  0  0  0  0  0  0  0  0  0  0
    6.6319    0.0619    0.9691 C   0  0  0  0  0  0  0  0  0  0  0  0
    4.3840    1.8574   -0.7971 O   0  0  0  0  0  0  0  0  0  0  0  0
   -2.8494   -3.5002   -0.3256 H   0  0  0  0  0  0  0  0  0  0  0  0
   -4.1977   -4.0698   -1.3386 H   0  0  0  0  0  0  0  0  0  0  0  0
   -3.0758   -2.8363   -1.9616 H   0  0  0  0  0  0  0  0  0  0  0  0
   -1.8579   -1.6993   -0.6999 H   0  0  0  0  0  0  0  0  0  0  0  0
   -2.0965    2.2592    0.9396 H   0  0  0  0  0  0  0  0  0  0  0  0
   -6.4508   -0.2783   -1.4909 H   0  0  0  0  0  0  0  0  0  0  0  0
   -7.7711    0.1403   -0.3730 H   0  0  0  0  0  0  0  0  0  0  0  0
   -6.5488    1.3606   -0.8034 H   0  0  0  0  0  0  0  0  0  0  0  0
   -5.0143    2.8426    0.6184 H   0  0  0  0  0  0  0  0  0  0  0  0
   -0.5224    2.4604   -0.6703 H   0  0  0  0  0  0  0  0  0  0  0  0
    2.0867   -2.5765    0.7636 H   0  0  0  0  0  0  0  0  0  0  0  0
    4.9648   -2.7210    1.5529 H   0  0  0  0  0  0  0  0  0  0  0  0
    6.3184    1.0659    1.2551 H   0  0  0  0  0  0  0  0  0  0  0  0
    6.4304   -0.6287    1.7880 H   0  0  0  0  0  0  0  0  0  0  0  0
    7.6995    0.0634    0.7494 H   0  0  0  0  0  0  0  0  0  0  0  0
    4.6114    2.4586   -0.0746 H   0  0  0  0  0  0  0  0  0  0  0  0
  1  2  1  0  0  0  0
  2  3  1  0  0  0  0
  3  4  2  0  0  0  0
  4  5  1  0  0  0  0
  5  6  2  0  0  0  0
  6  7  1  0  0  0  0
  7  8  2  0  0  0  0
  3  8  1  0  0  0  0
  8  9  1  0  0  0  0
  9 10  1  0  0  0  0
  7 11  1  0  0  0  0
  5 12  1  0  0  0  0
 12 13  2  0  0  0  0
 13 14  1  0  0  0  0
 14 15  2  0  0  0  0
 14 16  1  0  0  0  0
 16 17  2  0  0  0  0
 17 18  1  0  0  0  0
 18 19  2  0  0  0  0
 19 20  1  0  0  0  0
 20 21  2  0  0  0  0
 16 21  1  0  0  0  0
 21 22  1  0  0  0  0
 12 22  1  0  0  0  0
 19 23  1  0  0  0  0
 18 24  1  0  0  0  0
 24 25  1  0  0  0  0
 17 26  1  0  0  0  0
  1 27  1  0  0  0  0
  1 28  1  0  0  0  0
  1 29  1  0  0  0  0
  4 30  1  0  0  0  0
  6 31  1  0  0  0  0
 10 32  1  0  0  0  0
 10 33  1  0  0  0  0
 10 34  1  0  0  0  0
 11 35  1  0  0  0  0
 13 36  1  0  0  0  0
 20 37  1  0  0  0  0
 23 38  1  0  0  0  0
 25 39  1  0  0  0  0
 25 40  1  0  0  0  0
 25 41  1  0  0  0  0
 26 42  1  0  0  0  0
M  END
$$$$
