C18H30O4
APtclcactv06281817153D 0   0.00000     0.00000
 
 52 51  0  0  0  0  0  0  0  0999 V2000
    8.8376    2.7709   -0.9140 C   0  0  0  0  0  0  0  0  0  0  0  0
    8.7879    2.0312    0.4244 C   0  0  0  0  0  0  0  0  0  0  0  0
    7.3565    1.7059    0.7657 C   0  0  0  0  0  0  0  0  0  0  0  0
    7.0087    0.4688    1.0200 C   0  0  0  0  0  0  0  0  0  0  0  0
    5.5774    0.1435    1.3613 C   0  0  0  0  0  0  0  0  0  0  0  0
    5.0584   -0.9353    0.4085 C   0  0  0  0  0  0  0  0  0  0  0  0
    3.6705   -1.3485    0.8257 C   0  0  0  0  0  0  0  0  0  0  0  0
    2.6703   -1.2929   -0.0472 C   0  0  0  0  0  0  0  0  0  0  0  0
    1.3154   -1.6963    0.3600 C   0  0  0  0  0  0  0  0  0  0  0  0
    0.3151   -1.6408   -0.5128 C   0  0  0  0  0  0  0  0  0  0  0  0
   -1.0728   -2.0540   -0.0957 C   0  0  0  0  0  0  0  0  0  0  0  0
   -2.0517   -0.9131   -0.3802 C   0  0  0  0  0  0  0  0  0  0  0  0
   -3.4608   -1.3326    0.0434 C   0  0  0  0  0  0  0  0  0  0  0  0
   -4.4398   -0.1918   -0.2411 C   0  0  0  0  0  0  0  0  0  0  0  0
   -5.8488   -0.6113    0.1824 C   0  0  0  0  0  0  0  0  0  0  0  0
   -6.8278    0.5296   -0.1021 C   0  0  0  0  0  0  0  0  0  0  0  0
   -8.2369    0.1101    0.3214 C   0  0  0  0  0  0  0  0  0  0  0  0
   -9.2011    1.2338    0.0412 C   0  0  0  0  0  0  0  0  0  0  0  0
   -8.8022    2.2645   -0.4472 O   0  0  0  0  0  0  0  0  0  0  0  0
  -10.5031    1.0897    0.3341 O   0  0  0  0  0  0  0  0  0  0  0  0
    5.0212   -0.4171   -0.9227 O   0  0  0  0  0  0  0  0  0  0  0  0
    6.2620   -0.6272   -1.6805 O   0  0  0  0  0  0  0  0  0  0  0  0
    9.8728    3.0062   -1.1608 H   0  0  0  0  0  0  0  0  0  0  0  0
    8.4125    2.1394   -1.6941 H   0  0  0  0  0  0  0  0  0  0  0  0
    8.2627    3.6941   -0.8405 H   0  0  0  0  0  0  0  0  0  0  0  0
    9.3627    1.1081    0.3509 H   0  0  0  0  0  0  0  0  0  0  0  0
    9.2129    2.6628    1.2046 H   0  0  0  0  0  0  0  0  0  0  0  0
    6.6175    2.4927    0.8007 H   0  0  0  0  0  0  0  0  0  0  0  0
    7.7478   -0.3180    0.9851 H   0  0  0  0  0  0  0  0  0  0  0  0
    5.5223   -0.2208    2.3872 H   0  0  0  0  0  0  0  0  0  0  0  0
    4.9670    1.0409    1.2612 H   0  0  0  0  0  0  0  0  0  0  0  0
    5.7209   -1.8001    0.4434 H   0  0  0  0  0  0  0  0  0  0  0  0
    3.4889   -1.6898    1.8341 H   0  0  0  0  0  0  0  0  0  0  0  0
    2.8519   -0.9517   -1.0556 H   0  0  0  0  0  0  0  0  0  0  0  0
    1.1337   -2.0376    1.3685 H   0  0  0  0  0  0  0  0  0  0  0  0
    0.4968   -1.2995   -1.5212 H   0  0  0  0  0  0  0  0  0  0  0  0
   -1.3727   -2.9387   -0.6573 H   0  0  0  0  0  0  0  0  0  0  0  0
   -1.0793   -2.2810    0.9704 H   0  0  0  0  0  0  0  0  0  0  0  0
   -1.7518   -0.0284    0.1815 H   0  0  0  0  0  0  0  0  0  0  0  0
   -2.0452   -0.6861   -1.4462 H   0  0  0  0  0  0  0  0  0  0  0  0
   -3.7607   -2.2173   -0.5183 H   0  0  0  0  0  0  0  0  0  0  0  0
   -3.4673   -1.5596    1.1094 H   0  0  0  0  0  0  0  0  0  0  0  0
   -4.1398    0.6929    0.3205 H   0  0  0  0  0  0  0  0  0  0  0  0
   -4.4332    0.0352   -1.3072 H   0  0  0  0  0  0  0  0  0  0  0  0
   -6.1488   -1.4960   -0.3793 H   0  0  0  0  0  0  0  0  0  0  0  0
   -5.8553   -0.8383    1.2485 H   0  0  0  0  0  0  0  0  0  0  0  0
   -6.5278    1.4143    0.4596 H   0  0  0  0  0  0  0  0  0  0  0  0
   -6.8213    0.7566   -1.1682 H   0  0  0  0  0  0  0  0  0  0  0  0
   -8.5368   -0.7746   -0.2403 H   0  0  0  0  0  0  0  0  0  0  0  0
   -8.2434   -0.1169    1.3875 H   0  0  0  0  0  0  0  0  0  0  0  0
  -11.0830    1.8379    0.1364 H   0  0  0  0  0  0  0  0  0  0  0  0
    6.2369   -0.2765   -2.5814 H   0  0  0  0  0  0  0  0  0  0  0  0
  1  2  1  0  0  0  0
  2  3  1  0  0  0  0
  3  4  2  0  0  0  0
  4  5  1  0  0  0  0
  5  6  1  0  0  0  0
  6  7  1  0  0  0  0
  7  8  2  0  0  0  0
  8  9  1  0  0  0  0
  9 10  2  0  0  0  0
 10 11  1  0  0  0  0
 11 12  1  0  0  0  0
 12 13  1  0  0  0  0
 13 14  1  0  0  0  0
 14 15  1  0  0  0  0
 15 16  1  0  0  0  0
 16 17  1  0  0  0  0
 17 18  1  0  0  0  0
 18 19  2  0  0  0  0
 18 20  1  0  0  0  0
  6 21  1  0  0  0  0
 21 22  1  0  0  0  0
  1 23  1  0  0  0  0
  1 24  1  0  0  0  0
  1 25  1  0  0  0  0
  2 26  1  0  0  0  0
  2 27  1  0  0  0  0
  3 28  1  0  0  0  0
  4 29  1  0  0  0  0
  5 30  1  0  0  0  0
  5 31  1  0  0  0  0
  6 32  1  0  0  0  0
  7 33  1  0  0  0  0
  8 34  1  0  0  0  0
  9 35  1  0  0  0  0
 10 36  1  0  0  0  0
 11 37  1  0  0  0  0
 11 38  1  0  0  0  0
 12 39  1  0  0  0  0
 12 40  1  0  0  0  0
 13 41  1  0  0  0  0
 13 42  1  0  0  0  0
 14 43  1  0  0  0  0
 14 44  1  0  0  0  0
 15 45  1  0  0  0  0
 15 46  1  0  0  0  0
 16 47  1  0  0  0  0
 16 48  1  0  0  0  0
 17 49  1  0  0  0  0
 17 50  1  0  0  0  0
 20 51  1  0  0  0  0
 22 52  1  0  0  0  0
M  END
$$$$
