C31H52O
APtclcactv06231803043D 0   0.00000     0.00000
 
 84 88  0  0  0  0  0  0  0  0999 V2000
    3.4301   -1.9335    2.0613 C   0  0  0  0  0  0  0  0  0  0  0  0
    2.5521   -1.3752    0.9396 C   0  0  0  0  0  0  0  0  0  0  0  0
    3.4365   -0.7122   -0.1183 C   0  0  0  0  0  0  0  0  0  0  0  0
    4.2003    0.4534    0.5132 C   0  0  0  0  0  0  0  0  0  0  0  0
    5.0847    1.1164   -0.5448 C   0  0  0  0  0  0  0  0  0  0  0  0
    4.2028    1.7476   -1.6240 C   0  0  0  0  0  0  0  0  0  0  0  0
    5.9280    2.1843    0.1029 C   0  0  0  0  0  0  0  0  0  0  0  0
    7.2348    2.1049    0.0564 C   0  0  0  0  0  0  0  0  0  0  0  0
    5.2680    3.3435    0.8042 C   0  0  0  0  0  0  0  0  0  0  0  0
    1.7619   -2.5085    0.3023 C   0  0  0  0  0  0  0  0  0  0  0  0
    1.0488   -3.3787    1.3661 C   0  0  0  0  0  0  0  0  0  0  0  0
   -0.4489   -3.4267    0.9497 C   0  0  0  0  0  0  0  0  0  0  0  0
   -0.6213   -2.0714    0.2413 C   0  0  0  0  0  0  0  0  0  0  0  0
    0.6552   -2.0186   -0.6304 C   0  0  0  0  0  0  0  0  0  0  0  0
    0.7890   -0.6362   -1.2239 C   0  0  0  0  0  0  0  0  0  0  0  0
   -0.4155   -0.3662   -2.1342 C   0  0  0  0  0  0  0  0  0  0  0  0
   -1.7543   -0.6584   -1.4397 C   0  0  0  0  0  0  0  0  0  0  0  0
   -1.8457   -1.9565   -0.6464 C   0  0  0  0  0  0  0  0  0  0  0  0
   -3.1231   -2.1065    0.1393 C   0  0  0  0  0  0  0  0  0  0  0  0
   -3.6572   -0.8859    0.8402 C   0  0  0  0  0  0  0  0  0  0  0  0
   -3.6047    0.3983    0.0956 C   0  0  0  0  0  0  0  0  0  0  0  0
   -2.6284    0.5358   -1.0366 C   0  0  0  0  0  0  0  0  0  0  0  0
   -2.9794   -0.2836   -2.2984 C   0  0  0  0  0  0  0  0  0  0  0  0
   -1.9754    1.8973   -1.2806 C   0  0  0  0  0  0  0  0  0  0  0  0
   -2.7915    3.0658   -0.7915 C   0  0  0  0  0  0  0  0  0  0  0  0
   -3.3315    2.8654    0.6053 C   0  0  0  0  0  0  0  0  0  0  0  0
   -4.1750    1.6152    0.7316 C   0  0  0  0  0  0  0  0  0  0  0  0
   -5.5382    1.8908    0.0868 C   0  0  0  0  0  0  0  0  0  0  0  0
   -4.4088    1.3622    2.2224 C   0  0  0  0  0  0  0  0  0  0  0  0
   -2.2344    2.7766    1.5184 O   0  0  0  0  0  0  0  0  0  0  0  0
    0.5730   -3.0427   -1.7803 C   0  0  0  0  0  0  0  0  0  0  0  0
   -0.6203   -0.9560    1.2949 C   0  0  0  0  0  0  0  0  0  0  0  0
    3.9962   -1.1216    2.5179 H   0  0  0  0  0  0  0  0  0  0  0  0
    2.8001   -2.4058    2.8150 H   0  0  0  0  0  0  0  0  0  0  0  0
    4.1196   -2.6708    1.6502 H   0  0  0  0  0  0  0  0  0  0  0  0
    1.8626   -0.6379    1.3508 H   0  0  0  0  0  0  0  0  0  0  0  0
    4.1455   -1.4423   -0.5086 H   0  0  0  0  0  0  0  0  0  0  0  0
    2.8133   -0.3402   -0.9316 H   0  0  0  0  0  0  0  0  0  0  0  0
    3.4913    1.1835    0.9035 H   0  0  0  0  0  0  0  0  0  0  0  0
    4.8235    0.0814    1.3264 H   0  0  0  0  0  0  0  0  0  0  0  0
    5.7331    0.3666   -0.9981 H   0  0  0  0  0  0  0  0  0  0  0  0
    3.5545    2.4974   -1.1706 H   0  0  0  0  0  0  0  0  0  0  0  0
    4.8329    2.2200   -2.3776 H   0  0  0  0  0  0  0  0  0  0  0  0
    3.5929    0.9752   -2.0924 H   0  0  0  0  0  0  0  0  0  0  0  0
    7.8391    2.8702    0.5206 H   0  0  0  0  0  0  0  0  0  0  0  0
    7.7078    1.2741   -0.4461 H   0  0  0  0  0  0  0  0  0  0  0  0
    4.1851    3.2384    0.7393 H   0  0  0  0  0  0  0  0  0  0  0  0
    5.5700    3.3542    1.8515 H   0  0  0  0  0  0  0  0  0  0  0  0
    5.5718    4.2762    0.3289 H   0  0  0  0  0  0  0  0  0  0  0  0
    2.4491   -3.1473   -0.2731 H   0  0  0  0  0  0  0  0  0  0  0  0
    1.4646   -4.3862    1.3641 H   0  0  0  0  0  0  0  0  0  0  0  0
    1.1524   -2.9346    2.3536 H   0  0  0  0  0  0  0  0  0  0  0  0
   -0.6506   -4.2574    0.2843 H   0  0  0  0  0  0  0  0  0  0  0  0
   -1.0870   -3.4737    1.8337 H   0  0  0  0  0  0  0  0  0  0  0  0
    0.8596    0.1414   -0.4684 H   0  0  0  0  0  0  0  0  0  0  0  0
    1.7035   -0.5946   -1.8359 H   0  0  0  0  0  0  0  0  0  0  0  0
   -0.3948    0.6892   -2.4283 H   0  0  0  0  0  0  0  0  0  0  0  0
   -0.3414   -0.9564   -3.0458 H   0  0  0  0  0  0  0  0  0  0  0  0
   -1.8437   -2.7864   -1.3727 H   0  0  0  0  0  0  0  0  0  0  0  0
   -3.9017   -2.4758   -0.5482 H   0  0  0  0  0  0  0  0  0  0  0  0
   -2.9805   -2.9028    0.8839 H   0  0  0  0  0  0  0  0  0  0  0  0
   -4.7177   -1.0908    1.0791 H   0  0  0  0  0  0  0  0  0  0  0  0
   -3.1472   -0.7886    1.8019 H   0  0  0  0  0  0  0  0  0  0  0  0
   -4.4831    0.1915   -0.5439 H   0  0  0  0  0  0  0  0  0  0  0  0
   -2.7873    0.1779   -3.2654 H   0  0  0  0  0  0  0  0  0  0  0  0
   -3.8450   -0.9414   -2.2463 H   0  0  0  0  0  0  0  0  0  0  0  0
   -1.0053    1.9136   -0.7826 H   0  0  0  0  0  0  0  0  0  0  0  0
   -1.8124    2.0160   -2.3542 H   0  0  0  0  0  0  0  0  0  0  0  0
   -2.1577    3.9562   -0.7954 H   0  0  0  0  0  0  0  0  0  0  0  0
   -3.6184    3.2337   -1.4795 H   0  0  0  0  0  0  0  0  0  0  0  0
   -3.9402    3.7291    0.8760 H   0  0  0  0  0  0  0  0  0  0  0  0
   -5.3985    2.1442   -0.9641 H   0  0  0  0  0  0  0  0  0  0  0  0
   -6.1640    1.0019    0.1662 H   0  0  0  0  0  0  0  0  0  0  0  0
   -6.0213    2.7223    0.5999 H   0  0  0  0  0  0  0  0  0  0  0  0
   -4.9275    2.2157    2.6588 H   0  0  0  0  0  0  0  0  0  0  0  0
   -5.0155    0.4653    2.3479 H   0  0  0  0  0  0  0  0  0  0  0  0
   -3.4500    1.2252    2.7224 H   0  0  0  0  0  0  0  0  0  0  0  0
   -1.6717    3.5628    1.5347 H   0  0  0  0  0  0  0  0  0  0  0  0
   -0.2904   -2.8176   -2.4063 H   0  0  0  0  0  0  0  0  0  0  0  0
    1.4811   -2.9885   -2.3807 H   0  0  0  0  0  0  0  0  0  0  0  0
    0.4703   -4.0459   -1.3667 H   0  0  0  0  0  0  0  0  0  0  0  0
    0.3363   -0.9507    1.8174 H   0  0  0  0  0  0  0  0  0  0  0  0
   -0.7725    0.0060    0.8056 H   0  0  0  0  0  0  0  0  0  0  0  0
   -1.4240   -1.1311    2.0101 H   0  0  0  0  0  0  0  0  0  0  0  0
  1  2  1  0  0  0  0
  2  3  1  0  0  0  0
  3  4  1  0  0  0  0
  4  5  1  0  0  0  0
  5  6  1  0  0  0  0
  5  7  1  0  0  0  0
  7  8  2  0  0  0  0
  7  9  1  0  0  0  0
  2 10  1  0  0  0  0
 10 11  1  0  0  0  0
 11 12  1  0  0  0  0
 12 13  1  0  0  0  0
 13 14  1  0  0  0  0
 10 14  1  0  0  0  0
 14 15  1  0  0  0  0
 15 16  1  0  0  0  0
 16 17  1  0  0  0  0
 17 18  1  0  0  0  0
 13 18  1  0  0  0  0
 18 19  1  0  0  0  0
 19 20  1  0  0  0  0
 20 21  1  0  0  0  0
 21 22  1  0  0  0  0
 17 22  1  0  0  0  0
 22 23  1  0  0  0  0
 17 23  1  0  0  0  0
 22 24  1  0  0  0  0
 24 25  1  0  0  0  0
 25 26  1  0  0  0  0
 26 27  1  0  0  0  0
 21 27  1  0  0  0  0
 27 28  1  0  0  0  0
 27 29  1  0  0  0  0
 26 30  1  0  0  0  0
 14 31  1  0  0  0  0
 13 32  1  0  0  0  0
  1 33  1  0  0  0  0
  1 34  1  0  0  0  0
  1 35  1  0  0  0  0
  2 36  1  0  0  0  0
  3 37  1  0  0  0  0
  3 38  1  0  0  0  0
  4 39  1  0  0  0  0
  4 40  1  0  0  0  0
  5 41  1  0  0  0  0
  6 42  1  0  0  0  0
  6 43  1  0  0  0  0
  6 44  1  0  0  0  0
  8 45  1  0  0  0  0
  8 46  1  0  0  0  0
  9 47  1  0  0  0  0
  9 48  1  0  0  0  0
  9 49  1  0  0  0  0
 10 50  1  0  0  0  0
 11 51  1  0  0  0  0
 11 52  1  0  0  0  0
 12 53  1  0  0  0  0
 12 54  1  0  0  0  0
 15 55  1  0  0  0  0
 15 56  1  0  0  0  0
 16 57  1  0  0  0  0
 16 58  1  0  0  0  0
 18 59  1  0  0  0  0
 19 60  1  0  0  0  0
 19 61  1  0  0  0  0
 20 62  1  0  0  0  0
 20 63  1  0  0  0  0
 21 64  1  0  0  0  0
 23 65  1  0  0  0  0
 23 66  1  0  0  0  0
 24 67  1  0  0  0  0
 24 68  1  0  0  0  0
 25 69  1  0  0  0  0
 25 70  1  0  0  0  0
 26 71  1  0  0  0  0
 28 72  1  0  0  0  0
 28 73  1  0  0  0  0
 28 74  1  0  0  0  0
 29 75  1  0  0  0  0
 29 76  1  0  0  0  0
 29 77  1  0  0  0  0
 30 78  1  0  0  0  0
 31 79  1  0  0  0  0
 31 80  1  0  0  0  0
 31 81  1  0  0  0  0
 32 82  1  0  0  0  0
 32 83  1  0  0  0  0
 32 84  1  0  0  0  0
M  END
$$$$
