C22H23FN4O2
APtclcactv06211806223D 0   0.00000     0.00000
 
 52 56  0  0  0  0  0  0  0  0999 V2000
    2.6374    0.2005   -1.7434 C   0  0  0  0  0  0  0  0  0  0  0  0
    1.4259    1.0940   -2.0190 C   0  0  0  0  0  0  0  0  0  0  0  0
    0.3923    0.8456   -1.0058 N   0  0  0  0  0  0  0  0  0  0  0  0
    0.8777    1.1765    0.3400 C   0  0  0  0  0  0  0  0  0  0  0  0
    2.0729    0.2855    0.6861 C   0  0  0  0  0  0  0  0  0  0  0  0
    3.1828    0.5054   -0.3455 C   0  0  0  0  0  0  0  0  0  0  0  0
    4.3069   -0.3874   -0.0531 N   0  0  0  0  0  0  0  0  0  0  0  0
    5.6094    0.0106    0.2389 C   0  0  0  0  0  0  0  0  0  0  0  0
    6.2256    1.2480    0.3424 C   0  0  0  0  0  0  0  0  0  0  0  0
    7.5691    1.3231    0.6551 C   0  0  0  0  0  0  0  0  0  0  0  0
    8.3023    0.1683    0.8655 C   0  0  0  0  0  0  0  0  0  0  0  0
    7.6971   -1.0694    0.7641 C   0  0  0  0  0  0  0  0  0  0  0  0
    6.3494   -1.1548    0.4512 C   0  0  0  0  0  0  0  0  0  0  0  0
    5.4734   -2.2243    0.2813 N   0  0  0  0  0  0  0  0  0  0  0  0
    4.2556   -1.7323   -0.0150 C   0  0  0  0  0  0  0  0  0  0  0  0
    3.2613   -2.4018   -0.2243 O   0  0  0  0  0  0  0  0  0  0  0  0
   -0.8388    1.5839   -1.3177 C   0  0  0  0  0  0  0  0  0  0  0  0
   -1.9636    1.1136   -0.3933 C   0  0  0  0  0  0  0  0  0  0  0  0
   -3.2458    1.8825   -0.7181 C   0  0  0  0  0  0  0  0  0  0  0  0
   -4.3537    1.4192    0.1924 C   0  0  0  0  0  0  0  0  0  0  0  0
   -4.6541    1.9184    1.3519 N   0  0  0  0  0  0  0  0  0  0  0  0
   -5.7519    1.2189    1.9029 O   0  0  0  0  0  0  0  0  0  0  0  0
   -6.1401    0.2521    1.0470 C   0  0  0  0  0  0  0  0  0  0  0  0
   -5.2936    0.3265   -0.0718 C   0  0  0  0  0  0  0  0  0  0  0  0
   -5.4634   -0.5650   -1.1341 C   0  0  0  0  0  0  0  0  0  0  0  0
   -6.4522   -1.5054   -1.0802 C   0  0  0  0  0  0  0  0  0  0  0  0
   -7.2927   -1.5826    0.0246 C   0  0  0  0  0  0  0  0  0  0  0  0
   -7.1437   -0.7076    1.0819 C   0  0  0  0  0  0  0  0  0  0  0  0
   -8.2664   -2.5184    0.0614 F   0  0  0  0  0  0  0  0  0  0  0  0
    2.3374   -0.8461   -1.7966 H   0  0  0  0  0  0  0  0  0  0  0  0
    3.4105    0.3963   -2.4864 H   0  0  0  0  0  0  0  0  0  0  0  0
    1.7295    2.1400   -1.9792 H   0  0  0  0  0  0  0  0  0  0  0  0
    1.0264    0.8693   -3.0079 H   0  0  0  0  0  0  0  0  0  0  0  0
    1.1839    2.2222    0.3688 H   0  0  0  0  0  0  0  0  0  0  0  0
    0.0801    1.0118    1.0645 H   0  0  0  0  0  0  0  0  0  0  0  0
    2.4427    0.5421    1.6788 H   0  0  0  0  0  0  0  0  0  0  0  0
    1.7640   -0.7597    0.6711 H   0  0  0  0  0  0  0  0  0  0  0  0
    3.5189    1.5415   -0.3037 H   0  0  0  0  0  0  0  0  0  0  0  0
    5.6566    2.1512    0.1785 H   0  0  0  0  0  0  0  0  0  0  0  0
    8.0493    2.2871    0.7354 H   0  0  0  0  0  0  0  0  0  0  0  0
    9.3523    0.2351    1.1096 H   0  0  0  0  0  0  0  0  0  0  0  0
    8.2727   -1.9683    0.9283 H   0  0  0  0  0  0  0  0  0  0  0  0
    5.7011   -3.1635    0.3651 H   0  0  0  0  0  0  0  0  0  0  0  0
   -0.6699    2.6506   -1.1708 H   0  0  0  0  0  0  0  0  0  0  0  0
   -1.1199    1.4000   -2.3547 H   0  0  0  0  0  0  0  0  0  0  0  0
   -2.1325    0.0468   -0.5402 H   0  0  0  0  0  0  0  0  0  0  0  0
   -1.6825    1.2975    0.6437 H   0  0  0  0  0  0  0  0  0  0  0  0
   -3.0769    2.9492   -0.5712 H   0  0  0  0  0  0  0  0  0  0  0  0
   -3.5269    1.6986   -1.7551 H   0  0  0  0  0  0  0  0  0  0  0  0
   -4.8146   -0.5104   -1.9958 H   0  0  0  0  0  0  0  0  0  0  0  0
   -6.5824   -2.1940   -1.9020 H   0  0  0  0  0  0  0  0  0  0  0  0
   -7.8005   -0.7739    1.9367 H   0  0  0  0  0  0  0  0  0  0  0  0
  1  2  1  0  0  0  0
  2  3  1  0  0  0  0
  3  4  1  0  0  0  0
  4  5  1  0  0  0  0
  5  6  1  0  0  0  0
  1  6  1  0  0  0  0
  6  7  1  0  0  0  0
  7  8  1  0  0  0  0
  8  9  2  0  0  0  0
  9 10  1  0  0  0  0
 10 11  2  0  0  0  0
 11 12  1  0  0  0  0
 12 13  2  0  0  0  0
  8 13  1  0  0  0  0
 13 14  1  0  0  0  0
 14 15  1  0  0  0  0
  7 15  1  0  0  0  0
 15 16  2  0  0  0  0
  3 17  1  0  0  0  0
 17 18  1  0  0  0  0
 18 19  1  0  0  0  0
 19 20  1  0  0  0  0
 20 21  2  0  0  0  0
 21 22  1  0  0  0  0
 22 23  1  0  0  0  0
 23 24  2  0  0  0  0
 20 24  1  0  0  0  0
 24 25  1  0  0  0  0
 25 26  2  0  0  0  0
 26 27  1  0  0  0  0
 27 28  2  0  0  0  0
 23 28  1  0  0  0  0
 27 29  1  0  0  0  0
  1 30  1  0  0  0  0
  1 31  1  0  0  0  0
  2 32  1  0  0  0  0
  2 33  1  0  0  0  0
  4 34  1  0  0  0  0
  4 35  1  0  0  0  0
  5 36  1  0  0  0  0
  5 37  1  0  0  0  0
  6 38  1  0  0  0  0
  9 39  1  0  0  0  0
 10 40  1  0  0  0  0
 11 41  1  0  0  0  0
 12 42  1  0  0  0  0
 14 43  1  0  0  0  0
 17 44  1  0  0  0  0
 17 45  1  0  0  0  0
 18 46  1  0  0  0  0
 18 47  1  0  0  0  0
 19 48  1  0  0  0  0
 19 49  1  0  0  0  0
 25 50  1  0  0  0  0
 26 51  1  0  0  0  0
 28 52  1  0  0  0  0
M  END
$$$$
