C10H16O
APtclcactv06231803043D 0   0.00000     0.00000
 
 27 27  0  0  0  0  0  0  0  0999 V2000
   -3.1690    0.5268    1.1141 C   0  0  0  0  0  0  0  0  0  0  0  0
   -2.5755   -0.5191    0.1682 C   0  0  0  0  0  0  0  0  0  0  0  0
   -3.2673   -0.4264   -1.1933 C   0  0  0  0  0  0  0  0  0  0  0  0
   -1.0997   -0.2645    0.0001 C   0  0  0  0  0  0  0  0  0  0  0  0
   -0.2234   -1.1985    0.3486 C   0  0  0  0  0  0  0  0  0  0  0  0
    1.2180   -0.9409    0.2102 C   0  0  0  0  0  0  0  0  0  0  0  0
    1.6590    0.3041    0.0802 C   0  0  0  0  0  0  0  0  0  0  0  0
    0.6902    1.4576    0.1020 C   0  0  0  0  0  0  0  0  0  0  0  0
   -0.6240    1.0468   -0.5686 C   0  0  0  0  0  0  0  0  0  0  0  0
    3.1335    0.5648   -0.0892 C   0  0  0  0  0  0  0  0  0  0  0  0
    3.8412   -0.6766   -0.0776 O   0  0  0  0  0  0  0  0  0  0  0  0
   -3.0172    1.5221    0.6965 H   0  0  0  0  0  0  0  0  0  0  0  0
   -4.2364    0.3427    1.2357 H   0  0  0  0  0  0  0  0  0  0  0  0
   -2.6761    0.4608    2.0841 H   0  0  0  0  0  0  0  0  0  0  0  0
   -2.7272   -1.5144    0.5858 H   0  0  0  0  0  0  0  0  0  0  0  0
   -3.1155    0.5689   -1.6109 H   0  0  0  0  0  0  0  0  0  0  0  0
   -2.8445   -1.1715   -1.8672 H   0  0  0  0  0  0  0  0  0  0  0  0
   -4.3347   -0.6105   -1.0717 H   0  0  0  0  0  0  0  0  0  0  0  0
   -0.5685   -2.1466    0.7338 H   0  0  0  0  0  0  0  0  0  0  0  0
    1.9170   -1.7642    0.2147 H   0  0  0  0  0  0  0  0  0  0  0  0
    0.4982    1.7492    1.1345 H   0  0  0  0  0  0  0  0  0  0  0  0
    1.1209    2.3018   -0.4364 H   0  0  0  0  0  0  0  0  0  0  0  0
   -0.4664    0.9474   -1.6426 H   0  0  0  0  0  0  0  0  0  0  0  0
   -1.3784    1.8117   -0.3847 H   0  0  0  0  0  0  0  0  0  0  0  0
    3.3061    1.0726   -1.0382 H   0  0  0  0  0  0  0  0  0  0  0  0
    3.4878    1.1926    0.7284 H   0  0  0  0  0  0  0  0  0  0  0  0
    4.7981   -0.5849   -0.1823 H   0  0  0  0  0  0  0  0  0  0  0  0
  1  2  1  0  0  0  0
  2  3  1  0  0  0  0
  2  4  1  0  0  0  0
  4  5  2  0  0  0  0
  5  6  1  0  0  0  0
  6  7  2  0  0  0  0
  7  8  1  0  0  0  0
  8  9  1  0  0  0  0
  4  9  1  0  0  0  0
  7 10  1  0  0  0  0
 10 11  1  0  0  0  0
  1 12  1  0  0  0  0
  1 13  1  0  0  0  0
  1 14  1  0  0  0  0
  2 15  1  0  0  0  0
  3 16  1  0  0  0  0
  3 17  1  0  0  0  0
  3 18  1  0  0  0  0
  5 19  1  0  0  0  0
  6 20  1  0  0  0  0
  8 21  1  0  0  0  0
  8 22  1  0  0  0  0
  9 23  1  0  0  0  0
  9 24  1  0  0  0  0
 10 25  1  0  0  0  0
 10 26  1  0  0  0  0
 11 27  1  0  0  0  0
M  END
$$$$
