C7H7NO2
APtclcactv06211804363D 0   0.00000     0.00000
 
 17 17  0  0  0  0  0  0  0  0999 V2000
    2.7719   -1.4682    0.0014 C   0  0  0  0  0  0  0  0  0  0  0  0
    1.7285   -0.4399    0.0008 N   0  3  0  0  0  0  0  0  0  0  0  0
    2.0817    0.8314    0.0001 C   0  0  0  0  0  0  0  0  0  0  0  0
    1.1317    1.8375   -0.0001 C   0  0  0  0  0  0  0  0  0  0  0  0
   -0.2102    1.5018    0.0000 C   0  0  0  0  0  0  0  0  0  0  0  0
   -0.5548    0.1432    0.0003 C   0  0  0  0  0  0  0  0  0  0  0  0
    0.4651   -0.8109   -0.0045 C   0  0  0  0  0  0  0  0  0  0  0  0
   -1.9706   -0.2719    0.0005 C   0  0  0  0  0  0  0  0  0  0  0  0
   -2.8553    0.5724    0.0003 O   0  0  0  0  0  0  0  0  0  0  0  0
   -2.2594   -1.4602    0.0007 O   0  5  0  0  0  0  0  0  0  0  0  0
    3.0306   -1.7227    1.0292 H   0  0  0  0  0  0  0  0  0  0  0  0
    2.4060   -2.3574   -0.5119 H   0  0  0  0  0  0  0  0  0  0  0  0
    3.6554   -1.0897   -0.5126 H   0  0  0  0  0  0  0  0  0  0  0  0
    3.1300    1.0911   -0.0000 H   0  0  0  0  0  0  0  0  0  0  0  0
    1.4348    2.8741    0.0000 H   0  0  0  0  0  0  0  0  0  0  0  0
   -0.9726    2.2668    0.0003 H   0  0  0  0  0  0  0  0  0  0  0  0
    0.2156   -1.8616   -0.0047 H   0  0  0  0  0  0  0  0  0  0  0  0
  1  2  1  0  0  0  0
  2  3  2  0  0  0  0
  3  4  1  0  0  0  0
  4  5  2  0  0  0  0
  5  6  1  0  0  0  0
  6  7  2  0  0  0  0
  2  7  1  0  0  0  0
  6  8  1  0  0  0  0
  8  9  2  0  0  0  0
  8 10  1  0  0  0  0
  1 11  1  0  0  0  0
  1 12  1  0  0  0  0
  1 13  1  0  0  0  0
  3 14  1  0  0  0  0
  4 15  1  0  0  0  0
  5 16  1  0  0  0  0
  7 17  1  0  0  0  0
M  CHG  2   2   1  10  -1
M  END
$$$$
