C6H9NO2
APtclcactv06231803043D 0   0.00000     0.00000
 
 18 18  0  0  0  0  0  0  0  0999 V2000
   -0.4074   -1.2509    0.3909 C   0  0  0  0  0  0  0  0  0  0  0  0
   -1.9067   -1.2091    0.2926 C   0  0  0  0  0  0  0  0  0  0  0  0
   -2.5608   -0.1436   -0.0571 C   0  0  0  0  0  0  0  0  0  0  0  0
   -1.8936    1.1551   -0.4073 C   0  0  0  0  0  0  0  0  0  0  0  0
   -0.5097    1.1647    0.0836 N   0  0  0  0  0  0  0  0  0  0  0  0
    0.1925   -0.0542   -0.3517 C   0  0  0  0  0  0  0  0  0  0  0  0
    1.6589    0.0617   -0.0239 C   0  0  0  0  0  0  0  0  0  0  0  0
    2.0304    0.8506    0.8124 O   0  0  0  0  0  0  0  0  0  0  0  0
    2.5521   -0.7116   -0.6610 O   0  0  0  0  0  0  0  0  0  0  0  0
   -0.1116   -1.2125    1.4393 H   0  0  0  0  0  0  0  0  0  0  0  0
   -0.0405   -2.1754   -0.0549 H   0  0  0  0  0  0  0  0  0  0  0  0
   -2.4643   -2.1049    0.5226 H   0  0  0  0  0  0  0  0  0  0  0  0
   -3.6388   -0.1940   -0.0986 H   0  0  0  0  0  0  0  0  0  0  0  0
   -1.8934    1.2803   -1.4900 H   0  0  0  0  0  0  0  0  0  0  0  0
   -2.4440    1.9780    0.0487 H   0  0  0  0  0  0  0  0  0  0  0  0
   -0.0223    1.9925   -0.2251 H   0  0  0  0  0  0  0  0  0  0  0  0
    0.0637   -0.1874   -1.4258 H   0  0  0  0  0  0  0  0  0  0  0  0
    3.4813   -0.6014   -0.4169 H   0  0  0  0  0  0  0  0  0  0  0  0
  1  2  1  0  0  0  0
  2  3  2  0  0  0  0
  3  4  1  0  0  0  0
  4  5  1  0  0  0  0
  5  6  1  0  0  0  0
  1  6  1  0  0  0  0
  6  7  1  0  0  0  0
  7  8  2  0  0  0  0
  7  9  1  0  0  0  0
  1 10  1  0  0  0  0
  1 11  1  0  0  0  0
  2 12  1  0  0  0  0
  3 13  1  0  0  0  0
  4 14  1  0  0  0  0
  4 15  1  0  0  0  0
  5 16  1  0  0  0  0
  6 17  1  0  0  0  0
  9 18  1  0  0  0  0
M  END
$$$$
