C15H20O
APtclcactv06231803043D 0   0.00000     0.00000
 
 36 36  0  0  0  0  0  0  0  0999 V2000
    5.7776    0.8785   -0.2873 C   0  0  0  0  0  0  0  0  0  0  0  0
    4.3395    0.4400   -0.1850 C   0  0  0  0  0  0  0  0  0  0  0  0
    3.8157   -0.4351   -1.1182 C   0  0  0  0  0  0  0  0  0  0  0  0
    2.4965   -0.8373   -1.0243 C   0  0  0  0  0  0  0  0  0  0  0  0
    1.7012   -0.3648    0.0029 C   0  0  0  0  0  0  0  0  0  0  0  0
    2.2253    0.5095    0.9366 C   0  0  0  0  0  0  0  0  0  0  0  0
    3.5457    0.9084    0.8453 C   0  0  0  0  0  0  0  0  0  0  0  0
    0.2628   -0.8025    0.1046 C   0  0  0  0  0  0  0  0  0  0  0  0
    0.0390   -1.5122    1.4415 C   0  0  0  0  0  0  0  0  0  0  0  0
   -0.6503    0.4221    0.0182 C   0  0  0  0  0  0  0  0  0  0  0  0
   -2.0893   -0.0248   -0.0037 C   0  0  0  0  0  0  0  0  0  0  0  0
   -2.3583   -1.2069    0.0451 O   0  0  0  0  0  0  0  0  0  0  0  0
   -3.1618    0.9665   -0.0837 C   0  0  0  0  0  0  0  0  0  0  0  0
   -4.4286    0.5695   -0.2210 C   0  0  0  0  0  0  0  0  0  0  0  0
   -4.7407   -0.8858   -0.4574 C   0  0  0  0  0  0  0  0  0  0  0  0
   -5.5468    1.5764   -0.1397 C   0  0  0  0  0  0  0  0  0  0  0  0
    5.8403    1.7792   -0.8980 H   0  0  0  0  0  0  0  0  0  0  0  0
    6.1655    1.0878    0.7096 H   0  0  0  0  0  0  0  0  0  0  0  0
    6.3674    0.0858   -0.7476 H   0  0  0  0  0  0  0  0  0  0  0  0
    4.4370   -0.8042   -1.9207 H   0  0  0  0  0  0  0  0  0  0  0  0
    2.0870   -1.5204   -1.7538 H   0  0  0  0  0  0  0  0  0  0  0  0
    1.6039    0.8789    1.7390 H   0  0  0  0  0  0  0  0  0  0  0  0
    3.9552    1.5914    1.5747 H   0  0  0  0  0  0  0  0  0  0  0  0
    0.0323   -1.4860   -0.7126 H   0  0  0  0  0  0  0  0  0  0  0  0
    0.6895   -2.3847    1.5030 H   0  0  0  0  0  0  0  0  0  0  0  0
    0.2694   -0.8288    2.2587 H   0  0  0  0  0  0  0  0  0  0  0  0
   -1.0014   -1.8288    1.5150 H   0  0  0  0  0  0  0  0  0  0  0  0
   -0.4819    1.0627    0.8839 H   0  0  0  0  0  0  0  0  0  0  0  0
   -0.4283    0.9772   -0.8932 H   0  0  0  0  0  0  0  0  0  0  0  0
   -2.9286    2.0197   -0.0316 H   0  0  0  0  0  0  0  0  0  0  0  0
   -4.7797   -1.4089    0.4981 H   0  0  0  0  0  0  0  0  0  0  0  0
   -5.7042   -0.9738   -0.9593 H   0  0  0  0  0  0  0  0  0  0  0  0
   -3.9640   -1.3272   -1.0818 H   0  0  0  0  0  0  0  0  0  0  0  0
   -5.7538    1.9706   -1.1347 H   0  0  0  0  0  0  0  0  0  0  0  0
   -6.4418    1.0945    0.2537 H   0  0  0  0  0  0  0  0  0  0  0  0
   -5.2535    2.3926    0.5206 H   0  0  0  0  0  0  0  0  0  0  0  0
  1  2  1  0  0  0  0
  2  3  2  0  0  0  0
  3  4  1  0  0  0  0
  4  5  2  0  0  0  0
  5  6  1  0  0  0  0
  6  7  2  0  0  0  0
  2  7  1  0  0  0  0
  5  8  1  0  0  0  0
  8  9  1  0  0  0  0
  8 10  1  0  0  0  0
 10 11  1  0  0  0  0
 11 12  2  0  0  0  0
 11 13  1  0  0  0  0
 13 14  2  0  0  0  0
 14 15  1  0  0  0  0
 14 16  1  0  0  0  0
  1 17  1  0  0  0  0
  1 18  1  0  0  0  0
  1 19  1  0  0  0  0
  3 20  1  0  0  0  0
  4 21  1  0  0  0  0
  6 22  1  0  0  0  0
  7 23  1  0  0  0  0
  8 24  1  0  0  0  0
  9 25  1  0  0  0  0
  9 26  1  0  0  0  0
  9 27  1  0  0  0  0
 10 28  1  0  0  0  0
 10 29  1  0  0  0  0
 13 30  1  0  0  0  0
 15 31  1  0  0  0  0
 15 32  1  0  0  0  0
 15 33  1  0  0  0  0
 16 34  1  0  0  0  0
 16 35  1  0  0  0  0
 16 36  1  0  0  0  0
M  END
$$$$
