C10H12O2
APtclcactv06231803043D 0   0.00000     0.00000
 
 24 24  0  0  0  0  0  0  0  0999 V2000
   -2.1802    2.0607    0.0698 C   0  0  0  0  0  0  0  0  0  0  0  0
   -2.1271    0.5556    0.0146 C   0  0  0  0  0  0  0  0  0  0  0  0
   -1.0019   -0.2220    0.0112 C   0  0  0  0  0  0  0  0  0  0  0  0
   -1.3878   -1.5135   -0.0452 O   0  0  0  0  0  0  0  0  0  0  0  0
   -2.7254   -1.5767   -0.0776 C   0  0  0  0  0  0  0  0  0  0  0  0
   -3.2219   -0.3194   -0.0370 C   0  0  0  0  0  0  0  0  0  0  0  0
    0.3804    0.2627    0.0603 C   0  0  0  0  0  0  0  0  0  0  0  0
    0.6050    1.4587    0.1095 O   0  0  0  0  0  0  0  0  0  0  0  0
    1.4969   -0.6958    0.0500 C   0  0  0  0  0  0  0  0  0  0  0  0
    2.7507   -0.2559   -0.0236 C   0  0  0  0  0  0  0  0  0  0  0  0
    3.0233    1.2071   -0.2609 C   0  0  0  0  0  0  0  0  0  0  0  0
    3.8980   -1.2209    0.1305 C   0  0  0  0  0  0  0  0  0  0  0  0
   -2.1695    2.4620   -0.9436 H   0  0  0  0  0  0  0  0  0  0  0  0
   -3.0939    2.3737    0.5750 H   0  0  0  0  0  0  0  0  0  0  0  0
   -1.3155    2.4349    0.6179 H   0  0  0  0  0  0  0  0  0  0  0  0
   -3.3111   -2.4829   -0.1243 H   0  0  0  0  0  0  0  0  0  0  0  0
   -4.2654   -0.0412   -0.0483 H   0  0  0  0  0  0  0  0  0  0  0  0
    1.2989   -1.7562    0.1021 H   0  0  0  0  0  0  0  0  0  0  0  0
    2.9916    1.7413    0.6887 H   0  0  0  0  0  0  0  0  0  0  0  0
    4.0090    1.3247   -0.7112 H   0  0  0  0  0  0  0  0  0  0  0  0
    2.2665    1.6135   -0.9319 H   0  0  0  0  0  0  0  0  0  0  0  0
    4.1727   -1.6177   -0.8469 H   0  0  0  0  0  0  0  0  0  0  0  0
    4.7526   -0.7027    0.5655 H   0  0  0  0  0  0  0  0  0  0  0  0
    3.5985   -2.0401    0.7841 H   0  0  0  0  0  0  0  0  0  0  0  0
  1  2  1  0  0  0  0
  2  3  2  0  0  0  0
  3  4  1  0  0  0  0
  4  5  1  0  0  0  0
  5  6  2  0  0  0  0
  2  6  1  0  0  0  0
  3  7  1  0  0  0  0
  7  8  2  0  0  0  0
  7  9  1  0  0  0  0
  9 10  2  0  0  0  0
 10 11  1  0  0  0  0
 10 12  1  0  0  0  0
  1 13  1  0  0  0  0
  1 14  1  0  0  0  0
  1 15  1  0  0  0  0
  5 16  1  0  0  0  0
  6 17  1  0  0  0  0
  9 18  1  0  0  0  0
 11 19  1  0  0  0  0
 11 20  1  0  0  0  0
 11 21  1  0  0  0  0
 12 22  1  0  0  0  0
 12 23  1  0  0  0  0
 12 24  1  0  0  0  0
M  END
$$$$
