C11H18O2
APtclcactv06231803043D 0   0.00000     0.00000
 
 31 31  0  0  0  0  0  0  0  0999 V2000
    6.0443    0.5752   -0.1194 C   0  0  0  0  0  0  0  0  0  0  0  0
    4.8248   -0.0691    0.5429 C   0  0  0  0  0  0  0  0  0  0  0  0
    3.5732    0.2429   -0.2800 C   0  0  0  0  0  0  0  0  0  0  0  0
    2.3537   -0.4014    0.3823 C   0  0  0  0  0  0  0  0  0  0  0  0
    1.1021   -0.0894   -0.4406 C   0  0  0  0  0  0  0  0  0  0  0  0
   -0.1174   -0.7337    0.2217 C   0  0  0  0  0  0  0  0  0  0  0  0
   -1.3689   -0.4217   -0.6012 C   0  0  0  0  0  0  0  0  0  0  0  0
   -2.5719   -1.1500   -0.0348 C   0  0  0  0  0  0  0  0  0  0  0  0
   -2.7288   -2.3500    0.0707 O   0  0  0  0  0  0  0  0  0  0  0  0
   -3.4684   -0.1306    0.3419 C   0  0  0  0  0  0  0  0  0  0  0  0
   -2.9388    1.0715    0.0670 C   0  0  0  0  0  0  0  0  0  0  0  0
   -1.7188    0.9886   -0.4836 O   0  0  0  0  0  0  0  0  0  0  0  0
   -3.6404    2.3755    0.3472 C   0  0  0  0  0  0  0  0  0  0  0  0
    6.9359    0.3529    0.4669 H   0  0  0  0  0  0  0  0  0  0  0  0
    6.1633    0.1769   -1.1270 H   0  0  0  0  0  0  0  0  0  0  0  0
    5.9024    1.6547   -0.1698 H   0  0  0  0  0  0  0  0  0  0  0  0
    4.9666   -1.1486    0.5934 H   0  0  0  0  0  0  0  0  0  0  0  0
    4.7057    0.3292    1.5505 H   0  0  0  0  0  0  0  0  0  0  0  0
    3.4313    1.3224   -0.3304 H   0  0  0  0  0  0  0  0  0  0  0  0
    3.6923   -0.1554   -1.2876 H   0  0  0  0  0  0  0  0  0  0  0  0
    2.4956   -1.4809    0.4327 H   0  0  0  0  0  0  0  0  0  0  0  0
    2.2346   -0.0031    1.3899 H   0  0  0  0  0  0  0  0  0  0  0  0
    0.9602    0.9902   -0.4911 H   0  0  0  0  0  0  0  0  0  0  0  0
    1.2212   -0.4877   -1.4482 H   0  0  0  0  0  0  0  0  0  0  0  0
    0.0245   -1.8132    0.2721 H   0  0  0  0  0  0  0  0  0  0  0  0
   -0.2364   -0.3354    1.2293 H   0  0  0  0  0  0  0  0  0  0  0  0
   -1.2153   -0.6931   -1.6457 H   0  0  0  0  0  0  0  0  0  0  0  0
   -4.4390   -0.2926    0.7870 H   0  0  0  0  0  0  0  0  0  0  0  0
   -4.6139    2.1755    0.7948 H   0  0  0  0  0  0  0  0  0  0  0  0
   -3.0397    2.9708    1.0349 H   0  0  0  0  0  0  0  0  0  0  0  0
   -3.7749    2.9234   -0.5855 H   0  0  0  0  0  0  0  0  0  0  0  0
  1  2  1  0  0  0  0
  2  3  1  0  0  0  0
  3  4  1  0  0  0  0
  4  5  1  0  0  0  0
  5  6  1  0  0  0  0
  6  7  1  0  0  0  0
  7  8  1  0  0  0  0
  8  9  2  0  0  0  0
  8 10  1  0  0  0  0
 10 11  2  0  0  0  0
 11 12  1  0  0  0  0
  7 12  1  0  0  0  0
 11 13  1  0  0  0  0
  1 14  1  0  0  0  0
  1 15  1  0  0  0  0
  1 16  1  0  0  0  0
  2 17  1  0  0  0  0
  2 18  1  0  0  0  0
  3 19  1  0  0  0  0
  3 20  1  0  0  0  0
  4 21  1  0  0  0  0
  4 22  1  0  0  0  0
  5 23  1  0  0  0  0
  5 24  1  0  0  0  0
  6 25  1  0  0  0  0
  6 26  1  0  0  0  0
  7 27  1  0  0  0  0
 10 28  1  0  0  0  0
 13 29  1  0  0  0  0
 13 30  1  0  0  0  0
 13 31  1  0  0  0  0
M  END
$$$$
