C28H46O
APtclcactv06291802543D 0   0.00000     0.00000
 
 75 78  0  0  0  0  0  0  0  0999 V2000
   -5.3324   -0.7489    1.9321 C   0  0  0  0  0  0  0  0  0  0  0  0
   -4.7322   -0.3751    0.5752 C   0  0  0  0  0  0  0  0  0  0  0  0
   -3.2273   -0.1571    0.7237 C   0  0  0  0  0  0  0  0  0  0  0  0
   -2.9368    0.9900    1.6957 C   0  0  0  0  0  0  0  0  0  0  0  0
   -1.4296    1.0111    1.9320 C   0  0  0  0  0  0  0  0  0  0  0  0
   -0.6505    0.9081    0.6458 C   0  0  0  0  0  0  0  0  0  0  0  0
   -1.1714    0.5704   -0.5077 C   0  0  0  0  0  0  0  0  0  0  0  0
   -2.6399    0.2310   -0.6285 C   0  0  0  0  0  0  0  0  0  0  0  0
   -2.8516   -0.9117   -1.6195 C   0  0  0  0  0  0  0  0  0  0  0  0
   -4.3557   -1.1583   -1.7766 C   0  0  0  0  0  0  0  0  0  0  0  0
   -4.9710   -1.5128   -0.4226 C   0  0  0  0  0  0  0  0  0  0  0  0
   -4.3704   -2.7114    0.0720 O   0  0  0  0  0  0  0  0  0  0  0  0
   -3.3868    1.4582   -1.1548 C   0  0  0  0  0  0  0  0  0  0  0  0
   -0.3997    0.5159   -1.8072 C   0  0  0  0  0  0  0  0  0  0  0  0
    1.0972    0.7918   -1.6634 C   0  0  0  0  0  0  0  0  0  0  0  0
    1.2379    1.8719   -0.6054 C   0  0  0  0  0  0  0  0  0  0  0  0
    0.8207    1.1837    0.7213 C   0  0  0  0  0  0  0  0  0  0  0  0
    1.2748    2.2107    1.7604 C   0  0  0  0  0  0  0  0  0  0  0  0
    2.6631    2.6528    1.2183 C   0  0  0  0  0  0  0  0  0  0  0  0
    2.6484    2.3660   -0.3050 C   0  0  0  0  0  0  0  0  0  0  0  0
    3.6744    1.2851   -0.6514 C   0  0  0  0  0  0  0  0  0  0  0  0
    5.0855    1.8266   -0.4143 C   0  0  0  0  0  0  0  0  0  0  0  0
    3.4428    0.0595    0.2348 C   0  0  0  0  0  0  0  0  0  0  0  0
    4.5353   -0.9775   -0.0335 C   0  0  0  0  0  0  0  0  0  0  0  0
    4.3073   -2.1847    0.8393 C   0  0  0  0  0  0  0  0  0  0  0  0
    4.0914   -3.3560    0.2938 C   0  0  0  0  0  0  0  0  0  0  0  0
    4.0296   -3.4889   -1.2060 C   0  0  0  0  0  0  0  0  0  0  0  0
    3.9049   -4.5706    1.1662 C   0  0  0  0  0  0  0  0  0  0  0  0
    0.3043    3.0437   -0.9157 C   0  0  0  0  0  0  0  0  0  0  0  0
   -5.1514    0.0566    2.6437 H   0  0  0  0  0  0  0  0  0  0  0  0
   -6.4059   -0.9040    1.8242 H   0  0  0  0  0  0  0  0  0  0  0  0
   -4.8675   -1.6656    2.2949 H   0  0  0  0  0  0  0  0  0  0  0  0
   -5.1992    0.5389    0.2086 H   0  0  0  0  0  0  0  0  0  0  0  0
   -2.7590   -1.0720    1.0867 H   0  0  0  0  0  0  0  0  0  0  0  0
   -3.2574    1.9361    1.2596 H   0  0  0  0  0  0  0  0  0  0  0  0
   -3.4578    0.8191    2.6377 H   0  0  0  0  0  0  0  0  0  0  0  0
   -1.1631    1.9415    2.4335 H   0  0  0  0  0  0  0  0  0  0  0  0
   -1.1607    0.1742    2.5765 H   0  0  0  0  0  0  0  0  0  0  0  0
   -2.4230   -0.6422   -2.5847 H   0  0  0  0  0  0  0  0  0  0  0  0
   -2.3708   -1.8148   -1.2437 H   0  0  0  0  0  0  0  0  0  0  0  0
   -4.8313   -0.2580   -2.1656 H   0  0  0  0  0  0  0  0  0  0  0  0
   -4.5166   -1.9807   -2.4737 H   0  0  0  0  0  0  0  0  0  0  0  0
   -6.0429   -1.6700   -0.5424 H   0  0  0  0  0  0  0  0  0  0  0  0
   -4.4887   -3.4780   -0.5055 H   0  0  0  0  0  0  0  0  0  0  0  0
   -2.9895    1.7340   -2.1317 H   0  0  0  0  0  0  0  0  0  0  0  0
   -4.4478    1.2262   -1.2464 H   0  0  0  0  0  0  0  0  0  0  0  0
   -3.2550    2.2888   -0.4614 H   0  0  0  0  0  0  0  0  0  0  0  0
   -0.5285   -0.4740   -2.2449 H   0  0  0  0  0  0  0  0  0  0  0  0
   -0.8227    1.2508   -2.4921 H   0  0  0  0  0  0  0  0  0  0  0  0
    1.6148   -0.1130   -1.3445 H   0  0  0  0  0  0  0  0  0  0  0  0
    1.5052    1.1422   -2.6115 H   0  0  0  0  0  0  0  0  0  0  0  0
    1.3679    0.2490    0.8440 H   0  0  0  0  0  0  0  0  0  0  0  0
    0.5866    3.0553    1.7955 H   0  0  0  0  0  0  0  0  0  0  0  0
    1.3725    1.7492    2.7430 H   0  0  0  0  0  0  0  0  0  0  0  0
    2.8129    3.7176    1.3972 H   0  0  0  0  0  0  0  0  0  0  0  0
    3.4535    2.0771    1.6999 H   0  0  0  0  0  0  0  0  0  0  0  0
    2.8564    3.2786   -0.8636 H   0  0  0  0  0  0  0  0  0  0  0  0
    3.5648    1.0023   -1.6983 H   0  0  0  0  0  0  0  0  0  0  0  0
    5.8176    1.0974   -0.7613 H   0  0  0  0  0  0  0  0  0  0  0  0
    5.2137    2.7595   -0.9632 H   0  0  0  0  0  0  0  0  0  0  0  0
    5.2307    2.0086    0.6506 H   0  0  0  0  0  0  0  0  0  0  0  0
    3.4744    0.3576    1.2827 H   0  0  0  0  0  0  0  0  0  0  0  0
    2.4681   -0.3730    0.0092 H   0  0  0  0  0  0  0  0  0  0  0  0
    4.5038   -1.2757   -1.0815 H   0  0  0  0  0  0  0  0  0  0  0  0
    5.5101   -0.5451    0.1920 H   0  0  0  0  0  0  0  0  0  0  0  0
    4.3218   -2.0842    1.9145 H   0  0  0  0  0  0  0  0  0  0  0  0
    5.0392   -3.5929   -1.6035 H   0  0  0  0  0  0  0  0  0  0  0  0
    3.4431   -4.3692   -1.4690 H   0  0  0  0  0  0  0  0  0  0  0  0
    3.5618   -2.6006   -1.6305 H   0  0  0  0  0  0  0  0  0  0  0  0
    2.8475   -4.6891    1.4028 H   0  0  0  0  0  0  0  0  0  0  0  0
    4.2604   -5.4554    0.6380 H   0  0  0  0  0  0  0  0  0  0  0  0
    4.4719   -4.4459    2.0887 H   0  0  0  0  0  0  0  0  0  0  0  0
   -0.7263    2.6898   -0.9427 H   0  0  0  0  0  0  0  0  0  0  0  0
    0.4070    3.8047   -0.1421 H   0  0  0  0  0  0  0  0  0  0  0  0
    0.5671    3.4713   -1.8832 H   0  0  0  0  0  0  0  0  0  0  0  0
  1  2  1  0  0  0  0
  2  3  1  0  0  0  0
  3  4  1  0  0  0  0
  4  5  1  0  0  0  0
  5  6  1  0  0  0  0
  6  7  2  0  0  0  0
  7  8  1  0  0  0  0
  3  8  1  0  0  0  0
  8  9  1  0  0  0  0
  9 10  1  0  0  0  0
 10 11  1  0  0  0  0
  2 11  1  0  0  0  0
 11 12  1  0  0  0  0
  8 13  1  0  0  0  0
  7 14  1  0  0  0  0
 14 15  1  0  0  0  0
 15 16  1  0  0  0  0
 16 17  1  0  0  0  0
  6 17  1  0  0  0  0
 17 18  1  0  0  0  0
 18 19  1  0  0  0  0
 19 20  1  0  0  0  0
 16 20  1  0  0  0  0
 20 21  1  0  0  0  0
 21 22  1  0  0  0  0
 21 23  1  0  0  0  0
 23 24  1  0  0  0  0
 24 25  1  0  0  0  0
 25 26  2  0  0  0  0
 26 27  1  0  0  0  0
 26 28  1  0  0  0  0
 16 29  1  0  0  0  0
  1 30  1  0  0  0  0
  1 31  1  0  0  0  0
  1 32  1  0  0  0  0
  2 33  1  0  0  0  0
  3 34  1  0  0  0  0
  4 35  1  0  0  0  0
  4 36  1  0  0  0  0
  5 37  1  0  0  0  0
  5 38  1  0  0  0  0
  9 39  1  0  0  0  0
  9 40  1  0  0  0  0
 10 41  1  0  0  0  0
 10 42  1  0  0  0  0
 11 43  1  0  0  0  0
 12 44  1  0  0  0  0
 13 45  1  0  0  0  0
 13 46  1  0  0  0  0
 13 47  1  0  0  0  0
 14 48  1  0  0  0  0
 14 49  1  0  0  0  0
 15 50  1  0  0  0  0
 15 51  1  0  0  0  0
 17 52  1  0  0  0  0
 18 53  1  0  0  0  0
 18 54  1  0  0  0  0
 19 55  1  0  0  0  0
 19 56  1  0  0  0  0
 20 57  1  0  0  0  0
 21 58  1  0  0  0  0
 22 59  1  0  0  0  0
 22 60  1  0  0  0  0
 22 61  1  0  0  0  0
 23 62  1  0  0  0  0
 23 63  1  0  0  0  0
 24 64  1  0  0  0  0
 24 65  1  0  0  0  0
 25 66  1  0  0  0  0
 27 67  1  0  0  0  0
 27 68  1  0  0  0  0
 27 69  1  0  0  0  0
 28 70  1  0  0  0  0
 28 71  1  0  0  0  0
 28 72  1  0  0  0  0
 29 73  1  0  0  0  0
 29 74  1  0  0  0  0
 29 75  1  0  0  0  0
M  END
$$$$
