C14H14ClN3O2S
APtclcactv06211804363D 0   0.00000     0.00000
 
 35 36  0  0  0  0  0  0  0  0999 V2000
    6.3057   -1.2697    0.6295 C   0  0  0  0  0  0  0  0  0  0  0  0
    4.8866   -1.1842    0.1294 C   0  0  0  0  0  0  0  0  0  0  0  0
    4.1894    0.0031    0.2326 C   0  0  0  0  0  0  0  0  0  0  0  0
    2.8814    0.0811   -0.2291 C   0  0  0  0  0  0  0  0  0  0  0  0
    2.2795   -1.0363   -0.7931 C   0  0  0  0  0  0  0  0  0  0  0  0
    2.9827   -2.2209   -0.8933 C   0  0  0  0  0  0  0  0  0  0  0  0
    4.2861   -2.2937   -0.4376 C   0  0  0  0  0  0  0  0  0  0  0  0
    2.1724    1.2815   -0.1258 N   0  0  0  0  0  0  0  0  0  0  0  0
    0.7864    1.2671   -0.0890 C   0  0  0  0  0  0  0  0  0  0  0  0
    0.0653    2.4615   -0.1181 C   0  0  0  0  0  0  0  0  0  0  0  0
   -1.3164    2.3992   -0.0800 C   0  0  0  0  0  0  0  0  0  0  0  0
   -1.9104    1.2156   -0.0174 N   0  0  0  0  0  0  0  0  0  0  0  0
   -1.1989    0.0974    0.0089 C   0  0  0  0  0  0  0  0  0  0  0  0
    0.1253    0.1149   -0.0311 N   0  0  0  0  0  0  0  0  0  0  0  0
   -2.0353   -1.4511    0.0929 S   0  0  0  0  0  0  0  0  0  0  0  0
   -3.7527   -0.8799    0.1148 C   0  0  0  0  0  0  0  0  0  0  0  0
   -4.6765   -2.0684    0.1867 C   0  0  0  0  0  0  0  0  0  0  0  0
   -4.2206   -3.1868    0.2197 O   0  0  0  0  0  0  0  0  0  0  0  0
   -6.0059   -1.8845    0.2140 O   0  0  0  0  0  0  0  0  0  0  0  0
   -2.2618    3.8549   -0.1132 Cl  0  0  0  0  0  0  0  0  0  0  0  0
    4.8463    1.2129    0.8458 C   0  0  0  0  0  0  0  0  0  0  0  0
    6.3043   -1.5725    1.6766 H   0  0  0  0  0  0  0  0  0  0  0  0
    6.8552   -2.0034    0.0398 H   0  0  0  0  0  0  0  0  0  0  0  0
    6.7839   -0.2949    0.5339 H   0  0  0  0  0  0  0  0  0  0  0  0
    1.2628   -0.9791   -1.1527 H   0  0  0  0  0  0  0  0  0  0  0  0
    2.5152   -3.0903   -1.3315 H   0  0  0  0  0  0  0  0  0  0  0  0
    4.8337   -3.2211   -0.5171 H   0  0  0  0  0  0  0  0  0  0  0  0
    2.6501    2.1244   -0.0798 H   0  0  0  0  0  0  0  0  0  0  0  0
    0.5741    3.4127   -0.1689 H   0  0  0  0  0  0  0  0  0  0  0  0
   -3.9125   -0.2424    0.9844 H   0  0  0  0  0  0  0  0  0  0  0  0
   -3.9589   -0.3138   -0.7935 H   0  0  0  0  0  0  0  0  0  0  0  0
   -6.5579   -2.6771    0.2602 H   0  0  0  0  0  0  0  0  0  0  0  0
    5.3488    1.7871    0.0674 H   0  0  0  0  0  0  0  0  0  0  0  0
    4.0891    1.8341    1.3241 H   0  0  0  0  0  0  0  0  0  0  0  0
    5.5760    0.8923    1.5893 H   0  0  0  0  0  0  0  0  0  0  0  0
  1  2  1  0  0  0  0
  2  3  2  0  0  0  0
  3  4  1  0  0  0  0
  4  5  2  0  0  0  0
  5  6  1  0  0  0  0
  6  7  2  0  0  0  0
  2  7  1  0  0  0  0
  4  8  1  0  0  0  0
  8  9  1  0  0  0  0
  9 10  2  0  0  0  0
 10 11  1  0  0  0  0
 11 12  2  0  0  0  0
 12 13  1  0  0  0  0
 13 14  2  0  0  0  0
  9 14  1  0  0  0  0
 13 15  1  0  0  0  0
 15 16  1  0  0  0  0
 16 17  1  0  0  0  0
 17 18  2  0  0  0  0
 17 19  1  0  0  0  0
 11 20  1  0  0  0  0
  3 21  1  0  0  0  0
  1 22  1  0  0  0  0
  1 23  1  0  0  0  0
  1 24  1  0  0  0  0
  5 25  1  0  0  0  0
  6 26  1  0  0  0  0
  7 27  1  0  0  0  0
  8 28  1  0  0  0  0
 10 29  1  0  0  0  0
 16 30  1  0  0  0  0
 16 31  1  0  0  0  0
 19 32  1  0  0  0  0
 21 33  1  0  0  0  0
 21 34  1  0  0  0  0
 21 35  1  0  0  0  0
M  END
$$$$
