C15H20O4
APtclcactv06281817103D 0   0.00000     0.00000
 
 39 39  0  0  0  0  0  0  0  0999 V2000
    1.1326    2.5971   -0.2287 C   0  0  0  0  0  0  0  0  0  0  0  0
    1.9553    1.3349   -0.1989 C   0  0  0  0  0  0  0  0  0  0  0  0
    3.2570    1.4352    0.0408 C   0  0  0  0  0  0  0  0  0  0  0  0
    4.1017    0.2372    0.0906 C   0  0  0  0  0  0  0  0  0  0  0  0
    5.2400    0.2893    0.5073 O   0  0  0  0  0  0  0  0  0  0  0  0
    3.5046   -1.0674   -0.3954 C   0  0  0  0  0  0  0  0  0  0  0  0
    2.0664   -1.1376    0.1376 C   0  0  0  0  0  0  0  0  0  0  0  0
    1.2624    0.0259   -0.4356 C   0  0  0  0  0  0  0  0  0  0  0  0
   -0.0967    0.0553    0.2149 C   0  0  0  0  0  0  0  0  0  0  0  0
   -1.1962   -0.0690   -0.5310 C   0  0  0  0  0  0  0  0  0  0  0  0
   -2.5155   -0.0405    0.1005 C   0  0  0  0  0  0  0  0  0  0  0  0
   -3.6302   -0.1665   -0.6557 C   0  0  0  0  0  0  0  0  0  0  0  0
   -4.9086    0.0144   -0.0697 C   0  0  0  0  0  0  0  0  0  0  0  0
   -5.0014    0.3904    1.0835 O   0  0  0  0  0  0  0  0  0  0  0  0
   -6.0223   -0.2304   -0.7912 O   0  0  0  0  0  0  0  0  0  0  0  0
   -2.6329    0.1293    1.5933 C   0  0  0  0  0  0  0  0  0  0  0  0
    1.1029   -0.1631   -1.8430 O   0  0  0  0  0  0  0  0  0  0  0  0
    1.4273   -2.4614   -0.2868 C   0  0  0  0  0  0  0  0  0  0  0  0
    2.0810   -1.0404    1.6644 C   0  0  0  0  0  0  0  0  0  0  0  0
    1.7765    3.4552   -0.0358 H   0  0  0  0  0  0  0  0  0  0  0  0
    0.6676    2.7047   -1.2087 H   0  0  0  0  0  0  0  0  0  0  0  0
    0.3585    2.5444    0.5369 H   0  0  0  0  0  0  0  0  0  0  0  0
    3.6982    2.4079    0.2003 H   0  0  0  0  0  0  0  0  0  0  0  0
    3.4977   -1.0889   -1.4852 H   0  0  0  0  0  0  0  0  0  0  0  0
    4.0841   -1.9066   -0.0107 H   0  0  0  0  0  0  0  0  0  0  0  0
   -0.1808    0.1769    1.2847 H   0  0  0  0  0  0  0  0  0  0  0  0
   -1.1120   -0.1907   -1.6008 H   0  0  0  0  0  0  0  0  0  0  0  0
   -3.5464   -0.4049   -1.7057 H   0  0  0  0  0  0  0  0  0  0  0  0
   -6.8456   -0.0791   -0.3072 H   0  0  0  0  0  0  0  0  0  0  0  0
   -2.7932    1.1816    1.8278 H   0  0  0  0  0  0  0  0  0  0  0  0
   -3.4751   -0.4572    1.9606 H   0  0  0  0  0  0  0  0  0  0  0  0
   -1.7153   -0.2138    2.0712 H   0  0  0  0  0  0  0  0  0  0  0  0
    0.6005    0.5384   -2.2796 H   0  0  0  0  0  0  0  0  0  0  0  0
    2.0057   -3.2910    0.1199 H   0  0  0  0  0  0  0  0  0  0  0  0
    0.4065   -2.5100    0.0922 H   0  0  0  0  0  0  0  0  0  0  0  0
    1.4144   -2.5264   -1.3748 H   0  0  0  0  0  0  0  0  0  0  0  0
    2.5330   -0.0948    1.9639 H   0  0  0  0  0  0  0  0  0  0  0  0
    1.0595   -1.0904    2.0415 H   0  0  0  0  0  0  0  0  0  0  0  0
    2.6609   -1.8667    2.0756 H   0  0  0  0  0  0  0  0  0  0  0  0
  1  2  1  0  0  0  0
  2  3  2  0  0  0  0
  3  4  1  0  0  0  0
  4  5  2  0  0  0  0
  4  6  1  0  0  0  0
  6  7  1  0  0  0  0
  7  8  1  0  0  0  0
  2  8  1  0  0  0  0
  8  9  1  0  0  0  0
  9 10  2  0  0  0  0
 10 11  1  0  0  0  0
 11 12  2  0  0  0  0
 12 13  1  0  0  0  0
 13 14  2  0  0  0  0
 13 15  1  0  0  0  0
 11 16  1  0  0  0  0
  8 17  1  0  0  0  0
  7 18  1  0  0  0  0
  7 19  1  0  0  0  0
  1 20  1  0  0  0  0
  1 21  1  0  0  0  0
  1 22  1  0  0  0  0
  3 23  1  0  0  0  0
  6 24  1  0  0  0  0
  6 25  1  0  0  0  0
  9 26  1  0  0  0  0
 10 27  1  0  0  0  0
 12 28  1  0  0  0  0
 15 29  1  0  0  0  0
 16 30  1  0  0  0  0
 16 31  1  0  0  0  0
 16 32  1  0  0  0  0
 17 33  1  0  0  0  0
 18 34  1  0  0  0  0
 18 35  1  0  0  0  0
 18 36  1  0  0  0  0
 19 37  1  0  0  0  0
 19 38  1  0  0  0  0
 19 39  1  0  0  0  0
M  END
$$$$
