C30H50O2
APtclcactv06231803043D 0   0.00000     0.00000
 
 82 86  0  0  0  0  0  0  0  0999 V2000
   -3.7026    2.8563    0.8087 C   0  0  0  0  0  0  0  0  0  0  0  0
   -3.7439    1.6117   -0.0975 C   0  0  0  0  0  0  0  0  0  0  0  0
   -2.9513    0.4775    0.5219 C   0  0  0  0  0  0  0  0  0  0  0  0
   -1.4490    0.4853    0.3490 C   0  0  0  0  0  0  0  0  0  0  0  0
   -0.9312    1.8780   -0.0099 C   0  0  0  0  0  0  0  0  0  0  0  0
    0.6015    1.8871   -0.0956 C   0  0  0  0  0  0  0  0  0  0  0  0
    1.1179    0.5407    0.3858 C   0  0  0  0  0  0  0  0  0  0  0  0
    2.6115    0.5452    0.6977 C   0  0  0  0  0  0  0  0  0  0  0  0
    3.2160    1.9135    0.3731 C   0  0  0  0  0  0  0  0  0  0  0  0
    4.7062    1.9150    0.7147 C   0  0  0  0  0  0  0  0  0  0  0  0
    5.4424    0.8597   -0.0993 C   0  0  0  0  0  0  0  0  0  0  0  0
    4.8598   -0.5397    0.1112 C   0  0  0  0  0  0  0  0  0  0  0  0
    3.3494   -0.5338   -0.0721 C   0  0  0  0  0  0  0  0  0  0  0  0
    2.7266   -1.9014    0.1387 C   0  0  0  0  0  0  0  0  0  0  0  0
    1.2091   -1.9037   -0.0489 C   0  0  0  0  0  0  0  0  0  0  0  0
    0.6606   -0.5753   -0.5338 C   0  0  0  0  0  0  0  0  0  0  0  0
   -0.8904   -0.5779   -0.5751 C   0  0  0  0  0  0  0  0  0  0  0  0
   -1.4279   -1.9657   -0.2916 C   0  0  0  0  0  0  0  0  0  0  0  0
   -2.6251   -1.9710    0.6549 C   0  0  0  0  0  0  0  0  0  0  0  0
   -3.6056   -0.8701    0.2599 C   0  0  0  0  0  0  0  0  0  0  0  0
   -4.8726   -0.9341    1.1236 C   0  0  0  0  0  0  0  0  0  0  0  0
   -5.8001    0.2311    0.7868 C   0  0  0  0  0  0  0  0  0  0  0  0
   -5.2049    1.1983   -0.1987 C   0  0  0  0  0  0  0  0  0  0  0  0
   -5.9527    1.7098   -1.1542 C   0  0  0  0  0  0  0  0  0  0  0  0
   -4.0229   -1.0961   -1.1904 C   0  0  0  0  0  0  0  0  0  0  0  0
   -3.2812   -3.2405    0.5862 O   0  0  0  0  0  0  0  0  0  0  0  0
   -1.2181   -0.2007   -2.0385 C   0  0  0  0  0  0  0  0  0  0  0  0
    1.0703   -0.3290   -1.9954 C   0  0  0  0  0  0  0  0  0  0  0  0
    5.4651   -1.4311   -1.0026 C   0  0  0  0  0  0  0  0  0  0  0  0
    5.3203   -1.1140    1.4442 C   0  0  0  0  0  0  0  0  0  0  0  0
    5.3703    1.1930   -1.4900 O   0  0  0  0  0  0  0  0  0  0  0  0
    2.7202    0.3213    2.2186 C   0  0  0  0  0  0  0  0  0  0  0  0
   -2.6656    3.1357    0.9950 H   0  0  0  0  0  0  0  0  0  0  0  0
   -4.2184    3.6810    0.3170 H   0  0  0  0  0  0  0  0  0  0  0  0
   -4.1944    2.6329    1.7554 H   0  0  0  0  0  0  0  0  0  0  0  0
   -3.3644    1.8721   -1.0821 H   0  0  0  0  0  0  0  0  0  0  0  0
   -3.0890    0.6276    1.6371 H   0  0  0  0  0  0  0  0  0  0  0  0
   -1.0432    0.2571    1.3654 H   0  0  0  0  0  0  0  0  0  0  0  0
   -1.3515    2.2311   -0.9416 H   0  0  0  0  0  0  0  0  0  0  0  0
   -1.1931    2.5730    0.7979 H   0  0  0  0  0  0  0  0  0  0  0  0
    0.9123    2.1066   -1.1080 H   0  0  0  0  0  0  0  0  0  0  0  0
    0.9649    2.6809    0.5658 H   0  0  0  0  0  0  0  0  0  0  0  0
    0.6312    0.3539    1.3768 H   0  0  0  0  0  0  0  0  0  0  0  0
    3.0840    2.1309   -0.6856 H   0  0  0  0  0  0  0  0  0  0  0  0
    2.7174    2.6800    0.9677 H   0  0  0  0  0  0  0  0  0  0  0  0
    5.1154    2.9041    0.4588 H   0  0  0  0  0  0  0  0  0  0  0  0
    4.8623    1.7619    1.7780 H   0  0  0  0  0  0  0  0  0  0  0  0
    6.4972    0.8493    0.1977 H   0  0  0  0  0  0  0  0  0  0  0  0
    3.2563   -0.2863   -1.1569 H   0  0  0  0  0  0  0  0  0  0  0  0
    3.1499   -2.6205   -0.5746 H   0  0  0  0  0  0  0  0  0  0  0  0
    2.9460   -2.2753    1.1437 H   0  0  0  0  0  0  0  0  0  0  0  0
    0.9487   -2.6935   -0.7592 H   0  0  0  0  0  0  0  0  0  0  0  0
    0.7592   -2.1498    0.9220 H   0  0  0  0  0  0  0  0  0  0  0  0
   -1.7220   -2.4374   -1.2400 H   0  0  0  0  0  0  0  0  0  0  0  0
   -0.6683   -2.6146    0.1425 H   0  0  0  0  0  0  0  0  0  0  0  0
   -2.2837   -1.8004    1.6778 H   0  0  0  0  0  0  0  0  0  0  0  0
   -5.3846   -1.8807    0.9355 H   0  0  0  0  0  0  0  0  0  0  0  0
   -4.5862   -0.8856    2.1750 H   0  0  0  0  0  0  0  0  0  0  0  0
   -6.7360   -0.1656    0.3735 H   0  0  0  0  0  0  0  0  0  0  0  0
   -6.0541    0.7678    1.7085 H   0  0  0  0  0  0  0  0  0  0  0  0
   -6.9943    1.4346   -1.2304 H   0  0  0  0  0  0  0  0  0  0  0  0
   -5.5246    2.4044   -1.8617 H   0  0  0  0  0  0  0  0  0  0  0  0
   -4.7627   -1.8954   -1.2353 H   0  0  0  0  0  0  0  0  0  0  0  0
   -4.4542   -0.1790   -1.5916 H   0  0  0  0  0  0  0  0  0  0  0  0
   -3.1500   -1.3755   -1.7804 H   0  0  0  0  0  0  0  0  0  0  0  0
   -2.7189   -3.9876    0.8328 H   0  0  0  0  0  0  0  0  0  0  0  0
   -0.9294   -1.0191   -2.6980 H   0  0  0  0  0  0  0  0  0  0  0  0
   -2.2881   -0.0163   -2.1352 H   0  0  0  0  0  0  0  0  0  0  0  0
   -0.6680    0.6991   -2.3137 H   0  0  0  0  0  0  0  0  0  0  0  0
    0.5362   -1.0231   -2.6443 H   0  0  0  0  0  0  0  0  0  0  0  0
    0.8212    0.6946   -2.2749 H   0  0  0  0  0  0  0  0  0  0  0  0
    2.1438   -0.4841   -2.1029 H   0  0  0  0  0  0  0  0  0  0  0  0
    6.5512   -1.4403   -0.9106 H   0  0  0  0  0  0  0  0  0  0  0  0
    5.0833   -2.4471   -0.9025 H   0  0  0  0  0  0  0  0  0  0  0  0
    5.1865   -1.0328   -1.9783 H   0  0  0  0  0  0  0  0  0  0  0  0
    4.9889   -0.4638    2.2539 H   0  0  0  0  0  0  0  0  0  0  0  0
    4.8935   -2.1079    1.5785 H   0  0  0  0  0  0  0  0  0  0  0  0
    6.4082   -1.1813    1.4545 H   0  0  0  0  0  0  0  0  0  0  0  0
    5.7633    2.0487   -1.7103 H   0  0  0  0  0  0  0  0  0  0  0  0
    2.4371   -0.7042    2.4560 H   0  0  0  0  0  0  0  0  0  0  0  0
    3.7467    0.4984    2.5395 H   0  0  0  0  0  0  0  0  0  0  0  0
    2.0536    1.0113    2.7360 H   0  0  0  0  0  0  0  0  0  0  0  0
  1  2  1  0  0  0  0
  2  3  1  0  0  0  0
  3  4  1  0  0  0  0
  4  5  1  0  0  0  0
  5  6  1  0  0  0  0
  6  7  1  0  0  0  0
  7  8  1  0  0  0  0
  8  9  1  0  0  0  0
  9 10  1  0  0  0  0
 10 11  1  0  0  0  0
 11 12  1  0  0  0  0
 12 13  1  0  0  0  0
  8 13  1  0  0  0  0
 13 14  1  0  0  0  0
 14 15  1  0  0  0  0
 15 16  1  0  0  0  0
  7 16  1  0  0  0  0
 16 17  1  0  0  0  0
  4 17  1  0  0  0  0
 17 18  1  0  0  0  0
 18 19  1  0  0  0  0
 19 20  1  0  0  0  0
  3 20  1  0  0  0  0
 20 21  1  0  0  0  0
 21 22  1  0  0  0  0
 22 23  1  0  0  0  0
  2 23  1  0  0  0  0
 23 24  2  0  0  0  0
 20 25  1  0  0  0  0
 19 26  1  0  0  0  0
 17 27  1  0  0  0  0
 16 28  1  0  0  0  0
 12 29  1  0  0  0  0
 12 30  1  0  0  0  0
 11 31  1  0  0  0  0
  8 32  1  0  0  0  0
  1 33  1  0  0  0  0
  1 34  1  0  0  0  0
  1 35  1  0  0  0  0
  2 36  1  0  0  0  0
  3 37  1  0  0  0  0
  4 38  1  0  0  0  0
  5 39  1  0  0  0  0
  5 40  1  0  0  0  0
  6 41  1  0  0  0  0
  6 42  1  0  0  0  0
  7 43  1  0  0  0  0
  9 44  1  0  0  0  0
  9 45  1  0  0  0  0
 10 46  1  0  0  0  0
 10 47  1  0  0  0  0
 11 48  1  0  0  0  0
 13 49  1  0  0  0  0
 14 50  1  0  0  0  0
 14 51  1  0  0  0  0
 15 52  1  0  0  0  0
 15 53  1  0  0  0  0
 18 54  1  0  0  0  0
 18 55  1  0  0  0  0
 19 56  1  0  0  0  0
 21 57  1  0  0  0  0
 21 58  1  0  0  0  0
 22 59  1  0  0  0  0
 22 60  1  0  0  0  0
 24 61  1  0  0  0  0
 24 62  1  0  0  0  0
 25 63  1  0  0  0  0
 25 64  1  0  0  0  0
 25 65  1  0  0  0  0
 26 66  1  0  0  0  0
 27 67  1  0  0  0  0
 27 68  1  0  0  0  0
 27 69  1  0  0  0  0
 28 70  1  0  0  0  0
 28 71  1  0  0  0  0
 28 72  1  0  0  0  0
 29 73  1  0  0  0  0
 29 74  1  0  0  0  0
 29 75  1  0  0  0  0
 30 76  1  0  0  0  0
 30 77  1  0  0  0  0
 30 78  1  0  0  0  0
 31 79  1  0  0  0  0
 32 80  1  0  0  0  0
 32 81  1  0  0  0  0
 32 82  1  0  0  0  0
M  END
$$$$
