C15H24O
APtclcactv06231803043D 0   0.00000     0.00000
 
 40 41  0  0  0  0  0  0  0  0999 V2000
    2.6186   -2.1694    0.5984 C   0  0  0  0  0  0  0  0  0  0  0  0
    2.1891   -0.7010    0.5867 C   0  0  0  0  0  0  0  0  0  0  0  0
    2.9955    0.0919   -0.4729 C   0  0  0  0  0  0  0  0  0  0  0  0
    2.0673    1.2933   -0.7818 C   0  0  0  0  0  0  0  0  0  0  0  0
    0.6460    0.6923   -0.7487 C   0  0  0  0  0  0  0  0  0  0  0  0
    0.7278   -0.5703    0.1212 C   0  0  0  0  0  0  0  0  0  0  0  0
    0.3255   -1.7963   -0.6898 C   0  0  0  0  0  0  0  0  0  0  0  0
   -1.1413   -1.7797   -1.0060 C   0  0  0  0  0  0  0  0  0  0  0  0
   -2.0256   -1.0736   -0.3125 C   0  0  0  0  0  0  0  0  0  0  0  0
   -1.6026   -0.2432    0.8197 C   0  0  0  0  0  0  0  0  0  0  0  0
   -2.3580    0.5609    1.3244 O   0  0  0  0  0  0  0  0  0  0  0  0
   -0.1901   -0.4236    1.3383 C   0  0  0  0  0  0  0  0  0  0  0  0
   -3.4827   -1.1254   -0.6937 C   0  0  0  0  0  0  0  0  0  0  0  0
   -0.3326    1.6929   -0.1307 C   0  0  0  0  0  0  0  0  0  0  0  0
    0.3207    2.3646    1.0788 C   0  0  0  0  0  0  0  0  0  0  0  0
   -0.6986    2.7559   -1.1685 C   0  0  0  0  0  0  0  0  0  0  0  0
    3.6736   -2.2373    0.8638 H   0  0  0  0  0  0  0  0  0  0  0  0
    2.0239   -2.7160    1.3302 H   0  0  0  0  0  0  0  0  0  0  0  0
    2.4642   -2.6010   -0.3906 H   0  0  0  0  0  0  0  0  0  0  0  0
    2.3184   -0.2585    1.5744 H   0  0  0  0  0  0  0  0  0  0  0  0
    3.9446    0.4335   -0.0599 H   0  0  0  0  0  0  0  0  0  0  0  0
    3.1566   -0.5112   -1.3664 H   0  0  0  0  0  0  0  0  0  0  0  0
    2.1736    2.0636   -0.0180 H   0  0  0  0  0  0  0  0  0  0  0  0
    2.2864    1.7006   -1.7688 H   0  0  0  0  0  0  0  0  0  0  0  0
    0.3269    0.4311   -1.7577 H   0  0  0  0  0  0  0  0  0  0  0  0
    0.8917   -1.8103   -1.6211 H   0  0  0  0  0  0  0  0  0  0  0  0
    0.5576   -2.6949   -0.1180 H   0  0  0  0  0  0  0  0  0  0  0  0
   -1.4945   -2.3712   -1.8377 H   0  0  0  0  0  0  0  0  0  0  0  0
   -0.1336   -1.3201    1.9558 H   0  0  0  0  0  0  0  0  0  0  0  0
    0.1049    0.4486    1.9217 H   0  0  0  0  0  0  0  0  0  0  0  0
   -3.9718   -1.9341   -0.1506 H   0  0  0  0  0  0  0  0  0  0  0  0
   -3.9584   -0.1780   -0.4406 H   0  0  0  0  0  0  0  0  0  0  0  0
   -3.5717   -1.3018   -1.7657 H   0  0  0  0  0  0  0  0  0  0  0  0
   -1.2345    1.1700    0.1874 H   0  0  0  0  0  0  0  0  0  0  0  0
    0.8696    3.2476    0.7515 H   0  0  0  0  0  0  0  0  0  0  0  0
   -0.4499    2.6592    1.7911 H   0  0  0  0  0  0  0  0  0  0  0  0
    1.0079    1.6656    1.5554 H   0  0  0  0  0  0  0  0  0  0  0  0
    0.1954    3.3130   -1.4488 H   0  0  0  0  0  0  0  0  0  0  0  0
   -1.1173    2.2728   -2.0513 H   0  0  0  0  0  0  0  0  0  0  0  0
   -1.4345    3.4392   -0.7447 H   0  0  0  0  0  0  0  0  0  0  0  0
  1  2  1  0  0  0  0
  2  3  1  0  0  0  0
  3  4  1  0  0  0  0
  4  5  1  0  0  0  0
  5  6  1  0  0  0  0
  2  6  1  0  0  0  0
  6  7  1  0  0  0  0
  7  8  1  0  0  0  0
  8  9  2  0  0  0  0
  9 10  1  0  0  0  0
 10 11  2  0  0  0  0
 10 12  1  0  0  0  0
  6 12  1  0  0  0  0
  9 13  1  0  0  0  0
  5 14  1  0  0  0  0
 14 15  1  0  0  0  0
 14 16  1  0  0  0  0
  1 17  1  0  0  0  0
  1 18  1  0  0  0  0
  1 19  1  0  0  0  0
  2 20  1  0  0  0  0
  3 21  1  0  0  0  0
  3 22  1  0  0  0  0
  4 23  1  0  0  0  0
  4 24  1  0  0  0  0
  5 25  1  0  0  0  0
  7 26  1  0  0  0  0
  7 27  1  0  0  0  0
  8 28  1  0  0  0  0
 12 29  1  0  0  0  0
 12 30  1  0  0  0  0
 13 31  1  0  0  0  0
 13 32  1  0  0  0  0
 13 33  1  0  0  0  0
 14 34  1  0  0  0  0
 15 35  1  0  0  0  0
 15 36  1  0  0  0  0
 15 37  1  0  0  0  0
 16 38  1  0  0  0  0
 16 39  1  0  0  0  0
 16 40  1  0  0  0  0
M  END
$$$$
