C38H66O4
APtclcactv06281817153D 0   0.00000     0.00000
 
108108  0  0  0  0  0  0  0  0999 V2000
   24.4041    0.6818   -0.0010 C   0  0  0  0  0  0  0  0  0  0  0  0
   23.1713   -0.2244    0.0034 C   0  0  0  0  0  0  0  0  0  0  0  0
   21.9060    0.6358   -0.0012 C   0  0  0  0  0  0  0  0  0  0  0  0
   20.6732   -0.2704    0.0032 C   0  0  0  0  0  0  0  0  0  0  0  0
   19.4080    0.5898   -0.0014 C   0  0  0  0  0  0  0  0  0  0  0  0
   18.1752   -0.3163    0.0030 C   0  0  0  0  0  0  0  0  0  0  0  0
   16.9099    0.5439   -0.0016 C   0  0  0  0  0  0  0  0  0  0  0  0
   15.6771   -0.3623    0.0028 C   0  0  0  0  0  0  0  0  0  0  0  0
   14.4118    0.4979   -0.0018 C   0  0  0  0  0  0  0  0  0  0  0  0
   13.1791   -0.4083    0.0026 C   0  0  0  0  0  0  0  0  0  0  0  0
   11.9138    0.4519   -0.0020 C   0  0  0  0  0  0  0  0  0  0  0  0
   10.6810   -0.4543    0.0024 C   0  0  0  0  0  0  0  0  0  0  0  0
    9.4157    0.4059   -0.0022 C   0  0  0  0  0  0  0  0  0  0  0  0
    8.1830   -0.5003    0.0022 C   0  0  0  0  0  0  0  0  0  0  0  0
    6.9177    0.3599   -0.0024 C   0  0  0  0  0  0  0  0  0  0  0  0
    5.6849   -0.5463    0.0021 C   0  0  0  0  0  0  0  0  0  0  0  0
    4.4196    0.3139   -0.0025 C   0  0  0  0  0  0  0  0  0  0  0  0
    3.1868   -0.5923    0.0019 C   0  0  0  0  0  0  0  0  0  0  0  0
    1.9216    0.2679   -0.0027 C   0  0  0  0  0  0  0  0  0  0  0  0
    0.6888   -0.6382    0.0017 C   0  0  0  0  0  0  0  0  0  0  0  0
   -0.5765    0.2220   -0.0029 C   0  0  0  0  0  0  0  0  0  0  0  0
   -1.8093   -0.6842    0.0015 C   0  0  0  0  0  0  0  0  0  0  0  0
   -3.0746    0.1760   -0.0031 C   0  0  0  0  0  0  0  0  0  0  0  0
   -4.3073   -0.7302    0.0013 C   0  0  0  0  0  0  0  0  0  0  0  0
   -5.5726    0.1300   -0.0033 C   0  0  0  0  0  0  0  0  0  0  0  0
   -6.8054   -0.7762    0.0011 C   0  0  0  0  0  0  0  0  0  0  0  0
   -8.0707    0.0840   -0.0035 C   0  0  0  0  0  0  0  0  0  0  0  0
   -9.3034   -0.8222    0.0009 C   0  0  0  0  0  0  0  0  0  0  0  0
  -10.4852   -0.0188   -0.0034 O   0  0  0  0  0  0  0  0  0  0  0  0
  -11.6677   -0.6686   -0.0003 C   0  0  0  0  0  0  0  0  0  0  0  0
  -11.6934   -1.8848    0.0059 O   0  0  0  0  0  0  0  0  0  0  0  0
  -12.8803    0.0660   -0.0042 C   0  0  0  0  0  0  0  0  0  0  0  0
  -14.0643   -0.5846   -0.0011 C   0  0  0  0  0  0  0  0  0  0  0  0
  -15.3212    0.1769   -0.0052 C   0  0  0  0  0  0  0  0  0  0  0  0
  -16.5491   -0.4952   -0.0020 C   0  0  0  0  0  0  0  0  0  0  0  0
  -17.7267    0.2259   -0.0054 C   0  0  0  0  0  0  0  0  0  0  0  0
  -17.6912    1.6199   -0.0124 C   0  0  0  0  0  0  0  0  0  0  0  0
  -16.4735    2.2875   -0.0161 C   0  0  0  0  0  0  0  0  0  0  0  0
  -15.2940    1.5764   -0.0065 C   0  0  0  0  0  0  0  0  0  0  0  0
  -18.8510    2.3267   -0.0162 O   0  0  0  0  0  0  0  0  0  0  0  0
  -18.9215   -0.4237   -0.0022 O   0  0  0  0  0  0  0  0  0  0  0  0
  -18.8834   -1.8522    0.0045 C   0  0  0  0  0  0  0  0  0  0  0  0
   24.3923    1.3155    0.8857 H   0  0  0  0  0  0  0  0  0  0  0  0
   25.3055    0.0690    0.0022 H   0  0  0  0  0  0  0  0  0  0  0  0
   24.3926    1.3065   -0.8942 H   0  0  0  0  0  0  0  0  0  0  0  0
   23.1830   -0.8581   -0.8834 H   0  0  0  0  0  0  0  0  0  0  0  0
   23.1827   -0.8490    0.8965 H   0  0  0  0  0  0  0  0  0  0  0  0
   21.8943    1.2696    0.8855 H   0  0  0  0  0  0  0  0  0  0  0  0
   21.8946    1.2605   -0.8944 H   0  0  0  0  0  0  0  0  0  0  0  0
   20.6850   -0.9041   -0.8836 H   0  0  0  0  0  0  0  0  0  0  0  0
   20.6847   -0.8950    0.8964 H   0  0  0  0  0  0  0  0  0  0  0  0
   19.3962    1.2236    0.8853 H   0  0  0  0  0  0  0  0  0  0  0  0
   19.3965    1.2145   -0.8946 H   0  0  0  0  0  0  0  0  0  0  0  0
   18.1869   -0.9501   -0.8838 H   0  0  0  0  0  0  0  0  0  0  0  0
   18.1866   -0.9410    0.8962 H   0  0  0  0  0  0  0  0  0  0  0  0
   16.8982    1.1776    0.8852 H   0  0  0  0  0  0  0  0  0  0  0  0
   16.8985    1.1685   -0.8948 H   0  0  0  0  0  0  0  0  0  0  0  0
   15.6889   -0.9961   -0.8840 H   0  0  0  0  0  0  0  0  0  0  0  0
   15.6886   -0.9870    0.8960 H   0  0  0  0  0  0  0  0  0  0  0  0
   14.4001    1.1316    0.8850 H   0  0  0  0  0  0  0  0  0  0  0  0
   14.4004    1.1225   -0.8950 H   0  0  0  0  0  0  0  0  0  0  0  0
   13.1908   -1.0420   -0.8841 H   0  0  0  0  0  0  0  0  0  0  0  0
   13.1905   -1.0330    0.8958 H   0  0  0  0  0  0  0  0  0  0  0  0
   11.9021    1.0856    0.8848 H   0  0  0  0  0  0  0  0  0  0  0  0
   11.9024    1.0765   -0.8952 H   0  0  0  0  0  0  0  0  0  0  0  0
   10.6927   -1.0880   -0.8843 H   0  0  0  0  0  0  0  0  0  0  0  0
   10.6924   -1.0790    0.8956 H   0  0  0  0  0  0  0  0  0  0  0  0
    9.4040    1.0396    0.8846 H   0  0  0  0  0  0  0  0  0  0  0  0
    9.4043    1.0306   -0.8953 H   0  0  0  0  0  0  0  0  0  0  0  0
    8.1947   -1.1340   -0.8845 H   0  0  0  0  0  0  0  0  0  0  0  0
    8.1944   -1.1249    0.8954 H   0  0  0  0  0  0  0  0  0  0  0  0
    6.9059    0.9936    0.8844 H   0  0  0  0  0  0  0  0  0  0  0  0
    6.9062    0.9846   -0.8955 H   0  0  0  0  0  0  0  0  0  0  0  0
    5.6966   -1.1800   -0.8847 H   0  0  0  0  0  0  0  0  0  0  0  0
    5.6963   -1.1709    0.8952 H   0  0  0  0  0  0  0  0  0  0  0  0
    4.4079    0.9477    0.8842 H   0  0  0  0  0  0  0  0  0  0  0  0
    4.4082    0.9386   -0.8957 H   0  0  0  0  0  0  0  0  0  0  0  0
    3.1986   -1.2260   -0.8849 H   0  0  0  0  0  0  0  0  0  0  0  0
    3.1983   -1.2169    0.8950 H   0  0  0  0  0  0  0  0  0  0  0  0
    1.9098    0.9017    0.8840 H   0  0  0  0  0  0  0  0  0  0  0  0
    1.9101    0.8926   -0.8959 H   0  0  0  0  0  0  0  0  0  0  0  0
    0.7005   -1.2720   -0.8851 H   0  0  0  0  0  0  0  0  0  0  0  0
    0.7002   -1.2629    0.8949 H   0  0  0  0  0  0  0  0  0  0  0  0
   -0.5882    0.8557    0.8838 H   0  0  0  0  0  0  0  0  0  0  0  0
   -0.5879    0.8466   -0.8961 H   0  0  0  0  0  0  0  0  0  0  0  0
   -1.7975   -1.3180   -0.8853 H   0  0  0  0  0  0  0  0  0  0  0  0
   -1.7978   -1.3089    0.8947 H   0  0  0  0  0  0  0  0  0  0  0  0
   -3.0863    0.8097    0.8837 H   0  0  0  0  0  0  0  0  0  0  0  0
   -3.0860    0.8006   -0.8963 H   0  0  0  0  0  0  0  0  0  0  0  0
   -4.2956   -1.3639   -0.8855 H   0  0  0  0  0  0  0  0  0  0  0  0
   -4.2959   -1.3549    0.8945 H   0  0  0  0  0  0  0  0  0  0  0  0
   -5.5843    0.7637    0.8835 H   0  0  0  0  0  0  0  0  0  0  0  0
   -5.5840    0.7546   -0.8965 H   0  0  0  0  0  0  0  0  0  0  0  0
   -6.7936   -1.4099   -0.8856 H   0  0  0  0  0  0  0  0  0  0  0  0
   -6.7939   -1.4009    0.8943 H   0  0  0  0  0  0  0  0  0  0  0  0
   -8.0824    0.7177    0.8833 H   0  0  0  0  0  0  0  0  0  0  0  0
   -8.0821    0.7087   -0.8967 H   0  0  0  0  0  0  0  0  0  0  0  0
   -9.2917   -1.4559   -0.8858 H   0  0  0  0  0  0  0  0  0  0  0  0
   -9.2920   -1.4468    0.8941 H   0  0  0  0  0  0  0  0  0  0  0  0
  -12.8575    1.1458   -0.0097 H   0  0  0  0  0  0  0  0  0  0  0  0
  -14.0871   -1.6643    0.0044 H   0  0  0  0  0  0  0  0  0  0  0  0
  -16.5754   -1.5749    0.0028 H   0  0  0  0  0  0  0  0  0  0  0  0
  -16.4514    3.3673   -0.0219 H   0  0  0  0  0  0  0  0  0  0  0  0
  -14.3485    2.0983   -0.0093 H   0  0  0  0  0  0  0  0  0  0  0  0
  -19.1869    2.5359    0.8661 H   0  0  0  0  0  0  0  0  0  0  0  0
  -19.9010   -2.2428    0.0064 H   0  0  0  0  0  0  0  0  0  0  0  0
  -18.3600   -2.2059   -0.8838 H   0  0  0  0  0  0  0  0  0  0  0  0
  -18.3600   -2.1974    0.8961 H   0  0  0  0  0  0  0  0  0  0  0  0
  1  2  1  0  0  0  0
  2  3  1  0  0  0  0
  3  4  1  0  0  0  0
  4  5  1  0  0  0  0
  5  6  1  0  0  0  0
  6  7  1  0  0  0  0
  7  8  1  0  0  0  0
  8  9  1  0  0  0  0
  9 10  1  0  0  0  0
 10 11  1  0  0  0  0
 11 12  1  0  0  0  0
 12 13  1  0  0  0  0
 13 14  1  0  0  0  0
 14 15  1  0  0  0  0
 15 16  1  0  0  0  0
 16 17  1  0  0  0  0
 17 18  1  0  0  0  0
 18 19  1  0  0  0  0
 19 20  1  0  0  0  0
 20 21  1  0  0  0  0
 21 22  1  0  0  0  0
 22 23  1  0  0  0  0
 23 24  1  0  0  0  0
 24 25  1  0  0  0  0
 25 26  1  0  0  0  0
 26 27  1  0  0  0  0
 27 28  1  0  0  0  0
 28 29  1  0  0  0  0
 29 30  1  0  0  0  0
 30 31  2  0  0  0  0
 30 32  1  0  0  0  0
 32 33  2  0  0  0  0
 33 34  1  0  0  0  0
 34 35  2  0  0  0  0
 35 36  1  0  0  0  0
 36 37  2  0  0  0  0
 37 38  1  0  0  0  0
 38 39  2  0  0  0  0
 34 39  1  0  0  0  0
 37 40  1  0  0  0  0
 36 41  1  0  0  0  0
 41 42  1  0  0  0  0
  1 43  1  0  0  0  0
  1 44  1  0  0  0  0
  1 45  1  0  0  0  0
  2 46  1  0  0  0  0
  2 47  1  0  0  0  0
  3 48  1  0  0  0  0
  3 49  1  0  0  0  0
  4 50  1  0  0  0  0
  4 51  1  0  0  0  0
  5 52  1  0  0  0  0
  5 53  1  0  0  0  0
  6 54  1  0  0  0  0
  6 55  1  0  0  0  0
  7 56  1  0  0  0  0
  7 57  1  0  0  0  0
  8 58  1  0  0  0  0
  8 59  1  0  0  0  0
  9 60  1  0  0  0  0
  9 61  1  0  0  0  0
 10 62  1  0  0  0  0
 10 63  1  0  0  0  0
 11 64  1  0  0  0  0
 11 65  1  0  0  0  0
 12 66  1  0  0  0  0
 12 67  1  0  0  0  0
 13 68  1  0  0  0  0
 13 69  1  0  0  0  0
 14 70  1  0  0  0  0
 14 71  1  0  0  0  0
 15 72  1  0  0  0  0
 15 73  1  0  0  0  0
 16 74  1  0  0  0  0
 16 75  1  0  0  0  0
 17 76  1  0  0  0  0
 17 77  1  0  0  0  0
 18 78  1  0  0  0  0
 18 79  1  0  0  0  0
 19 80  1  0  0  0  0
 19 81  1  0  0  0  0
 20 82  1  0  0  0  0
 20 83  1  0  0  0  0
 21 84  1  0  0  0  0
 21 85  1  0  0  0  0
 22 86  1  0  0  0  0
 22 87  1  0  0  0  0
 23 88  1  0  0  0  0
 23 89  1  0  0  0  0
 24 90  1  0  0  0  0
 24 91  1  0  0  0  0
 25 92  1  0  0  0  0
 25 93  1  0  0  0  0
 26 94  1  0  0  0  0
 26 95  1  0  0  0  0
 27 96  1  0  0  0  0
 27 97  1  0  0  0  0
 28 98  1  0  0  0  0
 28 99  1  0  0  0  0
 32100  1  0  0  0  0
 33101  1  0  0  0  0
 35102  1  0  0  0  0
 38103  1  0  0  0  0
 39104  1  0  0  0  0
 40105  1  0  0  0  0
 42106  1  0  0  0  0
 42107  1  0  0  0  0
 42108  1  0  0  0  0
M  END
$$$$
