C20H30O3
APtclcactv06291802543D 0   0.00000     0.00000
 
 53 56  0  0  0  0  0  0  0  0999 V2000
    4.3073    0.2124    1.0518 C   0  0  0  0  0  0  0  0  0  0  0  0
    3.2176    1.0785    0.4215 C   0  0  0  0  0  0  0  0  0  0  0  0
    3.6512    1.5230   -0.9739 C   0  0  0  0  0  0  0  0  0  0  0  0
    3.5085    0.4006   -1.9956 C   0  0  0  0  0  0  0  0  0  0  0  0
    2.0461   -0.0500   -2.0406 C   0  0  0  0  0  0  0  0  0  0  0  0
    1.6488   -0.6274   -0.6811 C   0  0  0  0  0  0  0  0  0  0  0  0
    1.8609    0.3982    0.4187 C   0  0  0  0  0  0  0  0  0  0  0  0
    1.5327   -0.2015    1.7870 C   0  0  0  0  0  0  0  0  0  0  0  0
    0.0442   -0.5717    1.8233 C   0  0  0  0  0  0  0  0  0  0  0  0
   -0.2711   -1.5188    0.6648 C   0  0  0  0  0  0  0  0  0  0  0  0
    0.1727   -1.0529   -0.7231 C   0  0  0  0  0  0  0  0  0  0  0  0
   -0.7310    0.0808   -1.1967 C   0  0  0  0  0  0  0  0  0  0  0  0
   -2.1334   -0.4389   -1.3823 C   0  0  0  0  0  0  0  0  0  0  0  0
   -3.1500    0.1523   -0.7593 C   0  0  0  0  0  0  0  0  0  0  0  0
   -4.6214   -0.1734   -0.9137 C   0  0  0  0  0  0  0  0  0  0  0  0
   -5.3248    0.8129    0.0334 C   0  0  0  0  0  0  0  0  0  0  0  0
   -4.2804    1.6097    0.6485 O   0  0  0  0  0  0  0  0  0  0  0  0
   -3.0665    1.2448    0.2181 C   0  0  0  0  0  0  0  0  0  0  0  0
   -2.0276    1.7590    0.5831 O   0  0  0  0  0  0  0  0  0  0  0  0
   -0.3140   -3.0177    0.9493 C   0  0  0  0  0  0  0  0  0  0  0  0
   -1.5007   -2.2494    0.7415 O   0  0  0  0  0  0  0  0  0  0  0  0
    2.4733   -1.9010   -0.4355 C   0  0  0  0  0  0  0  0  0  0  0  0
    3.1059    2.3646    1.2759 C   0  0  0  0  0  0  0  0  0  0  0  0
    5.1965    0.8178    1.2271 H   0  0  0  0  0  0  0  0  0  0  0  0
    3.9490   -0.1899    1.9994 H   0  0  0  0  0  0  0  0  0  0  0  0
    4.5536   -0.6086    0.3785 H   0  0  0  0  0  0  0  0  0  0  0  0
    3.0387    2.3753   -1.2839 H   0  0  0  0  0  0  0  0  0  0  0  0
    4.6961    1.8472   -0.9366 H   0  0  0  0  0  0  0  0  0  0  0  0
    3.7824    0.7853   -2.9869 H   0  0  0  0  0  0  0  0  0  0  0  0
    4.1669   -0.4268   -1.7594 H   0  0  0  0  0  0  0  0  0  0  0  0
    1.4347    0.8172   -2.2862 H   0  0  0  0  0  0  0  0  0  0  0  0
    1.9269   -0.8122   -2.8103 H   0  0  0  0  0  0  0  0  0  0  0  0
    1.1151    1.2131    0.2579 H   0  0  0  0  0  0  0  0  0  0  0  0
    2.1265   -1.0858    1.9918 H   0  0  0  0  0  0  0  0  0  0  0  0
    1.7182    0.5349    2.5730 H   0  0  0  0  0  0  0  0  0  0  0  0
   -0.1789   -1.0671    2.7699 H   0  0  0  0  0  0  0  0  0  0  0  0
   -0.5572    0.3324    1.7394 H   0  0  0  0  0  0  0  0  0  0  0  0
    0.0779   -1.8956   -1.4194 H   0  0  0  0  0  0  0  0  0  0  0  0
   -0.7343    0.8776   -0.4530 H   0  0  0  0  0  0  0  0  0  0  0  0
   -0.3593    0.4700   -2.1446 H   0  0  0  0  0  0  0  0  0  0  0  0
   -2.3134   -1.2910   -2.0209 H   0  0  0  0  0  0  0  0  0  0  0  0
   -4.9427   -0.0101   -1.9424 H   0  0  0  0  0  0  0  0  0  0  0  0
   -4.8188   -1.2014   -0.6097 H   0  0  0  0  0  0  0  0  0  0  0  0
   -6.0012    1.4549   -0.5309 H   0  0  0  0  0  0  0  0  0  0  0  0
   -5.8777    0.2671    0.7979 H   0  0  0  0  0  0  0  0  0  0  0  0
   -0.0063   -3.6984    0.1553 H   0  0  0  0  0  0  0  0  0  0  0  0
   -0.0947   -3.3492    1.9648 H   0  0  0  0  0  0  0  0  0  0  0  0
    3.5342   -1.6721   -0.5365 H   0  0  0  0  0  0  0  0  0  0  0  0
    2.2761   -2.2732    0.5698 H   0  0  0  0  0  0  0  0  0  0  0  0
    2.1944   -2.6608   -1.1655 H   0  0  0  0  0  0  0  0  0  0  0  0
    4.0622    2.8876    1.2719 H   0  0  0  0  0  0  0  0  0  0  0  0
    2.3356    3.0127    0.8579 H   0  0  0  0  0  0  0  0  0  0  0  0
    2.8412    2.0990    2.2994 H   0  0  0  0  0  0  0  0  0  0  0  0
  1  2  1  0  0  0  0
  2  3  1  0  0  0  0
  3  4  1  0  0  0  0
  4  5  1  0  0  0  0
  5  6  1  0  0  0  0
  6  7  1  0  0  0  0
  2  7  1  0  0  0  0
  7  8  1  0  0  0  0
  8  9  1  0  0  0  0
  9 10  1  0  0  0  0
 10 11  1  0  0  0  0
  6 11  1  0  0  0  0
 11 12  1  0  0  0  0
 12 13  1  0  0  0  0
 13 14  2  0  0  0  0
 14 15  1  0  0  0  0
 15 16  1  0  0  0  0
 16 17  1  0  0  0  0
 17 18  1  0  0  0  0
 14 18  1  0  0  0  0
 18 19  2  0  0  0  0
 10 20  1  0  0  0  0
 20 21  1  0  0  0  0
 10 21  1  0  0  0  0
  6 22  1  0  0  0  0
  2 23  1  0  0  0  0
  1 24  1  0  0  0  0
  1 25  1  0  0  0  0
  1 26  1  0  0  0  0
  3 27  1  0  0  0  0
  3 28  1  0  0  0  0
  4 29  1  0  0  0  0
  4 30  1  0  0  0  0
  5 31  1  0  0  0  0
  5 32  1  0  0  0  0
  7 33  1  0  0  0  0
  8 34  1  0  0  0  0
  8 35  1  0  0  0  0
  9 36  1  0  0  0  0
  9 37  1  0  0  0  0
 11 38  1  0  0  0  0
 12 39  1  0  0  0  0
 12 40  1  0  0  0  0
 13 41  1  0  0  0  0
 15 42  1  0  0  0  0
 15 43  1  0  0  0  0
 16 44  1  0  0  0  0
 16 45  1  0  0  0  0
 20 46  1  0  0  0  0
 20 47  1  0  0  0  0
 22 48  1  0  0  0  0
 22 49  1  0  0  0  0
 22 50  1  0  0  0  0
 23 51  1  0  0  0  0
 23 52  1  0  0  0  0
 23 53  1  0  0  0  0
M  END
$$$$
