C10H20O
APtclcactv06231803043D 0   0.00000     0.00000
 
 31 31  0  0  0  0  0  0  0  0999 V2000
    3.6063   -0.1322    0.2870 C   0  0  0  0  0  0  0  0  0  0  0  0
    2.1245    0.1875    0.4941 C   0  0  0  0  0  0  0  0  0  0  0  0
    1.5990    0.9721   -0.7097 C   0  0  0  0  0  0  0  0  0  0  0  0
    0.1171    1.2918   -0.5027 C   0  0  0  0  0  0  0  0  0  0  0  0
   -0.6708   -0.0119   -0.3603 C   0  0  0  0  0  0  0  0  0  0  0  0
   -0.1453   -0.7965    0.8435 C   0  0  0  0  0  0  0  0  0  0  0  0
    1.3365   -1.1163    0.6365 C   0  0  0  0  0  0  0  0  0  0  0  0
   -2.1527    0.3078   -0.1532 C   0  0  0  0  0  0  0  0  0  0  0  0
   -2.9216   -0.9878    0.1133 C   0  0  0  0  0  0  0  0  0  0  0  0
   -2.3091    1.2489    1.0429 C   0  0  0  0  0  0  0  0  0  0  0  0
   -0.5136   -0.7954   -1.5450 O   0  0  0  0  0  0  0  0  0  0  0  0
    4.1676    0.7966    0.1856 H   0  0  0  0  0  0  0  0  0  0  0  0
    3.9806   -0.6912    1.1446 H   0  0  0  0  0  0  0  0  0  0  0  0
    3.7262   -0.7298   -0.6166 H   0  0  0  0  0  0  0  0  0  0  0  0
    2.0045    0.7851    1.3977 H   0  0  0  0  0  0  0  0  0  0  0  0
    2.1603    1.9009   -0.8112 H   0  0  0  0  0  0  0  0  0  0  0  0
    1.7189    0.3745   -1.6134 H   0  0  0  0  0  0  0  0  0  0  0  0
   -0.0028    1.8894    0.4010 H   0  0  0  0  0  0  0  0  0  0  0  0
   -0.2572    1.8508   -1.3603 H   0  0  0  0  0  0  0  0  0  0  0  0
   -0.2653   -0.1989    1.7472 H   0  0  0  0  0  0  0  0  0  0  0  0
   -0.7067   -1.7253    0.9450 H   0  0  0  0  0  0  0  0  0  0  0  0
    1.4564   -1.7139   -0.2672 H   0  0  0  0  0  0  0  0  0  0  0  0
    1.7108   -1.6752    1.4941 H   0  0  0  0  0  0  0  0  0  0  0  0
   -2.5492    0.7882   -1.0477 H   0  0  0  0  0  0  0  0  0  0  0  0
   -3.9772   -0.7600    0.2608 H   0  0  0  0  0  0  0  0  0  0  0  0
   -2.8101   -1.6583   -0.7388 H   0  0  0  0  0  0  0  0  0  0  0  0
   -2.5251   -1.4682    1.0078 H   0  0  0  0  0  0  0  0  0  0  0  0
   -1.7613    2.1720    0.8530 H   0  0  0  0  0  0  0  0  0  0  0  0
   -3.3647    1.4767    1.1904 H   0  0  0  0  0  0  0  0  0  0  0  0
   -1.9126    0.7686    1.9374 H   0  0  0  0  0  0  0  0  0  0  0  0
    0.4028   -1.0356   -1.7389 H   0  0  0  0  0  0  0  0  0  0  0  0
  1  2  1  0  0  0  0
  2  3  1  0  0  0  0
  3  4  1  0  0  0  0
  4  5  1  0  0  0  0
  5  6  1  0  0  0  0
  6  7  1  0  0  0  0
  2  7  1  0  0  0  0
  5  8  1  0  0  0  0
  8  9  1  0  0  0  0
  8 10  1  0  0  0  0
  5 11  1  0  0  0  0
  1 12  1  0  0  0  0
  1 13  1  0  0  0  0
  1 14  1  0  0  0  0
  2 15  1  0  0  0  0
  3 16  1  0  0  0  0
  3 17  1  0  0  0  0
  4 18  1  0  0  0  0
  4 19  1  0  0  0  0
  6 20  1  0  0  0  0
  6 21  1  0  0  0  0
  7 22  1  0  0  0  0
  7 23  1  0  0  0  0
  8 24  1  0  0  0  0
  9 25  1  0  0  0  0
  9 26  1  0  0  0  0
  9 27  1  0  0  0  0
 10 28  1  0  0  0  0
 10 29  1  0  0  0  0
 10 30  1  0  0  0  0
 11 31  1  0  0  0  0
M  END
$$$$
