C17H12O6
APtclcactv06281817153D 0   0.00000     0.00000
 
 35 38  0  0  0  0  0  0  0  0999 V2000
    4.5183    2.6868   -0.0072 C   0  0  0  0  0  0  0  0  0  0  0  0
    4.6800    1.2669   -0.0063 O   0  0  0  0  0  0  0  0  0  0  0  0
    3.5455    0.5161   -0.0035 C   0  0  0  0  0  0  0  0  0  0  0  0
    3.6308   -0.8762   -0.0024 C   0  0  0  0  0  0  0  0  0  0  0  0
    2.4844   -1.6489   -0.0001 C   0  0  0  0  0  0  0  0  0  0  0  0
    1.2347   -1.0419    0.0013 C   0  0  0  0  0  0  0  0  0  0  0  0
    1.1513    0.3591    0.0008 C   0  0  0  0  0  0  0  0  0  0  0  0
    2.3093    1.1327    0.0040 C   0  0  0  0  0  0  0  0  0  0  0  0
   -0.2877    0.6694    0.0026 C   0  0  0  0  0  0  0  0  0  0  0  0
   -0.9391   -0.5614    0.0041 C   0  0  0  0  0  0  0  0  0  0  0  0
   -0.0220   -1.5402    0.0033 O   0  0  0  0  0  0  0  0  0  0  0  0
   -2.4077   -0.5537    0.0065 C   0  0  0  0  0  0  0  0  0  0  0  0
   -3.0806    0.6806    0.0073 C   0  0  0  0  0  0  0  0  0  0  0  0
   -4.4681    0.6972    0.0097 C   0  0  0  0  0  0  0  0  0  0  0  0
   -5.1722   -0.4955    0.0112 C   0  0  0  0  0  0  0  0  0  0  0  0
   -4.4986   -1.7143    0.0109 C   0  0  0  0  0  0  0  0  0  0  0  0
   -3.1333   -1.7481    0.0086 C   0  0  0  0  0  0  0  0  0  0  0  0
   -6.5300   -0.4762    0.0136 O   0  0  0  0  0  0  0  0  0  0  0  0
   -2.3849    1.8387    0.0053 O   0  0  0  0  0  0  0  0  0  0  0  0
   -1.0418    1.8624    0.0034 C   0  0  0  0  0  0  0  0  0  0  0  0
   -0.4637    2.9340    0.0020 O   0  0  0  0  0  0  0  0  0  0  0  0
    4.8505   -1.4778   -0.0042 O   0  0  0  0  0  0  0  0  0  0  0  0
    4.8690   -2.9067   -0.0030 C   0  0  0  0  0  0  0  0  0  0  0  0
    5.4983    3.1641   -0.0094 H   0  0  0  0  0  0  0  0  0  0  0  0
    3.9650    2.9889   -0.8964 H   0  0  0  0  0  0  0  0  0  0  0  0
    3.9684    2.9904    0.8836 H   0  0  0  0  0  0  0  0  0  0  0  0
    2.5604   -2.7262    0.0004 H   0  0  0  0  0  0  0  0  0  0  0  0
    2.2411    2.2106    0.0039 H   0  0  0  0  0  0  0  0  0  0  0  0
   -4.9979    1.6383    0.0106 H   0  0  0  0  0  0  0  0  0  0  0  0
   -5.0588   -2.6376    0.0129 H   0  0  0  0  0  0  0  0  0  0  0  0
   -2.6155   -2.6958    0.0079 H   0  0  0  0  0  0  0  0  0  0  0  0
   -6.9248   -0.4708   -0.8692 H   0  0  0  0  0  0  0  0  0  0  0  0
    4.3616   -3.2759    0.8882 H   0  0  0  0  0  0  0  0  0  0  0  0
    4.3582   -3.2775   -0.8917 H   0  0  0  0  0  0  0  0  0  0  0  0
    5.9013   -3.2567   -0.0047 H   0  0  0  0  0  0  0  0  0  0  0  0
  1  2  1  0  0  0  0
  2  3  1  0  0  0  0
  3  4  2  0  0  0  0
  4  5  1  0  0  0  0
  5  6  2  0  0  0  0
  6  7  1  0  0  0  0
  7  8  2  0  0  0  0
  3  8  1  0  0  0  0
  7  9  1  0  0  0  0
  9 10  2  0  0  0  0
 10 11  1  0  0  0  0
  6 11  1  0  0  0  0
 10 12  1  0  0  0  0
 12 13  2  0  0  0  0
 13 14  1  0  0  0  0
 14 15  2  0  0  0  0
 15 16  1  0  0  0  0
 16 17  2  0  0  0  0
 12 17  1  0  0  0  0
 15 18  1  0  0  0  0
 13 19  1  0  0  0  0
 19 20  1  0  0  0  0
  9 20  1  0  0  0  0
 20 21  2  0  0  0  0
  4 22  1  0  0  0  0
 22 23  1  0  0  0  0
  1 24  1  0  0  0  0
  1 25  1  0  0  0  0
  1 26  1  0  0  0  0
  5 27  1  0  0  0  0
  8 28  1  0  0  0  0
 14 29  1  0  0  0  0
 16 30  1  0  0  0  0
 17 31  1  0  0  0  0
 18 32  1  0  0  0  0
 23 33  1  0  0  0  0
 23 34  1  0  0  0  0
 23 35  1  0  0  0  0
M  END
$$$$
