C25H26O5
APtclcactv06281817153D 0   0.00000     0.00000
 
 56 58  0  0  0  0  0  0  0  0999 V2000
    6.6448   -1.2292    0.0746 C   0  0  0  0  0  0  0  0  0  0  0  0
    5.6182   -0.0969    0.1446 C   0  0  0  0  0  0  0  0  0  0  0  0
    5.9313    0.9428   -0.9333 C   0  0  0  0  0  0  0  0  0  0  0  0
    4.2162   -0.6645   -0.0862 C   0  0  0  0  0  0  0  0  0  0  0  0
    3.1948    0.4270    0.1041 C   0  0  0  0  0  0  0  0  0  0  0  0
    3.5531    1.5494    0.3957 O   0  0  0  0  0  0  0  0  0  0  0  0
    1.7726    0.1342   -0.0627 C   0  0  0  0  0  0  0  0  0  0  0  0
    1.3531   -1.1657   -0.4008 C   0  0  0  0  0  0  0  0  0  0  0  0
    0.0052   -1.4475   -0.5599 C   0  0  0  0  0  0  0  0  0  0  0  0
   -0.9433   -0.4543   -0.3877 C   0  0  0  0  0  0  0  0  0  0  0  0
   -0.5425    0.8501   -0.0492 C   0  0  0  0  0  0  0  0  0  0  0  0
    0.8155    1.1490    0.1197 C   0  0  0  0  0  0  0  0  0  0  0  0
    1.1971    2.3996    0.4449 O   0  0  0  0  0  0  0  0  0  0  0  0
    0.3088    3.3914    0.6172 C   0  0  0  0  0  0  0  0  0  0  0  0
    0.7110    4.5038    0.9106 O   0  0  0  0  0  0  0  0  0  0  0  0
   -1.0710    3.1809    0.4677 C   0  0  0  0  0  0  0  0  0  0  0  0
   -1.5345    1.9194    0.1388 C   0  0  0  0  0  0  0  0  0  0  0  0
   -2.9811    1.6570   -0.0282 C   0  0  0  0  0  0  0  0  0  0  0  0
   -3.6896    2.2696   -1.0628 C   0  0  0  0  0  0  0  0  0  0  0  0
   -5.0381    2.0203   -1.2133 C   0  0  0  0  0  0  0  0  0  0  0  0
   -5.6882    1.1650   -0.3413 C   0  0  0  0  0  0  0  0  0  0  0  0
   -4.9916    0.5549    0.6867 C   0  0  0  0  0  0  0  0  0  0  0  0
   -3.6416    0.7913    0.8447 C   0  0  0  0  0  0  0  0  0  0  0  0
   -2.2586   -0.7392   -0.5457 O   0  0  0  0  0  0  0  0  0  0  0  0
   -0.4300   -2.8438   -0.9231 C   0  0  0  0  0  0  0  0  0  0  0  0
   -0.6690   -3.6386    0.3348 C   0  0  0  0  0  0  0  0  0  0  0  0
   -1.8120   -4.2530    0.5141 C   0  0  0  0  0  0  0  0  0  0  0  0
   -2.9356   -4.0568   -0.4708 C   0  0  0  0  0  0  0  0  0  0  0  0
   -2.0032   -5.1561    1.7053 C   0  0  0  0  0  0  0  0  0  0  0  0
    2.2714   -2.1468   -0.5722 O   0  0  0  0  0  0  0  0  0  0  0  0
    7.6435   -0.8249    0.2390 H   0  0  0  0  0  0  0  0  0  0  0  0
    6.4217   -1.9699    0.8425 H   0  0  0  0  0  0  0  0  0  0  0  0
    6.6004   -1.6996   -0.9077 H   0  0  0  0  0  0  0  0  0  0  0  0
    5.6626    0.3735    1.1269 H   0  0  0  0  0  0  0  0  0  0  0  0
    5.2000    1.7495   -0.8834 H   0  0  0  0  0  0  0  0  0  0  0  0
    6.9301    1.3471   -0.7689 H   0  0  0  0  0  0  0  0  0  0  0  0
    5.8869    0.4724   -1.9156 H   0  0  0  0  0  0  0  0  0  0  0  0
    4.1452   -1.0558   -1.1010 H   0  0  0  0  0  0  0  0  0  0  0  0
    4.0273   -1.4671    0.6267 H   0  0  0  0  0  0  0  0  0  0  0  0
   -1.7651    3.9956    0.6121 H   0  0  0  0  0  0  0  0  0  0  0  0
   -3.1834    2.9376   -1.7439 H   0  0  0  0  0  0  0  0  0  0  0  0
   -5.5876    2.4940   -2.0133 H   0  0  0  0  0  0  0  0  0  0  0  0
   -6.7440    0.9732   -0.4634 H   0  0  0  0  0  0  0  0  0  0  0  0
   -5.5049   -0.1114    1.3643 H   0  0  0  0  0  0  0  0  0  0  0  0
   -3.0990    0.3144    1.6475 H   0  0  0  0  0  0  0  0  0  0  0  0
   -2.6990   -1.0266    0.2657 H   0  0  0  0  0  0  0  0  0  0  0  0
   -1.3510   -2.7976   -1.5042 H   0  0  0  0  0  0  0  0  0  0  0  0
    0.3490   -3.3249   -1.5145 H   0  0  0  0  0  0  0  0  0  0  0  0
    0.1021   -3.7017    1.0883 H   0  0  0  0  0  0  0  0  0  0  0  0
   -2.8056   -4.7388   -1.3110 H   0  0  0  0  0  0  0  0  0  0  0  0
   -3.8878   -4.2610    0.0189 H   0  0  0  0  0  0  0  0  0  0  0  0
   -2.9262   -3.0286   -0.8325 H   0  0  0  0  0  0  0  0  0  0  0  0
   -2.3919   -4.5761    2.5423 H   0  0  0  0  0  0  0  0  0  0  0  0
   -2.7094   -5.9468    1.4521 H   0  0  0  0  0  0  0  0  0  0  0  0
   -1.0466   -5.5987    1.9830 H   0  0  0  0  0  0  0  0  0  0  0  0
    2.4798   -2.6359    0.2355 H   0  0  0  0  0  0  0  0  0  0  0  0
  1  2  1  0  0  0  0
  2  3  1  0  0  0  0
  2  4  1  0  0  0  0
  4  5  1  0  0  0  0
  5  6  2  0  0  0  0
  5  7  1  0  0  0  0
  7  8  2  0  0  0  0
  8  9  1  0  0  0  0
  9 10  2  0  0  0  0
 10 11  1  0  0  0  0
 11 12  2  0  0  0  0
  7 12  1  0  0  0  0
 12 13  1  0  0  0  0
 13 14  1  0  0  0  0
 14 15  2  0  0  0  0
 14 16  1  0  0  0  0
 16 17  2  0  0  0  0
 11 17  1  0  0  0  0
 17 18  1  0  0  0  0
 18 19  2  0  0  0  0
 19 20  1  0  0  0  0
 20 21  2  0  0  0  0
 21 22  1  0  0  0  0
 22 23  2  0  0  0  0
 18 23  1  0  0  0  0
 10 24  1  0  0  0  0
  9 25  1  0  0  0  0
 25 26  1  0  0  0  0
 26 27  2  0  0  0  0
 27 28  1  0  0  0  0
 27 29  1  0  0  0  0
  8 30  1  0  0  0  0
  1 31  1  0  0  0  0
  1 32  1  0  0  0  0
  1 33  1  0  0  0  0
  2 34  1  0  0  0  0
  3 35  1  0  0  0  0
  3 36  1  0  0  0  0
  3 37  1  0  0  0  0
  4 38  1  0  0  0  0
  4 39  1  0  0  0  0
 16 40  1  0  0  0  0
 19 41  1  0  0  0  0
 20 42  1  0  0  0  0
 21 43  1  0  0  0  0
 22 44  1  0  0  0  0
 23 45  1  0  0  0  0
 24 46  1  0  0  0  0
 25 47  1  0  0  0  0
 25 48  1  0  0  0  0
 26 49  1  0  0  0  0
 28 50  1  0  0  0  0
 28 51  1  0  0  0  0
 28 52  1  0  0  0  0
 29 53  1  0  0  0  0
 29 54  1  0  0  0  0
 29 55  1  0  0  0  0
 30 56  1  0  0  0  0
M  END
$$$$
