C17H14O7
APtclcactv06281817153D 0   0.00000     0.00000
 
 38 40  0  0  0  0  0  0  0  0999 V2000
    3.4205    3.6835   -0.3153 C   0  0  0  0  0  0  0  0  0  0  0  0
    3.9719    2.3656   -0.2806 O   0  0  0  0  0  0  0  0  0  0  0  0
    3.0939    1.3314   -0.2120 C   0  0  0  0  0  0  0  0  0  0  0  0
    3.5707    0.0223   -0.1752 C   0  0  0  0  0  0  0  0  0  0  0  0
    2.6825   -1.0387   -0.1048 C   0  0  0  0  0  0  0  0  0  0  0  0
    1.3059   -0.7842   -0.0711 C   0  0  0  0  0  0  0  0  0  0  0  0
    0.8291    0.5384   -0.1083 C   0  0  0  0  0  0  0  0  0  0  0  0
    1.7327    1.5879   -0.1734 C   0  0  0  0  0  0  0  0  0  0  0  0
   -0.4999    0.7741   -0.0761 O   0  0  0  0  0  0  0  0  0  0  0  0
   -1.4041   -0.2178   -0.0089 C   0  0  0  0  0  0  0  0  0  0  0  0
   -1.0459   -1.5319    0.0321 C   0  0  0  0  0  0  0  0  0  0  0  0
    0.3286   -1.8820    0.0031 C   0  0  0  0  0  0  0  0  0  0  0  0
    0.6868   -3.0485    0.0380 O   0  0  0  0  0  0  0  0  0  0  0  0
   -1.9991   -2.5009    0.1009 O   0  0  0  0  0  0  0  0  0  0  0  0
   -2.8370    0.1287    0.0220 C   0  0  0  0  0  0  0  0  0  0  0  0
   -3.2993    1.1228    0.8891 C   0  0  0  0  0  0  0  0  0  0  0  0
   -4.6388    1.4432    0.9146 C   0  0  0  0  0  0  0  0  0  0  0  0
   -5.5300    0.7795    0.0804 C   0  0  0  0  0  0  0  0  0  0  0  0
   -5.0751   -0.2097   -0.7828 C   0  0  0  0  0  0  0  0  0  0  0  0
   -3.7364   -0.5320   -0.8199 C   0  0  0  0  0  0  0  0  0  0  0  0
   -6.8497    1.0982    0.1093 O   0  0  0  0  0  0  0  0  0  0  0  0
    3.1435   -2.3160   -0.0692 O   0  0  0  0  0  0  0  0  0  0  0  0
    4.9111   -0.2143   -0.2090 O   0  0  0  0  0  0  0  0  0  0  0  0
    5.5908   -0.2764    1.0465 C   0  0  0  0  0  0  0  0  0  0  0  0
    4.2279    4.4138   -0.3696 H   0  0  0  0  0  0  0  0  0  0  0  0
    2.7786    3.7858   -1.1902 H   0  0  0  0  0  0  0  0  0  0  0  0
    2.8346    3.8561    0.5874 H   0  0  0  0  0  0  0  0  0  0  0  0
    1.3749    2.6065   -0.2021 H   0  0  0  0  0  0  0  0  0  0  0  0
   -1.6447   -3.4002    0.1256 H   0  0  0  0  0  0  0  0  0  0  0  0
   -2.6074    1.6387    1.5384 H   0  0  0  0  0  0  0  0  0  0  0  0
   -4.9968    2.2111    1.5843 H   0  0  0  0  0  0  0  0  0  0  0  0
   -5.7715   -0.7235   -1.4290 H   0  0  0  0  0  0  0  0  0  0  0  0
   -3.3836   -1.3008   -1.4914 H   0  0  0  0  0  0  0  0  0  0  0  0
   -7.0987    1.7990   -0.5089 H   0  0  0  0  0  0  0  0  0  0  0  0
    3.3053   -2.6511    0.8233 H   0  0  0  0  0  0  0  0  0  0  0  0
    5.1668   -1.0791    1.6498 H   0  0  0  0  0  0  0  0  0  0  0  0
    6.6500   -0.4698    0.8770 H   0  0  0  0  0  0  0  0  0  0  0  0
    5.4739    0.6724    1.5702 H   0  0  0  0  0  0  0  0  0  0  0  0
  1  2  1  0  0  0  0
  2  3  1  0  0  0  0
  3  4  2  0  0  0  0
  4  5  1  0  0  0  0
  5  6  2  0  0  0  0
  6  7  1  0  0  0  0
  7  8  2  0  0  0  0
  3  8  1  0  0  0  0
  7  9  1  0  0  0  0
  9 10  1  0  0  0  0
 10 11  2  0  0  0  0
 11 12  1  0  0  0  0
  6 12  1  0  0  0  0
 12 13  2  0  0  0  0
 11 14  1  0  0  0  0
 10 15  1  0  0  0  0
 15 16  2  0  0  0  0
 16 17  1  0  0  0  0
 17 18  2  0  0  0  0
 18 19  1  0  0  0  0
 19 20  2  0  0  0  0
 15 20  1  0  0  0  0
 18 21  1  0  0  0  0
  5 22  1  0  0  0  0
  4 23  1  0  0  0  0
 23 24  1  0  0  0  0
  1 25  1  0  0  0  0
  1 26  1  0  0  0  0
  1 27  1  0  0  0  0
  8 28  1  0  0  0  0
 14 29  1  0  0  0  0
 16 30  1  0  0  0  0
 17 31  1  0  0  0  0
 19 32  1  0  0  0  0
 20 33  1  0  0  0  0
 21 34  1  0  0  0  0
 22 35  1  0  0  0  0
 24 36  1  0  0  0  0
 24 37  1  0  0  0  0
 24 38  1  0  0  0  0
M  END
$$$$
