AlH8
APtclcactv06291802543D 0   0.00000     0.00000
 
  9  5  0  0  0  0  0  0  0  0999 V2000
  -24.9391    0.0953    0.0071 H   0  0  0  0  0  0  0  0  0  0  0  0
  -24.4421   -0.4592   -0.1451 H   0  0  0  0  0  0  0  0  0  0  0  0
  -15.8228    0.3458    0.0968 H   0  0  0  0  0  0  0  0  0  0  0  0
  -15.3258   -0.2087   -0.0554 H   0  0  0  0  0  0  0  0  0  0  0  0
   -6.7065    0.5963    0.1866 H   0  0  0  0  0  0  0  0  0  0  0  0
   -6.2095    0.0418    0.0344 H   0  0  0  0  0  0  0  0  0  0  0  0
    3.2160   -0.0527    0.0295 Al  0  4  0  0  0  0  0  0  0  0  0  0
    2.8776    1.3994   -0.2095 H   0  0  0  0  0  0  0  0  0  0  0  0
    4.4899   -0.3998   -0.7032 H   0  0  0  0  0  0  0  0  0  0  0  0
  1  2  1  0  0  0  0
  3  4  1  0  0  0  0
  5  6  1  0  0  0  0
  7  8  1  0  0  0  0
  7  9  1  0  0  0  0
M  RAD  1   7   2
M  END
$$$$
