C9H10O
APtclcactv06281817163D 0   0.00000     0.00000
 
 20 20  0  0  0  0  0  0  0  0999 V2000
    4.2860    0.1969    0.0114 C   0  0  0  0  0  0  0  0  0  0  0  0
    2.8000    0.4480    0.0034 C   0  0  0  0  0  0  0  0  0  0  0  0
    1.9550   -0.5738    0.0042 C   0  0  0  0  0  0  0  0  0  0  0  0
    0.4980   -0.3276   -0.0037 C   0  0  0  0  0  0  0  0  0  0  0  0
   -0.3932   -1.4019   -0.0029 C   0  0  0  0  0  0  0  0  0  0  0  0
   -1.7518   -1.1682   -0.0098 C   0  0  0  0  0  0  0  0  0  0  0  0
   -2.2340    0.1339   -0.0176 C   0  0  0  0  0  0  0  0  0  0  0  0
   -1.3507    1.2053   -0.0189 C   0  0  0  0  0  0  0  0  0  0  0  0
    0.0093    0.9798   -0.0062 C   0  0  0  0  0  0  0  0  0  0  0  0
   -3.5737    0.3603   -0.0244 O   0  0  0  0  0  0  0  0  0  0  0  0
    4.8154    1.1497    0.0095 H   0  0  0  0  0  0  0  0  0  0  0  0
    4.5545   -0.3661    0.9053 H   0  0  0  0  0  0  0  0  0  0  0  0
    4.5627   -0.3744   -0.8747 H   0  0  0  0  0  0  0  0  0  0  0  0
    2.4234    1.4602   -0.0031 H   0  0  0  0  0  0  0  0  0  0  0  0
    2.3316   -1.5860    0.0106 H   0  0  0  0  0  0  0  0  0  0  0  0
   -0.0188   -2.4150    0.0028 H   0  0  0  0  0  0  0  0  0  0  0  0
   -2.4419   -1.9989   -0.0095 H   0  0  0  0  0  0  0  0  0  0  0  0
   -1.7296    2.2167   -0.0257 H   0  0  0  0  0  0  0  0  0  0  0  0
    0.6957    1.8136   -0.0073 H   0  0  0  0  0  0  0  0  0  0  0  0
   -3.9653    0.4297    0.8571 H   0  0  0  0  0  0  0  0  0  0  0  0
  1  2  1  0  0  0  0
  2  3  2  0  0  0  0
  3  4  1  0  0  0  0
  4  5  2  0  0  0  0
  5  6  1  0  0  0  0
  6  7  2  0  0  0  0
  7  8  1  0  0  0  0
  8  9  2  0  0  0  0
  4  9  1  0  0  0  0
  7 10  1  0  0  0  0
  1 11  1  0  0  0  0
  1 12  1  0  0  0  0
  1 13  1  0  0  0  0
  2 14  1  0  0  0  0
  3 15  1  0  0  0  0
  5 16  1  0  0  0  0
  6 17  1  0  0  0  0
  8 18  1  0  0  0  0
  9 19  1  0  0  0  0
 10 20  1  0  0  0  0
M  END
$$$$
