C22H16N4O
APtclcactv06281817113D 0   0.00000     0.00000
 
 43 46  0  0  0  0  0  0  0  0999 V2000
   -8.6082   -0.8628   -0.0984 C   0  0  0  0  0  0  0  0  0  0  0  0
   -7.8025   -1.9828   -0.2068 C   0  0  0  0  0  0  0  0  0  0  0  0
   -6.4297   -1.8532   -0.1879 C   0  0  0  0  0  0  0  0  0  0  0  0
   -5.8525   -0.5868   -0.0595 C   0  0  0  0  0  0  0  0  0  0  0  0
   -6.6727    0.5397    0.0490 C   0  0  0  0  0  0  0  0  0  0  0  0
   -8.0440    0.3944    0.0291 C   0  0  0  0  0  0  0  0  0  0  0  0
   -4.4927   -0.4506   -0.0396 N   0  0  0  0  0  0  0  0  0  0  0  0
   -3.9633    0.7197    0.0791 N   0  0  0  0  0  0  0  0  0  0  0  0
   -2.6054    0.8557    0.0990 C   0  0  0  0  0  0  0  0  0  0  0  0
   -2.0295    2.1243    0.2277 C   0  0  0  0  0  0  0  0  0  0  0  0
   -0.6599    2.2577    0.2478 C   0  0  0  0  0  0  0  0  0  0  0  0
    0.1527    1.1317    0.1403 C   0  0  0  0  0  0  0  0  0  0  0  0
   -0.4171   -0.1325    0.0116 C   0  0  0  0  0  0  0  0  0  0  0  0
   -1.7861   -0.2738   -0.0035 C   0  0  0  0  0  0  0  0  0  0  0  0
    1.5366    1.2703    0.1610 N   0  0  0  0  0  0  0  0  0  0  0  0
    2.2906    0.2284    0.0615 N   0  0  0  0  0  0  0  0  0  0  0  0
    3.6009    0.3673   -0.0228 C   0  0  0  0  0  0  0  0  0  0  0  0
    4.2120    1.6985   -0.1612 C   0  0  0  0  0  0  0  0  0  0  0  0
    3.5080    2.6950   -0.1993 O   0  0  0  0  0  0  0  0  0  0  0  0
    5.6157    1.8186   -0.2493 C   0  0  0  0  0  0  0  0  0  0  0  0
    6.4238    0.7387   -0.2101 C   0  0  0  0  0  0  0  0  0  0  0  0
    5.8853   -0.6105   -0.0744 C   0  0  0  0  0  0  0  0  0  0  0  0
    6.7378   -1.7214   -0.0358 C   0  0  0  0  0  0  0  0  0  0  0  0
    6.2083   -2.9847    0.0924 C   0  0  0  0  0  0  0  0  0  0  0  0
    4.8358   -3.1727    0.1837 C   0  0  0  0  0  0  0  0  0  0  0  0
    3.9768   -2.0953    0.1480 C   0  0  0  0  0  0  0  0  0  0  0  0
    4.4908   -0.8060    0.0254 C   0  0  0  0  0  0  0  0  0  0  0  0
   -9.6827   -0.9700   -0.1179 H   0  0  0  0  0  0  0  0  0  0  0  0
   -8.2499   -2.9607   -0.3060 H   0  0  0  0  0  0  0  0  0  0  0  0
   -5.8021   -2.7281   -0.2719 H   0  0  0  0  0  0  0  0  0  0  0  0
   -6.2337    1.5214    0.1489 H   0  0  0  0  0  0  0  0  0  0  0  0
   -8.6790    1.2640    0.1125 H   0  0  0  0  0  0  0  0  0  0  0  0
   -2.6591    2.9979    0.3107 H   0  0  0  0  0  0  0  0  0  0  0  0
   -0.2147    3.2367    0.3467 H   0  0  0  0  0  0  0  0  0  0  0  0
    0.2160   -1.0035   -0.0719 H   0  0  0  0  0  0  0  0  0  0  0  0
   -2.2273   -1.2546   -0.1029 H   0  0  0  0  0  0  0  0  0  0  0  0
    1.9346    2.1503    0.2503 H   0  0  0  0  0  0  0  0  0  0  0  0
    6.0542    2.8003   -0.3511 H   0  0  0  0  0  0  0  0  0  0  0  0
    7.4926    0.8760   -0.2812 H   0  0  0  0  0  0  0  0  0  0  0  0
    7.8070   -1.5866   -0.1067 H   0  0  0  0  0  0  0  0  0  0  0  0
    6.8675   -3.8396    0.1219 H   0  0  0  0  0  0  0  0  0  0  0  0
    4.4377   -4.1717    0.2832 H   0  0  0  0  0  0  0  0  0  0  0  0
    2.9103   -2.2494    0.2196 H   0  0  0  0  0  0  0  0  0  0  0  0
  1  2  2  0  0  0  0
  2  3  1  0  0  0  0
  3  4  2  0  0  0  0
  4  5  1  0  0  0  0
  5  6  2  0  0  0  0
  1  6  1  0  0  0  0
  4  7  1  0  0  0  0
  7  8  2  0  0  0  0
  8  9  1  0  0  0  0
  9 10  2  0  0  0  0
 10 11  1  0  0  0  0
 11 12  2  0  0  0  0
 12 13  1  0  0  0  0
 13 14  2  0  0  0  0
  9 14  1  0  0  0  0
 12 15  1  0  0  0  0
 15 16  1  0  0  0  0
 16 17  2  0  0  0  0
 17 18  1  0  0  0  0
 18 19  2  0  0  0  0
 18 20  1  0  0  0  0
 20 21  2  0  0  0  0
 21 22  1  0  0  0  0
 22 23  2  0  0  0  0
 23 24  1  0  0  0  0
 24 25  2  0  0  0  0
 25 26  1  0  0  0  0
 26 27  2  0  0  0  0
 22 27  1  0  0  0  0
 17 27  1  0  0  0  0
  1 28  1  0  0  0  0
  2 29  1  0  0  0  0
  3 30  1  0  0  0  0
  5 31  1  0  0  0  0
  6 32  1  0  0  0  0
 10 33  1  0  0  0  0
 11 34  1  0  0  0  0
 13 35  1  0  0  0  0
 14 36  1  0  0  0  0
 15 37  1  0  0  0  0
 20 38  1  0  0  0  0
 21 39  1  0  0  0  0
 23 40  1  0  0  0  0
 24 41  1  0  0  0  0
 25 42  1  0  0  0  0
 26 43  1  0  0  0  0
M  END
$$$$
