C14H17NO9
APtclcactv06291802543D 0   0.00000     0.00000
 
 41 43  0  0  0  0  0  0  0  0999 V2000
   -4.8432   -1.7299   -0.0574 C   0  0  0  0  0  0  0  0  0  0  0  0
   -4.1746   -2.2441    1.0378 C   0  0  0  0  0  0  0  0  0  0  0  0
   -3.0612   -1.5960    1.5417 C   0  0  0  0  0  0  0  0  0  0  0  0
   -2.6144   -0.4289    0.9470 C   0  0  0  0  0  0  0  0  0  0  0  0
   -3.2808    0.0829   -0.1647 C   0  0  0  0  0  0  0  0  0  0  0  0
   -4.3992   -0.5671   -0.6605 C   0  0  0  0  0  0  0  0  0  0  0  0
   -2.7994    1.2449   -0.7830 N   0  0  0  0  0  0  0  0  0  0  0  0
   -1.5895    1.7268   -0.4294 C   0  0  0  0  0  0  0  0  0  0  0  0
   -1.2039    2.7879   -0.8726 O   0  0  0  0  0  0  0  0  0  0  0  0
   -0.7188    0.9419    0.5189 C   0  0  0  0  0  0  0  0  0  0  0  0
   -1.5388    0.2337    1.4511 O   0  0  0  0  0  0  0  0  0  0  0  0
    0.0720    0.0105   -0.2222 O   0  0  0  0  0  0  0  0  0  0  0  0
    1.0182   -0.7090    0.5711 C   0  0  0  0  0  0  0  0  0  0  0  0
    1.7175   -1.7591   -0.2960 C   0  0  0  0  0  0  0  0  0  0  0  0
    2.4900   -1.0538   -1.4150 C   0  0  0  0  0  0  0  0  0  0  0  0
    3.4779   -0.0626   -0.7922 C   0  0  0  0  0  0  0  0  0  0  0  0
    2.7105    0.9220    0.0940 C   0  0  0  0  0  0  0  0  0  0  0  0
    1.9899    0.1989    1.0940 O   0  0  0  0  0  0  0  0  0  0  0  0
    3.6970    1.8783    0.7672 C   0  0  0  0  0  0  0  0  0  0  0  0
    2.9746    2.8689    1.5013 O   0  0  0  0  0  0  0  0  0  0  0  0
    4.4325   -0.7732   -0.0011 O   0  0  0  0  0  0  0  0  0  0  0  0
    3.2055   -2.0216   -2.1854 O   0  0  0  0  0  0  0  0  0  0  0  0
    2.6255   -2.5146    0.5083 O   0  0  0  0  0  0  0  0  0  0  0  0
   -3.5735    1.9055   -1.7676 O   0  0  0  0  0  0  0  0  0  0  0  0
   -5.7123   -2.2399   -0.4459 H   0  0  0  0  0  0  0  0  0  0  0  0
   -4.5229   -3.1550    1.5018 H   0  0  0  0  0  0  0  0  0  0  0  0
   -2.5416   -1.9999    2.3981 H   0  0  0  0  0  0  0  0  0  0  0  0
   -4.9226   -0.1673   -1.5164 H   0  0  0  0  0  0  0  0  0  0  0  0
   -0.0629    1.6250    1.0586 H   0  0  0  0  0  0  0  0  0  0  0  0
    0.5016   -1.2027    1.3942 H   0  0  0  0  0  0  0  0  0  0  0  0
    0.9735   -2.4262   -0.7314 H   0  0  0  0  0  0  0  0  0  0  0  0
    1.7920   -0.5177   -2.0580 H   0  0  0  0  0  0  0  0  0  0  0  0
    3.9928    0.4836   -1.5825 H   0  0  0  0  0  0  0  0  0  0  0  0
    2.0110    1.4922   -0.5173 H   0  0  0  0  0  0  0  0  0  0  0  0
    4.3391    1.3185    1.4472 H   0  0  0  0  0  0  0  0  0  0  0  0
    4.3088    2.3638    0.0068 H   0  0  0  0  0  0  0  0  0  0  0  0
    3.5378    3.5107    1.9552 H   0  0  0  0  0  0  0  0  0  0  0  0
    4.9525   -1.4192   -0.4983 H   0  0  0  0  0  0  0  0  0  0  0  0
    2.6414   -2.6862   -2.6040 H   0  0  0  0  0  0  0  0  0  0  0  0
    2.2044   -2.9847    1.2410 H   0  0  0  0  0  0  0  0  0  0  0  0
   -3.1537    2.6965   -2.1326 H   0  0  0  0  0  0  0  0  0  0  0  0
  1  2  2  0  0  0  0
  2  3  1  0  0  0  0
  3  4  2  0  0  0  0
  4  5  1  0  0  0  0
  5  6  2  0  0  0  0
  1  6  1  0  0  0  0
  5  7  1  0  0  0  0
  7  8  1  0  0  0  0
  8  9  2  0  0  0  0
  8 10  1  0  0  0  0
 10 11  1  0  0  0  0
  4 11  1  0  0  0  0
 10 12  1  0  0  0  0
 12 13  1  0  0  0  0
 13 14  1  0  0  0  0
 14 15  1  0  0  0  0
 15 16  1  0  0  0  0
 16 17  1  0  0  0  0
 17 18  1  0  0  0  0
 13 18  1  0  0  0  0
 17 19  1  0  0  0  0
 19 20  1  0  0  0  0
 16 21  1  0  0  0  0
 15 22  1  0  0  0  0
 14 23  1  0  0  0  0
  7 24  1  0  0  0  0
  1 25  1  0  0  0  0
  2 26  1  0  0  0  0
  3 27  1  0  0  0  0
  6 28  1  0  0  0  0
 10 29  1  0  0  0  0
 13 30  1  0  0  0  0
 14 31  1  0  0  0  0
 15 32  1  0  0  0  0
 16 33  1  0  0  0  0
 17 34  1  0  0  0  0
 19 35  1  0  0  0  0
 19 36  1  0  0  0  0
 20 37  1  0  0  0  0
 21 38  1  0  0  0  0
 22 39  1  0  0  0  0
 23 40  1  0  0  0  0
 24 41  1  0  0  0  0
M  END
$$$$
