C9H15NS
APtclcactv06231803053D 0   0.00000     0.00000
 
 26 26  0  0  0  0  0  0  0  0999 V2000
    4.6277    0.5734   -0.8761 C   0  0  0  0  0  0  0  0  0  0  0  0
    3.6852    0.3241    0.3031 C   0  0  0  0  0  0  0  0  0  0  0  0
    2.2401    0.2870   -0.1981 C   0  0  0  0  0  0  0  0  0  0  0  0
    1.2975    0.0378    0.9810 C   0  0  0  0  0  0  0  0  0  0  0  0
   -0.1259    0.0012    0.4873 C   0  0  0  0  0  0  0  0  0  0  0  0
   -0.7228   -1.1247    0.0848 C   0  0  0  0  0  0  0  0  0  0  0  0
   -2.3660   -0.7214   -0.4067 S   0  0  0  0  0  0  0  0  0  0  0  0
   -2.0870    0.9210   -0.0222 C   0  0  0  0  0  0  0  0  0  0  0  0
   -0.8857    1.0759    0.4223 N   0  0  0  0  0  0  0  0  0  0  0  0
   -3.0998    2.0266   -0.1743 C   0  0  0  0  0  0  0  0  0  0  0  0
   -0.1004   -2.4969    0.0564 C   0  0  0  0  0  0  0  0  0  0  0  0
    5.6572    0.5998   -0.5190 H   0  0  0  0  0  0  0  0  0  0  0  0
    4.5167   -0.2286   -1.6058 H   0  0  0  0  0  0  0  0  0  0  0  0
    4.3807    1.5266   -1.3435 H   0  0  0  0  0  0  0  0  0  0  0  0
    3.9322   -0.6291    0.7705 H   0  0  0  0  0  0  0  0  0  0  0  0
    3.7961    1.1262    1.0328 H   0  0  0  0  0  0  0  0  0  0  0  0
    1.9930    1.2402   -0.6655 H   0  0  0  0  0  0  0  0  0  0  0  0
    2.1291   -0.5150   -0.9279 H   0  0  0  0  0  0  0  0  0  0  0  0
    1.5446   -0.9154    1.4484 H   0  0  0  0  0  0  0  0  0  0  0  0
    1.4085    0.8398    1.7107 H   0  0  0  0  0  0  0  0  0  0  0  0
   -4.0306    1.6154   -0.5648 H   0  0  0  0  0  0  0  0  0  0  0  0
   -3.2846    2.4861    0.7967 H   0  0  0  0  0  0  0  0  0  0  0  0
   -2.7165    2.7779   -0.8648 H   0  0  0  0  0  0  0  0  0  0  0  0
   -0.2786   -2.9965    1.0087 H   0  0  0  0  0  0  0  0  0  0  0  0
   -0.5452   -3.0810   -0.7492 H   0  0  0  0  0  0  0  0  0  0  0  0
    0.9729   -2.4056   -0.1107 H   0  0  0  0  0  0  0  0  0  0  0  0
  1  2  1  0  0  0  0
  2  3  1  0  0  0  0
  3  4  1  0  0  0  0
  4  5  1  0  0  0  0
  5  6  2  0  0  0  0
  6  7  1  0  0  0  0
  7  8  1  0  0  0  0
  8  9  2  0  0  0  0
  5  9  1  0  0  0  0
  8 10  1  0  0  0  0
  6 11  1  0  0  0  0
  1 12  1  0  0  0  0
  1 13  1  0  0  0  0
  1 14  1  0  0  0  0
  2 15  1  0  0  0  0
  2 16  1  0  0  0  0
  3 17  1  0  0  0  0
  3 18  1  0  0  0  0
  4 19  1  0  0  0  0
  4 20  1  0  0  0  0
 10 21  1  0  0  0  0
 10 22  1  0  0  0  0
 10 23  1  0  0  0  0
 11 24  1  0  0  0  0
 11 25  1  0  0  0  0
 11 26  1  0  0  0  0
M  END
$$$$
