C6H10OS2
APtclcactv06291802543D 0   0.00000     0.00000
 
 19 18  0  0  0  0  0  0  0  0999 V2000
    4.4302    0.0369    0.5222 C   0  0  0  0  0  0  0  0  0  0  0  0
    3.1267   -0.3571   -0.1233 C   0  0  0  0  0  0  0  0  0  0  0  0
    2.0278    0.2930    0.1698 C   0  0  0  0  0  0  0  0  0  0  0  0
    0.5037   -0.1676   -0.5850 S   0  0  0  0  0  0  0  0  0  0  0  0
    0.1800   -1.3879    0.0672 O   0  0  0  0  0  0  0  0  0  0  0  0
   -0.8324    1.1580    0.2275 S   0  0  0  0  0  0  0  0  0  0  0  0
   -2.4015    0.6837   -0.5495 C   0  0  0  0  0  0  0  0  0  0  0  0
   -2.8455   -0.6517   -0.0105 C   0  0  0  0  0  0  0  0  0  0  0  0
   -3.9444   -0.7398    0.6972 C   0  0  0  0  0  0  0  0  0  0  0  0
    4.3450   -0.0643    1.6042 H   0  0  0  0  0  0  0  0  0  0  0  0
    5.2267   -0.6122    0.1582 H   0  0  0  0  0  0  0  0  0  0  0  0
    4.6617    1.0720    0.2711 H   0  0  0  0  0  0  0  0  0  0  0  0
    3.0985   -1.1754   -0.8275 H   0  0  0  0  0  0  0  0  0  0  0  0
    2.0560    1.1113    0.8740 H   0  0  0  0  0  0  0  0  0  0  0  0
   -3.1589    1.4354   -0.3271 H   0  0  0  0  0  0  0  0  0  0  0  0
   -2.2657    0.6130   -1.6287 H   0  0  0  0  0  0  0  0  0  0  0  0
   -2.2578   -1.5361   -0.2077 H   0  0  0  0  0  0  0  0  0  0  0  0
   -4.2626   -1.6969    1.0835 H   0  0  0  0  0  0  0  0  0  0  0  0
   -4.5321    0.1445    0.8944 H   0  0  0  0  0  0  0  0  0  0  0  0
  1  2  1  0  0  0  0
  2  3  2  0  0  0  0
  3  4  1  0  0  0  0
  4  5  2  0  0  0  0
  4  6  1  0  0  0  0
  6  7  1  0  0  0  0
  7  8  1  0  0  0  0
  8  9  2  0  0  0  0
  1 10  1  0  0  0  0
  1 11  1  0  0  0  0
  1 12  1  0  0  0  0
  2 13  1  0  0  0  0
  3 14  1  0  0  0  0
  7 15  1  0  0  0  0
  7 16  1  0  0  0  0
  8 17  1  0  0  0  0
  9 18  1  0  0  0  0
  9 19  1  0  0  0  0
M  END
$$$$
