C18H28N2O4S
APtclcactv06211804363D 0   0.00000     0.00000
 
 53 52  0  0  0  0  0  0  0  0999 V2000
  -12.9335   -2.1540   -0.6196 C   0  0  0  0  0  0  0  0  0  0  0  0
  -13.9764   -1.2188   -0.0044 C   0  0  0  0  0  0  0  0  0  0  0  0
  -15.0379   -0.8787   -1.0525 C   0  0  0  0  0  0  0  0  0  0  0  0
  -15.9958    0.1374   -0.4858 C   0  0  0  0  0  0  0  0  0  0  0  0
  -15.7426    1.4875   -0.6405 C   0  0  0  0  0  0  0  0  0  0  0  0
  -16.6213    2.4195   -0.1207 C   0  0  0  0  0  0  0  0  0  0  0  0
  -17.7534    2.0014    0.5533 C   0  0  0  0  0  0  0  0  0  0  0  0
  -18.0071    0.6513    0.7071 C   0  0  0  0  0  0  0  0  0  0  0  0
  -17.1307   -0.2808    0.1836 C   0  0  0  0  0  0  0  0  0  0  0  0
  -14.6140   -1.8821    1.1409 N   0  0  0  0  0  0  0  0  0  0  0  0
    5.1886   -2.2134   -0.6001 C   0  0  0  0  0  0  0  0  0  0  0  0
    4.1457   -1.2781    0.0152 C   0  0  0  0  0  0  0  0  0  0  0  0
    3.0842   -0.9380   -1.0329 C   0  0  0  0  0  0  0  0  0  0  0  0
    2.1263    0.0781   -0.4663 C   0  0  0  0  0  0  0  0  0  0  0  0
    2.3795    1.4282   -0.6209 C   0  0  0  0  0  0  0  0  0  0  0  0
    1.5009    2.3602   -0.1011 C   0  0  0  0  0  0  0  0  0  0  0  0
    0.3687    1.9421    0.5729 C   0  0  0  0  0  0  0  0  0  0  0  0
    0.1150    0.5919    0.7267 C   0  0  0  0  0  0  0  0  0  0  0  0
    0.9914   -0.3401    0.2032 C   0  0  0  0  0  0  0  0  0  0  0  0
    3.5081   -1.9415    1.1604 N   0  0  0  0  0  0  0  0  0  0  0  0
   18.8177   -0.9160   -0.7160 O   0  0  0  0  0  0  0  0  0  0  0  0
   18.3434    0.2746    0.1049 S   0  0  0  0  0  0  0  0  0  0  0  0
   17.9954   -0.2338    1.3853 O   0  0  0  0  0  0  0  0  0  0  0  0
   19.3046    1.3033   -0.0879 O   0  0  0  0  0  0  0  0  0  0  0  0
   17.0504    0.7707   -0.5265 O   0  0  0  0  0  0  0  0  0  0  0  0
  -12.4604   -1.6619   -1.4694 H   0  0  0  0  0  0  0  0  0  0  0  0
  -12.1773   -2.3964    0.1271 H   0  0  0  0  0  0  0  0  0  0  0  0
  -13.4198   -3.0702   -0.9549 H   0  0  0  0  0  0  0  0  0  0  0  0
  -13.4902   -0.3027    0.3309 H   0  0  0  0  0  0  0  0  0  0  0  0
  -14.5547   -0.4677   -1.9388 H   0  0  0  0  0  0  0  0  0  0  0  0
  -15.5845   -1.7822   -1.3226 H   0  0  0  0  0  0  0  0  0  0  0  0
  -14.8581    1.8142   -1.1671 H   0  0  0  0  0  0  0  0  0  0  0  0
  -16.4230    3.4743   -0.2409 H   0  0  0  0  0  0  0  0  0  0  0  0
  -18.4396    2.7296    0.9600 H   0  0  0  0  0  0  0  0  0  0  0  0
  -18.8915    0.3246    1.2340 H   0  0  0  0  0  0  0  0  0  0  0  0
  -17.3289   -1.3356    0.3038 H   0  0  0  0  0  0  0  0  0  0  0  0
  -15.0721   -2.7348    0.8558 H   0  0  0  0  0  0  0  0  0  0  0  0
  -13.9446   -2.0592    1.8748 H   0  0  0  0  0  0  0  0  0  0  0  0
    5.6617   -1.7212   -1.4498 H   0  0  0  0  0  0  0  0  0  0  0  0
    5.9448   -2.4557    0.1466 H   0  0  0  0  0  0  0  0  0  0  0  0
    4.7024   -3.1295   -0.9353 H   0  0  0  0  0  0  0  0  0  0  0  0
    4.6319   -0.3620    0.3504 H   0  0  0  0  0  0  0  0  0  0  0  0
    3.5674   -0.5270   -1.9193 H   0  0  0  0  0  0  0  0  0  0  0  0
    2.5377   -1.8416   -1.3030 H   0  0  0  0  0  0  0  0  0  0  0  0
    3.2641    1.7549   -1.1475 H   0  0  0  0  0  0  0  0  0  0  0  0
    1.6991    3.4150   -0.2213 H   0  0  0  0  0  0  0  0  0  0  0  0
   -0.3174    2.6702    0.9796 H   0  0  0  0  0  0  0  0  0  0  0  0
   -0.7694    0.2653    1.2536 H   0  0  0  0  0  0  0  0  0  0  0  0
    0.7932   -1.3949    0.3233 H   0  0  0  0  0  0  0  0  0  0  0  0
    3.0500   -2.7941    0.8754 H   0  0  0  0  0  0  0  0  0  0  0  0
    4.1775   -2.1186    1.8943 H   0  0  0  0  0  0  0  0  0  0  0  0
   19.6406   -1.3110   -0.3969 H   0  0  0  0  0  0  0  0  0  0  0  0
   16.6606    1.5332   -0.0773 H   0  0  0  0  0  0  0  0  0  0  0  0
  1  2  1  0  0  0  0
  2  3  1  0  0  0  0
  3  4  1  0  0  0  0
  4  5  2  0  0  0  0
  5  6  1  0  0  0  0
  6  7  2  0  0  0  0
  7  8  1  0  0  0  0
  8  9  2  0  0  0  0
  4  9  1  0  0  0  0
  2 10  1  0  0  0  0
 11 12  1  0  0  0  0
 12 13  1  0  0  0  0
 13 14  1  0  0  0  0
 14 15  2  0  0  0  0
 15 16  1  0  0  0  0
 16 17  2  0  0  0  0
 17 18  1  0  0  0  0
 18 19  2  0  0  0  0
 14 19  1  0  0  0  0
 12 20  1  0  0  0  0
 21 22  1  0  0  0  0
 22 23  2  0  0  0  0
 22 24  2  0  0  0  0
 22 25  1  0  0  0  0
  1 26  1  0  0  0  0
  1 27  1  0  0  0  0
  1 28  1  0  0  0  0
  2 29  1  0  0  0  0
  3 30  1  0  0  0  0
  3 31  1  0  0  0  0
  5 32  1  0  0  0  0
  6 33  1  0  0  0  0
  7 34  1  0  0  0  0
  8 35  1  0  0  0  0
  9 36  1  0  0  0  0
 10 37  1  0  0  0  0
 10 38  1  0  0  0  0
 11 39  1  0  0  0  0
 11 40  1  0  0  0  0
 11 41  1  0  0  0  0
 12 42  1  0  0  0  0
 13 43  1  0  0  0  0
 13 44  1  0  0  0  0
 15 45  1  0  0  0  0
 16 46  1  0  0  0  0
 17 47  1  0  0  0  0
 18 48  1  0  0  0  0
 19 49  1  0  0  0  0
 20 50  1  0  0  0  0
 20 51  1  0  0  0  0
 21 52  1  0  0  0  0
 25 53  1  0  0  0  0
M  END
$$$$
