C20H26O6
APtclcactv06281817173D 0   0.00000     0.00000
 
 52 54  0  0  0  0  0  0  0  0999 V2000
   -4.2100   -2.9758   -1.7196 C   0  0  0  0  0  0  0  0  0  0  0  0
   -3.5920   -2.1887   -0.5929 C   0  0  0  0  0  0  0  0  0  0  0  0
   -2.3403   -1.7487   -0.6968 C   0  0  0  0  0  0  0  0  0  0  0  0
   -1.5410   -2.0376   -1.9413 C   0  0  0  0  0  0  0  0  0  0  0  0
   -1.7376   -0.9811    0.4018 C   0  0  0  0  0  0  0  0  0  0  0  0
   -2.3822   -0.7481    1.4054 O   0  0  0  0  0  0  0  0  0  0  0  0
   -0.4698   -0.5355    0.2965 O   0  0  0  0  0  0  0  0  0  0  0  0
    0.0199    0.3176    1.3645 C   0  0  0  0  0  0  0  0  0  0  0  0
    1.5253    0.1040    1.5325 C   0  0  0  0  0  0  0  0  0  0  0  0
    1.8470   -1.3817    1.3642 C   0  0  0  0  0  0  0  0  0  0  0  0
    3.0206   -1.7869    0.4726 C   0  0  0  0  0  0  0  0  0  0  0  0
    3.0828   -1.8607    1.8991 O   0  0  0  0  0  0  0  0  0  0  0  0
    3.8455   -0.7007   -0.2142 C   0  0  0  0  0  0  0  0  0  0  0  0
    3.0740   -0.1375   -1.4123 C   0  0  0  0  0  0  0  0  0  0  0  0
    2.2252    1.0119   -0.9331 C   0  0  0  0  0  0  0  0  0  0  0  0
    0.9178    0.9363   -0.9892 C   0  0  0  0  0  0  0  0  0  0  0  0
    0.0994    2.0771   -0.4398 C   0  0  0  0  0  0  0  0  0  0  0  0
   -0.2771    1.7779    1.0218 C   0  0  0  0  0  0  0  0  0  0  0  0
   -1.7745    2.0296    1.0677 C   0  0  0  0  0  0  0  0  0  0  0  0
   -2.5485    2.0617    2.1499 C   0  0  0  0  0  0  0  0  0  0  0  0
   -2.1943    2.2314   -0.3261 C   0  0  0  0  0  0  0  0  0  0  0  0
   -3.3462    2.4019   -0.6740 O   0  0  0  0  0  0  0  0  0  0  0  0
   -1.1508    2.2047   -1.1651 O   0  0  0  0  0  0  0  0  0  0  0  0
    2.8823    2.2532   -0.3867 C   0  0  0  0  0  0  0  0  0  0  0  0
    3.9942    0.3241   -2.4034 O   0  0  0  0  0  0  0  0  0  0  0  0
    0.6414   -2.3256    1.4222 C   0  0  0  0  0  0  0  0  0  0  0  0
   -3.6267   -3.8800   -1.8939 H   0  0  0  0  0  0  0  0  0  0  0  0
   -5.2318   -3.2480   -1.4549 H   0  0  0  0  0  0  0  0  0  0  0  0
   -4.2186   -2.3689   -2.6249 H   0  0  0  0  0  0  0  0  0  0  0  0
   -4.1648   -1.9816    0.2990 H   0  0  0  0  0  0  0  0  0  0  0  0
   -1.6900   -1.2348   -2.6634 H   0  0  0  0  0  0  0  0  0  0  0  0
   -0.4834   -2.1052   -1.6863 H   0  0  0  0  0  0  0  0  0  0  0  0
   -1.8714   -2.9818   -2.3743 H   0  0  0  0  0  0  0  0  0  0  0  0
   -0.4868    0.0582    2.2941 H   0  0  0  0  0  0  0  0  0  0  0  0
    2.0610    0.6800    0.7779 H   0  0  0  0  0  0  0  0  0  0  0  0
    1.8307    0.4322    2.5261 H   0  0  0  0  0  0  0  0  0  0  0  0
    2.9377   -2.7297   -0.0740 H   0  0  0  0  0  0  0  0  0  0  0  0
    4.0492    0.1018    0.4947 H   0  0  0  0  0  0  0  0  0  0  0  0
    4.7885   -1.1256   -0.5583 H   0  0  0  0  0  0  0  0  0  0  0  0
    2.4362   -0.9133   -1.8359 H   0  0  0  0  0  0  0  0  0  0  0  0
    0.4354    0.0719   -1.4209 H   0  0  0  0  0  0  0  0  0  0  0  0
    0.6640    3.0064   -0.4974 H   0  0  0  0  0  0  0  0  0  0  0  0
    0.2444    2.4493    1.6995 H   0  0  0  0  0  0  0  0  0  0  0  0
   -2.1180    1.8976    3.1267 H   0  0  0  0  0  0  0  0  0  0  0  0
   -3.6070    2.2518    2.0513 H   0  0  0  0  0  0  0  0  0  0  0  0
    3.0581    2.9587   -1.1988 H   0  0  0  0  0  0  0  0  0  0  0  0
    2.2313    2.7111    0.3579 H   0  0  0  0  0  0  0  0  0  0  0  0
    3.8329    1.9875    0.0758 H   0  0  0  0  0  0  0  0  0  0  0  0
    3.5716    0.6939   -3.1906 H   0  0  0  0  0  0  0  0  0  0  0  0
    0.1301   -2.3215    0.4595 H   0  0  0  0  0  0  0  0  0  0  0  0
    0.9816   -3.3361    1.6485 H   0  0  0  0  0  0  0  0  0  0  0  0
   -0.0452   -1.9908    2.1997 H   0  0  0  0  0  0  0  0  0  0  0  0
  1  2  1  0  0  0  0
  2  3  2  0  0  0  0
  3  4  1  0  0  0  0
  3  5  1  0  0  0  0
  5  6  2  0  0  0  0
  5  7  1  0  0  0  0
  7  8  1  0  0  0  0
  8  9  1  0  0  0  0
  9 10  1  0  0  0  0
 10 11  1  0  0  0  0
 11 12  1  0  0  0  0
 10 12  1  0  0  0  0
 11 13  1  0  0  0  0
 13 14  1  0  0  0  0
 14 15  1  0  0  0  0
 15 16  2  0  0  0  0
 16 17  1  0  0  0  0
 17 18  1  0  0  0  0
  8 18  1  0  0  0  0
 18 19  1  0  0  0  0
 19 20  2  0  0  0  0
 19 21  1  0  0  0  0
 21 22  2  0  0  0  0
 21 23  1  0  0  0  0
 17 23  1  0  0  0  0
 15 24  1  0  0  0  0
 14 25  1  0  0  0  0
 10 26  1  0  0  0  0
  1 27  1  0  0  0  0
  1 28  1  0  0  0  0
  1 29  1  0  0  0  0
  2 30  1  0  0  0  0
  4 31  1  0  0  0  0
  4 32  1  0  0  0  0
  4 33  1  0  0  0  0
  8 34  1  0  0  0  0
  9 35  1  0  0  0  0
  9 36  1  0  0  0  0
 11 37  1  0  0  0  0
 13 38  1  0  0  0  0
 13 39  1  0  0  0  0
 14 40  1  0  0  0  0
 16 41  1  0  0  0  0
 17 42  1  0  0  0  0
 18 43  1  0  0  0  0
 20 44  1  0  0  0  0
 20 45  1  0  0  0  0
 24 46  1  0  0  0  0
 24 47  1  0  0  0  0
 24 48  1  0  0  0  0
 25 49  1  0  0  0  0
 26 50  1  0  0  0  0
 26 51  1  0  0  0  0
 26 52  1  0  0  0  0
M  END
$$$$
