C26H28O14
APtclcactv06281817173D 0   0.00000     0.00000
 
 68 72  0  0  0  0  0  0  0  0999 V2000
   -6.3261   -1.4997   -1.1664 C   0  0  0  0  0  0  0  0  0  0  0  0
   -5.6867   -2.8792   -0.8935 C   0  0  0  0  0  0  0  0  0  0  0  0
   -4.2523   -2.5427   -0.4282 C   0  0  0  0  0  0  0  0  0  0  0  0
   -4.1948   -0.9997   -0.4749 C   0  0  0  0  0  0  0  0  0  0  0  0
   -5.5700   -0.5754   -0.3542 O   0  0  0  0  0  0  0  0  0  0  0  0
   -3.4215   -0.4974    0.6168 O   0  0  0  0  0  0  0  0  0  0  0  0
   -3.2228    0.9174    0.5858 C   0  0  0  0  0  0  0  0  0  0  0  0
   -3.0921    1.4474    2.0171 C   0  0  0  0  0  0  0  0  0  0  0  0
   -2.8021    2.9507    1.9687 C   0  0  0  0  0  0  0  0  0  0  0  0
   -1.5364    3.1919    1.1419 C   0  0  0  0  0  0  0  0  0  0  0  0
   -1.7134    2.6479   -0.1676 O   0  0  0  0  0  0  0  0  0  0  0  0
   -1.9408    1.2372   -0.1875 C   0  0  0  0  0  0  0  0  0  0  0  0
   -0.8361    0.5677    0.4236 O   0  0  0  0  0  0  0  0  0  0  0  0
    0.3649    0.6629   -0.2020 C   0  0  0  0  0  0  0  0  0  0  0  0
    0.4704    1.3895   -1.3827 C   0  0  0  0  0  0  0  0  0  0  0  0
    1.6890    1.4930   -2.0282 C   0  0  0  0  0  0  0  0  0  0  0  0
    2.8137    0.8614   -1.4835 C   0  0  0  0  0  0  0  0  0  0  0  0
    2.7043    0.1278   -0.2893 C   0  0  0  0  0  0  0  0  0  0  0  0
    1.4757    0.0394    0.3457 C   0  0  0  0  0  0  0  0  0  0  0  0
    3.7943   -0.4782    0.2274 O   0  0  0  0  0  0  0  0  0  0  0  0
    4.9993   -0.4093   -0.3605 C   0  0  0  0  0  0  0  0  0  0  0  0
    5.2104    0.2749   -1.5170 C   0  0  0  0  0  0  0  0  0  0  0  0
    4.1302    0.9453   -2.1383 C   0  0  0  0  0  0  0  0  0  0  0  0
    4.2835    1.5686   -3.1763 O   0  0  0  0  0  0  0  0  0  0  0  0
    6.1378   -1.1017    0.2720 C   0  0  0  0  0  0  0  0  0  0  0  0
    5.9528   -1.8128    1.4610 C   0  0  0  0  0  0  0  0  0  0  0  0
    7.0186   -2.4578    2.0483 C   0  0  0  0  0  0  0  0  0  0  0  0
    8.2766   -2.4023    1.4604 C   0  0  0  0  0  0  0  0  0  0  0  0
    8.4651   -1.6964    0.2782 C   0  0  0  0  0  0  0  0  0  0  0  0
    7.4036   -1.0534   -0.3189 C   0  0  0  0  0  0  0  0  0  0  0  0
    9.3246   -3.0392    2.0428 O   0  0  0  0  0  0  0  0  0  0  0  0
    1.7939    2.2010   -3.1813 O   0  0  0  0  0  0  0  0  0  0  0  0
   -1.2734    4.6956    1.0385 C   0  0  0  0  0  0  0  0  0  0  0  0
   -0.0313    4.9168    0.3674 O   0  0  0  0  0  0  0  0  0  0  0  0
   -3.9041    3.6304    1.3641 O   0  0  0  0  0  0  0  0  0  0  0  0
   -4.3122    1.2185    2.7248 O   0  0  0  0  0  0  0  0  0  0  0  0
   -4.0351   -3.0117    0.9041 O   0  0  0  0  0  0  0  0  0  0  0  0
   -6.4495   -3.6149    0.2099 C   0  0  0  0  0  0  0  0  0  0  0  0
   -7.7982   -3.8345   -0.2084 O   0  0  0  0  0  0  0  0  0  0  0  0
   -5.6546   -3.6616   -2.0889 O   0  0  0  0  0  0  0  0  0  0  0  0
   -6.2342   -1.2409   -2.2213 H   0  0  0  0  0  0  0  0  0  0  0  0
   -7.3736   -1.5007   -0.8649 H   0  0  0  0  0  0  0  0  0  0  0  0
   -3.5187   -2.9731   -1.1099 H   0  0  0  0  0  0  0  0  0  0  0  0
   -3.7760   -0.6642   -1.4237 H   0  0  0  0  0  0  0  0  0  0  0  0
   -4.0726    1.3940    0.0971 H   0  0  0  0  0  0  0  0  0  0  0  0
   -2.2740    0.9343    2.5226 H   0  0  0  0  0  0  0  0  0  0  0  0
   -2.6528    3.3256    2.9812 H   0  0  0  0  0  0  0  0  0  0  0  0
   -0.6884    2.7068    1.6255 H   0  0  0  0  0  0  0  0  0  0  0  0
   -2.0449    0.9003   -1.2189 H   0  0  0  0  0  0  0  0  0  0  0  0
   -0.4015    1.8740   -1.7968 H   0  0  0  0  0  0  0  0  0  0  0  0
    1.3817   -0.5219    1.2636 H   0  0  0  0  0  0  0  0  0  0  0  0
    6.1958    0.3063   -1.9580 H   0  0  0  0  0  0  0  0  0  0  0  0
    4.9755   -1.8562    1.9188 H   0  0  0  0  0  0  0  0  0  0  0  0
    6.8766   -3.0072    2.9672 H   0  0  0  0  0  0  0  0  0  0  0  0
    9.4444   -1.6559   -0.1754 H   0  0  0  0  0  0  0  0  0  0  0  0
    7.5508   -0.5053   -1.2378 H   0  0  0  0  0  0  0  0  0  0  0  0
    9.4434   -3.9522    1.7474 H   0  0  0  0  0  0  0  0  0  0  0  0
    2.0084    3.1349   -3.0512 H   0  0  0  0  0  0  0  0  0  0  0  0
   -2.0792    5.1675    0.4763 H   0  0  0  0  0  0  0  0  0  0  0  0
   -1.2276    5.1261    2.0388 H   0  0  0  0  0  0  0  0  0  0  0  0
    0.2001    5.8503    0.2660 H   0  0  0  0  0  0  0  0  0  0  0  0
   -3.7884    4.5883    1.3006 H   0  0  0  0  0  0  0  0  0  0  0  0
   -4.3003    1.5300    3.6402 H   0  0  0  0  0  0  0  0  0  0  0  0
   -3.1500   -2.8269    1.2468 H   0  0  0  0  0  0  0  0  0  0  0  0
   -5.9695   -4.5736    0.4065 H   0  0  0  0  0  0  0  0  0  0  0  0
   -6.4444   -3.0129    1.1186 H   0  0  0  0  0  0  0  0  0  0  0  0
   -8.3418   -4.2974    0.4437 H   0  0  0  0  0  0  0  0  0  0  0  0
   -6.5279   -3.8510   -2.4585 H   0  0  0  0  0  0  0  0  0  0  0  0
  1  2  1  0  0  0  0
  2  3  1  0  0  0  0
  3  4  1  0  0  0  0
  4  5  1  0  0  0  0
  1  5  1  0  0  0  0
  4  6  1  0  0  0  0
  6  7  1  0  0  0  0
  7  8  1  0  0  0  0
  8  9  1  0  0  0  0
  9 10  1  0  0  0  0
 10 11  1  0  0  0  0
 11 12  1  0  0  0  0
  7 12  1  0  0  0  0
 12 13  1  0  0  0  0
 13 14  1  0  0  0  0
 14 15  2  0  0  0  0
 15 16  1  0  0  0  0
 16 17  2  0  0  0  0
 17 18  1  0  0  0  0
 18 19  2  0  0  0  0
 14 19  1  0  0  0  0
 18 20  1  0  0  0  0
 20 21  1  0  0  0  0
 21 22  2  0  0  0  0
 22 23  1  0  0  0  0
 17 23  1  0  0  0  0
 23 24  2  0  0  0  0
 21 25  1  0  0  0  0
 25 26  2  0  0  0  0
 26 27  1  0  0  0  0
 27 28  2  0  0  0  0
 28 29  1  0  0  0  0
 29 30  2  0  0  0  0
 25 30  1  0  0  0  0
 28 31  1  0  0  0  0
 16 32  1  0  0  0  0
 10 33  1  0  0  0  0
 33 34  1  0  0  0  0
  9 35  1  0  0  0  0
  8 36  1  0  0  0  0
  3 37  1  0  0  0  0
  2 38  1  0  0  0  0
 38 39  1  0  0  0  0
  2 40  1  0  0  0  0
  1 41  1  0  0  0  0
  1 42  1  0  0  0  0
  3 43  1  0  0  0  0
  4 44  1  0  0  0  0
  7 45  1  0  0  0  0
  8 46  1  0  0  0  0
  9 47  1  0  0  0  0
 10 48  1  0  0  0  0
 12 49  1  0  0  0  0
 15 50  1  0  0  0  0
 19 51  1  0  0  0  0
 22 52  1  0  0  0  0
 26 53  1  0  0  0  0
 27 54  1  0  0  0  0
 29 55  1  0  0  0  0
 30 56  1  0  0  0  0
 31 57  1  0  0  0  0
 32 58  1  0  0  0  0
 33 59  1  0  0  0  0
 33 60  1  0  0  0  0
 34 61  1  0  0  0  0
 35 62  1  0  0  0  0
 36 63  1  0  0  0  0
 37 64  1  0  0  0  0
 38 65  1  0  0  0  0
 38 66  1  0  0  0  0
 39 67  1  0  0  0  0
 40 68  1  0  0  0  0
M  END
$$$$
