C20H18O7
APtclcactv06231803053D 0   0.00000     0.00000
 
 45 50  0  0  0  0  0  0  0  0999 V2000
    0.5270    1.5922    1.8292 C   0  0  0  0  0  0  0  0  0  0  0  0
    0.0719    0.3390    1.0433 C   0  0  0  0  0  0  0  0  0  0  0  0
    1.0853    0.3089   -0.1429 C   0  0  0  0  0  0  0  0  0  0  0  0
    0.3094    1.0567   -1.2537 C   0  0  0  0  0  0  0  0  0  0  0  0
   -1.0622    0.6611   -1.0463 O   0  0  0  0  0  0  0  0  0  0  0  0
   -1.2809    0.6386    0.3735 C   0  0  0  0  0  0  0  0  0  0  0  0
   -2.2229   -0.3840    0.7034 O   0  0  0  0  0  0  0  0  0  0  0  0
   -3.4976   -0.2150    0.2613 C   0  0  0  0  0  0  0  0  0  0  0  0
   -4.4622   -1.1695    0.5461 C   0  0  0  0  0  0  0  0  0  0  0  0
   -5.7610   -0.9972    0.0961 C   0  0  0  0  0  0  0  0  0  0  0  0
   -6.0949    0.1355   -0.6420 C   0  0  0  0  0  0  0  0  0  0  0  0
   -5.1280    1.0867   -0.9233 C   0  0  0  0  0  0  0  0  0  0  0  0
   -3.8338    0.9149   -0.4695 C   0  0  0  0  0  0  0  0  0  0  0  0
   -7.4208    0.0708   -0.9642 O   0  0  0  0  0  0  0  0  0  0  0  0
   -7.9861   -0.9065   -0.0706 C   0  0  0  0  0  0  0  0  0  0  0  0
   -6.8766   -1.7713    0.2364 O   0  0  0  0  0  0  0  0  0  0  0  0
    2.2475    1.1978    0.3339 C   0  0  0  0  0  0  0  0  0  0  0  0
    1.9624    1.5897    1.6864 O   0  0  0  0  0  0  0  0  0  0  0  0
    3.5383    0.4215    0.2871 C   0  0  0  0  0  0  0  0  0  0  0  0
    4.4095    0.5949   -0.7721 C   0  0  0  0  0  0  0  0  0  0  0  0
    5.5969   -0.1174   -0.8170 C   0  0  0  0  0  0  0  0  0  0  0  0
    5.9098   -1.0077    0.2072 C   0  0  0  0  0  0  0  0  0  0  0  0
    5.0315   -1.1770    1.2653 C   0  0  0  0  0  0  0  0  0  0  0  0
    3.8513   -0.4584    1.3065 C   0  0  0  0  0  0  0  0  0  0  0  0
    7.1192   -1.5788   -0.0654 O   0  0  0  0  0  0  0  0  0  0  0  0
    7.7311   -0.7297   -1.0543 C   0  0  0  0  0  0  0  0  0  0  0  0
    6.6104   -0.1306   -1.7313 O   0  0  0  0  0  0  0  0  0  0  0  0
    0.1007    2.4943    1.3904 H   0  0  0  0  0  0  0  0  0  0  0  0
    0.2470    1.5075    2.8792 H   0  0  0  0  0  0  0  0  0  0  0  0
    0.0760   -0.5714    1.6427 H   0  0  0  0  0  0  0  0  0  0  0  0
    1.3885   -0.6977   -0.4311 H   0  0  0  0  0  0  0  0  0  0  0  0
    0.4182    2.1349   -1.1365 H   0  0  0  0  0  0  0  0  0  0  0  0
    0.6534    0.7417   -2.2388 H   0  0  0  0  0  0  0  0  0  0  0  0
   -1.6522    1.6078    0.7064 H   0  0  0  0  0  0  0  0  0  0  0  0
   -4.2009   -2.0473    1.1184 H   0  0  0  0  0  0  0  0  0  0  0  0
   -5.3864    1.9652   -1.4960 H   0  0  0  0  0  0  0  0  0  0  0  0
   -3.0818    1.6581   -0.6898 H   0  0  0  0  0  0  0  0  0  0  0  0
   -8.3599   -0.4272    0.8342 H   0  0  0  0  0  0  0  0  0  0  0  0
   -8.7807   -1.4643   -0.5660 H   0  0  0  0  0  0  0  0  0  0  0  0
    2.3218    2.0815   -0.2999 H   0  0  0  0  0  0  0  0  0  0  0  0
    4.1641    1.2857   -1.5652 H   0  0  0  0  0  0  0  0  0  0  0  0
    5.2716   -1.8667    2.0609 H   0  0  0  0  0  0  0  0  0  0  0  0
    3.1681   -0.5914    2.1323 H   0  0  0  0  0  0  0  0  0  0  0  0
    8.3433    0.0351   -0.5764 H   0  0  0  0  0  0  0  0  0  0  0  0
    8.3278   -1.3201   -1.7497 H   0  0  0  0  0  0  0  0  0  0  0  0
  1  2  1  0  0  0  0
  2  3  1  0  0  0  0
  3  4  1  0  0  0  0
  4  5  1  0  0  0  0
  5  6  1  0  0  0  0
  2  6  1  0  0  0  0
  6  7  1  0  0  0  0
  7  8  1  0  0  0  0
  8  9  2  0  0  0  0
  9 10  1  0  0  0  0
 10 11  2  0  0  0  0
 11 12  1  0  0  0  0
 12 13  2  0  0  0  0
  8 13  1  0  0  0  0
 11 14  1  0  0  0  0
 14 15  1  0  0  0  0
 15 16  1  0  0  0  0
 10 16  1  0  0  0  0
  3 17  1  0  0  0  0
 17 18  1  0  0  0  0
  1 18  1  0  0  0  0
 17 19  1  0  0  0  0
 19 20  2  0  0  0  0
 20 21  1  0  0  0  0
 21 22  2  0  0  0  0
 22 23  1  0  0  0  0
 23 24  2  0  0  0  0
 19 24  1  0  0  0  0
 22 25  1  0  0  0  0
 25 26  1  0  0  0  0
 26 27  1  0  0  0  0
 21 27  1  0  0  0  0
  1 28  1  0  0  0  0
  1 29  1  0  0  0  0
  2 30  1  0  0  0  0
  3 31  1  0  0  0  0
  4 32  1  0  0  0  0
  4 33  1  0  0  0  0
  6 34  1  0  0  0  0
  9 35  1  0  0  0  0
 12 36  1  0  0  0  0
 13 37  1  0  0  0  0
 15 38  1  0  0  0  0
 15 39  1  0  0  0  0
 17 40  1  0  0  0  0
 20 41  1  0  0  0  0
 23 42  1  0  0  0  0
 24 43  1  0  0  0  0
 26 44  1  0  0  0  0
 26 45  1  0  0  0  0
M  END
$$$$
