C10H16O
APtclcactv06231803053D 0   0.00000     0.00000
 
 27 28  0  0  0  0  0  0  0  0999 V2000
    2.4279   -1.2300   -0.8107 C   0  0  0  0  0  0  0  0  0  0  0  0
    2.0169   -0.4968    0.4677 C   0  0  0  0  0  0  0  0  0  0  0  0
    2.3669    1.0159    0.3827 C   0  0  0  0  0  0  0  0  0  0  0  0
    1.1721    1.7104   -0.0473 O   0  0  0  0  0  0  0  0  0  0  0  0
    0.1988    0.7428   -0.3631 C   0  0  0  0  0  0  0  0  0  0  0  0
    0.4863   -0.4385    0.6048 C   0  0  0  0  0  0  0  0  0  0  0  0
   -0.2679   -1.6277    0.0298 C   0  0  0  0  0  0  0  0  0  0  0  0
   -1.7651   -1.3341    0.2080 C   0  0  0  0  0  0  0  0  0  0  0  0
   -2.1061    0.1009   -0.0513 C   0  0  0  0  0  0  0  0  0  0  0  0
   -1.2461    1.0576   -0.2953 C   0  0  0  0  0  0  0  0  0  0  0  0
   -3.5654    0.4763   -0.0296 C   0  0  0  0  0  0  0  0  0  0  0  0
    3.5067   -1.1506   -0.9442 H   0  0  0  0  0  0  0  0  0  0  0  0
    2.1477   -2.2805   -0.7332 H   0  0  0  0  0  0  0  0  0  0  0  0
    1.9220   -0.7812   -1.6656 H   0  0  0  0  0  0  0  0  0  0  0  0
    2.4728   -0.9564    1.3447 H   0  0  0  0  0  0  0  0  0  0  0  0
    2.6752    1.3807    1.3625 H   0  0  0  0  0  0  0  0  0  0  0  0
    3.1667    1.1712   -0.3413 H   0  0  0  0  0  0  0  0  0  0  0  0
    0.4044    0.3869   -1.3726 H   0  0  0  0  0  0  0  0  0  0  0  0
    0.1827   -0.2110    1.6266 H   0  0  0  0  0  0  0  0  0  0  0  0
   -0.0340   -1.7405   -1.0288 H   0  0  0  0  0  0  0  0  0  0  0  0
    0.0004   -2.5355    0.5703 H   0  0  0  0  0  0  0  0  0  0  0  0
   -2.3313   -1.9607   -0.4811 H   0  0  0  0  0  0  0  0  0  0  0  0
   -2.0544   -1.5859    1.2284 H   0  0  0  0  0  0  0  0  0  0  0  0
   -1.5889    2.0705   -0.4462 H   0  0  0  0  0  0  0  0  0  0  0  0
   -3.8515    0.7643    0.9819 H   0  0  0  0  0  0  0  0  0  0  0  0
   -3.7355    1.3128   -0.7074 H   0  0  0  0  0  0  0  0  0  0  0  0
   -4.1648   -0.3768   -0.3478 H   0  0  0  0  0  0  0  0  0  0  0  0
  1  2  1  0  0  0  0
  2  3  1  0  0  0  0
  3  4  1  0  0  0  0
  4  5  1  0  0  0  0
  5  6  1  0  0  0  0
  2  6  1  0  0  0  0
  6  7  1  0  0  0  0
  7  8  1  0  0  0  0
  8  9  1  0  0  0  0
  9 10  2  0  0  0  0
  5 10  1  0  0  0  0
  9 11  1  0  0  0  0
  1 12  1  0  0  0  0
  1 13  1  0  0  0  0
  1 14  1  0  0  0  0
  2 15  1  0  0  0  0
  3 16  1  0  0  0  0
  3 17  1  0  0  0  0
  5 18  1  0  0  0  0
  6 19  1  0  0  0  0
  7 20  1  0  0  0  0
  7 21  1  0  0  0  0
  8 22  1  0  0  0  0
  8 23  1  0  0  0  0
 10 24  1  0  0  0  0
 11 25  1  0  0  0  0
 11 26  1  0  0  0  0
 11 27  1  0  0  0  0
M  END
$$$$
