C20H26O6
APtclcactv06221815093D 0   0.00000     0.00000
 
 52 53  0  0  0  0  0  0  0  0999 V2000
    4.7086    2.9050   -1.2461 C   0  0  0  0  0  0  0  0  0  0  0  0
    5.5397    1.8340   -0.7941 O   0  0  0  0  0  0  0  0  0  0  0  0
    4.9264    0.6536   -0.5112 C   0  0  0  0  0  0  0  0  0  0  0  0
    5.6747   -0.4319   -0.0663 C   0  0  0  0  0  0  0  0  0  0  0  0
    5.0450   -1.6323    0.2212 C   0  0  0  0  0  0  0  0  0  0  0  0
    3.6764   -1.7495    0.0658 C   0  0  0  0  0  0  0  0  0  0  0  0
    2.9330   -0.6711   -0.3767 C   0  0  0  0  0  0  0  0  0  0  0  0
    3.5542    0.5310   -0.6598 C   0  0  0  0  0  0  0  0  0  0  0  0
    1.4414   -0.8046   -0.5453 C   0  0  0  0  0  0  0  0  0  0  0  0
    0.7441   -0.4227    0.7619 C   0  0  0  0  0  0  0  0  0  0  0  0
    0.9872    1.0590    1.0556 C   0  0  0  0  0  0  0  0  0  0  0  0
    0.3847    1.4020    2.3052 O   0  0  0  0  0  0  0  0  0  0  0  0
   -0.7589   -0.6769    0.6314 C   0  0  0  0  0  0  0  0  0  0  0  0
   -1.2932    0.0482   -0.6054 C   0  0  0  0  0  0  0  0  0  0  0  0
   -2.7917   -0.0998   -0.6663 C   0  0  0  0  0  0  0  0  0  0  0  0
   -3.6027    0.8359   -0.0517 C   0  0  0  0  0  0  0  0  0  0  0  0
   -4.9807    0.7012   -0.1067 C   0  0  0  0  0  0  0  0  0  0  0  0
   -5.5449   -0.3771   -0.7815 C   0  0  0  0  0  0  0  0  0  0  0  0
   -4.7263   -1.3114   -1.3953 C   0  0  0  0  0  0  0  0  0  0  0  0
   -3.3524   -1.1681   -1.3415 C   0  0  0  0  0  0  0  0  0  0  0  0
   -6.8968   -0.5139   -0.8379 O   0  0  0  0  0  0  0  0  0  0  0  0
   -5.7800    1.6206    0.4977 O   0  0  0  0  0  0  0  0  0  0  0  0
   -5.1314    2.7006    1.1722 C   0  0  0  0  0  0  0  0  0  0  0  0
   -1.0118   -2.1793    0.4907 C   0  0  0  0  0  0  0  0  0  0  0  0
   -0.6081   -2.8445    1.6892 O   0  0  0  0  0  0  0  0  0  0  0  0
    7.0210   -0.3151    0.0857 O   0  0  0  0  0  0  0  0  0  0  0  0
    4.2034    2.6096   -2.1657 H   0  0  0  0  0  0  0  0  0  0  0  0
    3.9664    3.1363   -0.4820 H   0  0  0  0  0  0  0  0  0  0  0  0
    5.3220    3.7859   -1.4354 H   0  0  0  0  0  0  0  0  0  0  0  0
    5.6235   -2.4765    0.5663 H   0  0  0  0  0  0  0  0  0  0  0  0
    3.1868   -2.6857    0.2901 H   0  0  0  0  0  0  0  0  0  0  0  0
    2.9711    1.3721   -1.0049 H   0  0  0  0  0  0  0  0  0  0  0  0
    1.1052   -0.1425   -1.3433 H   0  0  0  0  0  0  0  0  0  0  0  0
    1.1954   -1.8354   -0.8006 H   0  0  0  0  0  0  0  0  0  0  0  0
    1.1451   -1.0252    1.5770 H   0  0  0  0  0  0  0  0  0  0  0  0
    2.0595    1.2485    1.1051 H   0  0  0  0  0  0  0  0  0  0  0  0
    0.5477    1.6635    0.2622 H   0  0  0  0  0  0  0  0  0  0  0  0
    0.4995    2.3289    2.5558 H   0  0  0  0  0  0  0  0  0  0  0  0
   -1.2689   -0.3042    1.5197 H   0  0  0  0  0  0  0  0  0  0  0  0
   -1.0347    1.1055   -0.5467 H   0  0  0  0  0  0  0  0  0  0  0  0
   -0.8486   -0.3853   -1.5012 H   0  0  0  0  0  0  0  0  0  0  0  0
   -3.1623    1.6717    0.4716 H   0  0  0  0  0  0  0  0  0  0  0  0
   -5.1617   -2.1495   -1.9193 H   0  0  0  0  0  0  0  0  0  0  0  0
   -2.7154   -1.8970   -1.8203 H   0  0  0  0  0  0  0  0  0  0  0  0
   -7.3048   -0.0786   -1.5989 H   0  0  0  0  0  0  0  0  0  0  0  0
   -4.4919    2.3047    1.9611 H   0  0  0  0  0  0  0  0  0  0  0  0
   -4.5256    3.2618    0.4608 H   0  0  0  0  0  0  0  0  0  0  0  0
   -5.8820    3.3592    1.6092 H   0  0  0  0  0  0  0  0  0  0  0  0
   -2.0737   -2.3544    0.3180 H   0  0  0  0  0  0  0  0  0  0  0  0
   -0.4381   -2.5670   -0.3510 H   0  0  0  0  0  0  0  0  0  0  0  0
   -0.7401   -3.8023    1.6710 H   0  0  0  0  0  0  0  0  0  0  0  0
    7.2934   -0.0196    0.9652 H   0  0  0  0  0  0  0  0  0  0  0  0
  1  2  1  0  0  0  0
  2  3  1  0  0  0  0
  3  4  2  0  0  0  0
  4  5  1  0  0  0  0
  5  6  2  0  0  0  0
  6  7  1  0  0  0  0
  7  8  2  0  0  0  0
  3  8  1  0  0  0  0
  7  9  1  0  0  0  0
  9 10  1  0  0  0  0
 10 11  1  0  0  0  0
 11 12  1  0  0  0  0
 10 13  1  0  0  0  0
 13 14  1  0  0  0  0
 14 15  1  0  0  0  0
 15 16  2  0  0  0  0
 16 17  1  0  0  0  0
 17 18  2  0  0  0  0
 18 19  1  0  0  0  0
 19 20  2  0  0  0  0
 15 20  1  0  0  0  0
 18 21  1  0  0  0  0
 17 22  1  0  0  0  0
 22 23  1  0  0  0  0
 13 24  1  0  0  0  0
 24 25  1  0  0  0  0
  4 26  1  0  0  0  0
  1 27  1  0  0  0  0
  1 28  1  0  0  0  0
  1 29  1  0  0  0  0
  5 30  1  0  0  0  0
  6 31  1  0  0  0  0
  8 32  1  0  0  0  0
  9 33  1  0  0  0  0
  9 34  1  0  0  0  0
 10 35  1  0  0  0  0
 11 36  1  0  0  0  0
 11 37  1  0  0  0  0
 12 38  1  0  0  0  0
 13 39  1  0  0  0  0
 14 40  1  0  0  0  0
 14 41  1  0  0  0  0
 16 42  1  0  0  0  0
 19 43  1  0  0  0  0
 20 44  1  0  0  0  0
 21 45  1  0  0  0  0
 23 46  1  0  0  0  0
 23 47  1  0  0  0  0
 23 48  1  0  0  0  0
 24 49  1  0  0  0  0
 24 50  1  0  0  0  0
 25 51  1  0  0  0  0
 26 52  1  0  0  0  0
M  END
$$$$
