C20H24O7
APtclcactv06231803053D 0   0.00000     0.00000
 
 51 53  0  0  0  0  0  0  0  0999 V2000
    4.7502   -1.8606   -2.4732 C   0  0  0  0  0  0  0  0  0  0  0  0
    5.5643   -0.9533   -1.7275 O   0  0  0  0  0  0  0  0  0  0  0  0
    5.0131   -0.4023   -0.6130 C   0  0  0  0  0  0  0  0  0  0  0  0
    5.7491    0.4897    0.1609 C   0  0  0  0  0  0  0  0  0  0  0  0
    5.1830    1.0484    1.2955 C   0  0  0  0  0  0  0  0  0  0  0  0
    3.8898    0.7192    1.6565 C   0  0  0  0  0  0  0  0  0  0  0  0
    3.1587   -0.1674    0.8879 C   0  0  0  0  0  0  0  0  0  0  0  0
    3.7153   -0.7236   -0.2487 C   0  0  0  0  0  0  0  0  0  0  0  0
    1.7496   -0.5231    1.2863 C   0  0  0  0  0  0  0  0  0  0  0  0
    0.7720    0.4544    0.6308 C   0  0  0  0  0  0  0  0  0  0  0  0
    0.8644    0.3618   -0.9084 C   0  0  0  0  0  0  0  0  0  0  0  0
   -0.4947    0.5222   -1.3700 O   0  0  0  0  0  0  0  0  0  0  0  0
   -1.3032   -0.2344   -0.4428 C   0  0  0  0  0  0  0  0  0  0  0  0
   -0.6868    0.0532    0.9442 C   0  0  0  0  0  0  0  0  0  0  0  0
   -0.7216   -1.2028    1.8172 C   0  0  0  0  0  0  0  0  0  0  0  0
   -2.0783   -1.5390    2.1143 O   0  0  0  0  0  0  0  0  0  0  0  0
   -2.7339    0.2366   -0.4888 C   0  0  0  0  0  0  0  0  0  0  0  0
   -3.7634   -0.6643   -0.2896 C   0  0  0  0  0  0  0  0  0  0  0  0
   -5.0795   -0.2328   -0.3316 C   0  0  0  0  0  0  0  0  0  0  0  0
   -5.3615    1.1080   -0.5747 C   0  0  0  0  0  0  0  0  0  0  0  0
   -4.3249    2.0058   -0.7735 C   0  0  0  0  0  0  0  0  0  0  0  0
   -3.0139    1.5698   -0.7247 C   0  0  0  0  0  0  0  0  0  0  0  0
   -6.6515    1.5362   -0.6173 O   0  0  0  0  0  0  0  0  0  0  0  0
   -6.0934   -1.1179   -0.1363 O   0  0  0  0  0  0  0  0  0  0  0  0
   -5.7292   -2.4780    0.1075 C   0  0  0  0  0  0  0  0  0  0  0  0
    1.0320    1.7896    1.0686 O   0  0  0  0  0  0  0  0  0  0  0  0
    7.0213    0.8122   -0.1954 O   0  0  0  0  0  0  0  0  0  0  0  0
    5.3089   -2.2261   -3.3347 H   0  0  0  0  0  0  0  0  0  0  0  0
    4.4689   -2.7015   -1.8392 H   0  0  0  0  0  0  0  0  0  0  0  0
    3.8517   -1.3463   -2.8144 H   0  0  0  0  0  0  0  0  0  0  0  0
    5.7523    1.7408    1.8981 H   0  0  0  0  0  0  0  0  0  0  0  0
    3.4498    1.1554    2.5412 H   0  0  0  0  0  0  0  0  0  0  0  0
    3.1421   -1.4159   -0.8474 H   0  0  0  0  0  0  0  0  0  0  0  0
    1.5242   -1.5376    0.9576 H   0  0  0  0  0  0  0  0  0  0  0  0
    1.6521   -0.4624    2.3703 H   0  0  0  0  0  0  0  0  0  0  0  0
    1.4947    1.1605   -1.2995 H   0  0  0  0  0  0  0  0  0  0  0  0
    1.2543   -0.6112   -1.2073 H   0  0  0  0  0  0  0  0  0  0  0  0
   -1.2457   -1.2989   -0.6702 H   0  0  0  0  0  0  0  0  0  0  0  0
   -1.2120    0.8738    1.4329 H   0  0  0  0  0  0  0  0  0  0  0  0
   -0.2509   -2.0289    1.2842 H   0  0  0  0  0  0  0  0  0  0  0  0
   -0.1821   -1.0151    2.7456 H   0  0  0  0  0  0  0  0  0  0  0  0
   -2.1765   -2.3272    2.6658 H   0  0  0  0  0  0  0  0  0  0  0  0
   -3.5419   -1.7045   -0.1015 H   0  0  0  0  0  0  0  0  0  0  0  0
   -4.5410    3.0470   -0.9624 H   0  0  0  0  0  0  0  0  0  0  0  0
   -2.2069    2.2706   -0.8799 H   0  0  0  0  0  0  0  0  0  0  0  0
   -6.9993    1.8227    0.2383 H   0  0  0  0  0  0  0  0  0  0  0  0
   -5.1657   -2.8614   -0.7432 H   0  0  0  0  0  0  0  0  0  0  0  0
   -5.1143   -2.5342    1.0057 H   0  0  0  0  0  0  0  0  0  0  0  0
   -6.6300   -3.0761    0.2458 H   0  0  0  0  0  0  0  0  0  0  0  0
    1.9250    2.1023    0.8686 H   0  0  0  0  0  0  0  0  0  0  0  0
    7.0832    1.5780   -0.7826 H   0  0  0  0  0  0  0  0  0  0  0  0
  1  2  1  0  0  0  0
  2  3  1  0  0  0  0
  3  4  2  0  0  0  0
  4  5  1  0  0  0  0
  5  6  2  0  0  0  0
  6  7  1  0  0  0  0
  7  8  2  0  0  0  0
  3  8  1  0  0  0  0
  7  9  1  0  0  0  0
  9 10  1  0  0  0  0
 10 11  1  0  0  0  0
 11 12  1  0  0  0  0
 12 13  1  0  0  0  0
 13 14  1  0  0  0  0
 10 14  1  0  0  0  0
 14 15  1  0  0  0  0
 15 16  1  0  0  0  0
 13 17  1  0  0  0  0
 17 18  2  0  0  0  0
 18 19  1  0  0  0  0
 19 20  2  0  0  0  0
 20 21  1  0  0  0  0
 21 22  2  0  0  0  0
 17 22  1  0  0  0  0
 20 23  1  0  0  0  0
 19 24  1  0  0  0  0
 24 25  1  0  0  0  0
 10 26  1  0  0  0  0
  4 27  1  0  0  0  0
  1 28  1  0  0  0  0
  1 29  1  0  0  0  0
  1 30  1  0  0  0  0
  5 31  1  0  0  0  0
  6 32  1  0  0  0  0
  8 33  1  0  0  0  0
  9 34  1  0  0  0  0
  9 35  1  0  0  0  0
 11 36  1  0  0  0  0
 11 37  1  0  0  0  0
 13 38  1  0  0  0  0
 14 39  1  0  0  0  0
 15 40  1  0  0  0  0
 15 41  1  0  0  0  0
 16 42  1  0  0  0  0
 18 43  1  0  0  0  0
 21 44  1  0  0  0  0
 22 45  1  0  0  0  0
 23 46  1  0  0  0  0
 25 47  1  0  0  0  0
 25 48  1  0  0  0  0
 25 49  1  0  0  0  0
 26 50  1  0  0  0  0
 27 51  1  0  0  0  0
M  END
$$$$
