C27H30O14
APtclcactv06281817183D 0   0.00000     0.00000
 
 71 75  0  0  0  0  0  0  0  0999 V2000
    3.2057   -0.1416   -3.6804 C   0  0  0  0  0  0  0  0  0  0  0  0
    4.0982   -0.8704   -2.6738 C   0  0  0  0  0  0  0  0  0  0  0  0
    5.3436   -0.0263   -2.3908 C   0  0  0  0  0  0  0  0  0  0  0  0
    4.9176    1.3020   -1.7579 C   0  0  0  0  0  0  0  0  0  0  0  0
    4.1096    1.0144   -0.4888 C   0  0  0  0  0  0  0  0  0  0  0  0
    2.9118    0.1301   -0.8452 C   0  0  0  0  0  0  0  0  0  0  0  0
    3.3764   -1.0747   -1.4575 O   0  0  0  0  0  0  0  0  0  0  0  0
    2.1846   -0.1888    0.3428 O   0  0  0  0  0  0  0  0  0  0  0  0
    0.9794   -0.9199    0.1080 C   0  0  0  0  0  0  0  0  0  0  0  0
    1.2778   -2.4220    0.1379 C   0  0  0  0  0  0  0  0  0  0  0  0
    1.7763   -2.8047    1.5348 C   0  0  0  0  0  0  0  0  0  0  0  0
    0.7250   -2.4004    2.5717 C   0  0  0  0  0  0  0  0  0  0  0  0
    0.4718   -0.9977    2.4694 O   0  0  0  0  0  0  0  0  0  0  0  0
   -0.0411   -0.5884    1.2000 C   0  0  0  0  0  0  0  0  0  0  0  0
   -0.2955    0.8969    1.2159 C   0  0  0  0  0  0  0  0  0  0  0  0
    0.6512    1.7561    1.7514 C   0  0  0  0  0  0  0  0  0  0  0  0
    0.4303    3.1291    1.7735 C   0  0  0  0  0  0  0  0  0  0  0  0
   -0.7413    3.6524    1.2592 C   0  0  0  0  0  0  0  0  0  0  0  0
   -1.7020    2.7900    0.7161 C   0  0  0  0  0  0  0  0  0  0  0  0
   -1.4738    1.4035    0.6899 C   0  0  0  0  0  0  0  0  0  0  0  0
   -2.4058    0.5805    0.1640 O   0  0  0  0  0  0  0  0  0  0  0  0
   -3.5613    1.0376   -0.3440 C   0  0  0  0  0  0  0  0  0  0  0  0
   -3.8777    2.3603   -0.3661 C   0  0  0  0  0  0  0  0  0  0  0  0
   -2.9635    3.3051    0.1572 C   0  0  0  0  0  0  0  0  0  0  0  0
   -3.2146    4.4995    0.1540 O   0  0  0  0  0  0  0  0  0  0  0  0
   -4.5245    0.0684   -0.8997 C   0  0  0  0  0  0  0  0  0  0  0  0
   -4.2280   -1.2975   -0.8918 C   0  0  0  0  0  0  0  0  0  0  0  0
   -5.1301   -2.1989   -1.4118 C   0  0  0  0  0  0  0  0  0  0  0  0
   -6.3338   -1.7522   -1.9439 C   0  0  0  0  0  0  0  0  0  0  0  0
   -6.6326   -0.3950   -1.9538 C   0  0  0  0  0  0  0  0  0  0  0  0
   -5.7387    0.5128   -1.4306 C   0  0  0  0  0  0  0  0  0  0  0  0
   -7.2200   -2.6441   -2.4558 O   0  0  0  0  0  0  0  0  0  0  0  0
   -0.9592    4.9918    1.2807 O   0  0  0  0  0  0  0  0  0  0  0  0
    1.8050    1.2526    2.2595 O   0  0  0  0  0  0  0  0  0  0  0  0
   -0.5701   -3.1729    2.3132 C   0  0  0  0  0  0  0  0  0  0  0  0
   -1.4987   -2.9123    3.3676 O   0  0  0  0  0  0  0  0  0  0  0  0
    1.9890   -4.2164    1.5958 O   0  0  0  0  0  0  0  0  0  0  0  0
    0.0864   -3.1521   -0.1611 O   0  0  0  0  0  0  0  0  0  0  0  0
    4.9364    0.3385    0.4608 O   0  0  0  0  0  0  0  0  0  0  0  0
    6.0779    2.0659   -1.4230 O   0  0  0  0  0  0  0  0  0  0  0  0
    6.2031   -0.7297   -1.4916 O   0  0  0  0  0  0  0  0  0  0  0  0
    3.7568    0.0151   -4.6077 H   0  0  0  0  0  0  0  0  0  0  0  0
    2.3191   -0.7427   -3.8818 H   0  0  0  0  0  0  0  0  0  0  0  0
    2.9056    0.8221   -3.2689 H   0  0  0  0  0  0  0  0  0  0  0  0
    4.3981   -1.8343   -3.0850 H   0  0  0  0  0  0  0  0  0  0  0  0
    5.8719    0.1678   -3.3242 H   0  0  0  0  0  0  0  0  0  0  0  0
    4.3024    1.8611   -2.4630 H   0  0  0  0  0  0  0  0  0  0  0  0
    3.7554    1.9527   -0.0620 H   0  0  0  0  0  0  0  0  0  0  0  0
    2.2605    0.6624   -1.5385 H   0  0  0  0  0  0  0  0  0  0  0  0
    0.5728   -0.6486   -0.8663 H   0  0  0  0  0  0  0  0  0  0  0  0
    2.0453   -2.6561   -0.5999 H   0  0  0  0  0  0  0  0  0  0  0  0
    2.7117   -2.2851    1.7428 H   0  0  0  0  0  0  0  0  0  0  0  0
    1.0929   -2.6314    3.5714 H   0  0  0  0  0  0  0  0  0  0  0  0
   -0.9738   -1.1150    0.9978 H   0  0  0  0  0  0  0  0  0  0  0  0
    1.1757    3.7879    2.1939 H   0  0  0  0  0  0  0  0  0  0  0  0
   -4.8182    2.6876   -0.7843 H   0  0  0  0  0  0  0  0  0  0  0  0
   -3.2927   -1.6455   -0.4789 H   0  0  0  0  0  0  0  0  0  0  0  0
   -4.9017   -3.2545   -1.4065 H   0  0  0  0  0  0  0  0  0  0  0  0
   -7.5691   -0.0521   -2.3682 H   0  0  0  0  0  0  0  0  0  0  0  0
   -5.9719    1.5673   -1.4384 H   0  0  0  0  0  0  0  0  0  0  0  0
   -7.8566   -2.9807   -1.8104 H   0  0  0  0  0  0  0  0  0  0  0  0
   -0.6407    5.4548    0.4937 H   0  0  0  0  0  0  0  0  0  0  0  0
    2.5209    1.1806    1.6135 H   0  0  0  0  0  0  0  0  0  0  0  0
   -0.9998   -2.8541    1.3635 H   0  0  0  0  0  0  0  0  0  0  0  0
   -0.3547   -4.2407    2.2743 H   0  0  0  0  0  0  0  0  0  0  0  0
   -2.3445   -3.3706    3.2690 H   0  0  0  0  0  0  0  0  0  0  0  0
    2.3059   -4.5297    2.4540 H   0  0  0  0  0  0  0  0  0  0  0  0
    0.2025   -4.1121   -0.1595 H   0  0  0  0  0  0  0  0  0  0  0  0
    4.4883    0.1246    1.2906 H   0  0  0  0  0  0  0  0  0  0  0  0
    5.8820    2.9214   -1.0170 H   0  0  0  0  0  0  0  0  0  0  0  0
    6.5080   -1.5841   -1.8265 H   0  0  0  0  0  0  0  0  0  0  0  0
  1  2  1  0  0  0  0
  2  3  1  0  0  0  0
  3  4  1  0  0  0  0
  4  5  1  0  0  0  0
  5  6  1  0  0  0  0
  6  7  1  0  0  0  0
  2  7  1  0  0  0  0
  6  8  1  0  0  0  0
  8  9  1  0  0  0  0
  9 10  1  0  0  0  0
 10 11  1  0  0  0  0
 11 12  1  0  0  0  0
 12 13  1  0  0  0  0
 13 14  1  0  0  0  0
  9 14  1  0  0  0  0
 14 15  1  0  0  0  0
 15 16  2  0  0  0  0
 16 17  1  0  0  0  0
 17 18  2  0  0  0  0
 18 19  1  0  0  0  0
 19 20  2  0  0  0  0
 15 20  1  0  0  0  0
 20 21  1  0  0  0  0
 21 22  1  0  0  0  0
 22 23  2  0  0  0  0
 23 24  1  0  0  0  0
 19 24  1  0  0  0  0
 24 25  2  0  0  0  0
 22 26  1  0  0  0  0
 26 27  2  0  0  0  0
 27 28  1  0  0  0  0
 28 29  2  0  0  0  0
 29 30  1  0  0  0  0
 30 31  2  0  0  0  0
 26 31  1  0  0  0  0
 29 32  1  0  0  0  0
 18 33  1  0  0  0  0
 16 34  1  0  0  0  0
 12 35  1  0  0  0  0
 35 36  1  0  0  0  0
 11 37  1  0  0  0  0
 10 38  1  0  0  0  0
  5 39  1  0  0  0  0
  4 40  1  0  0  0  0
  3 41  1  0  0  0  0
  1 42  1  0  0  0  0
  1 43  1  0  0  0  0
  1 44  1  0  0  0  0
  2 45  1  0  0  0  0
  3 46  1  0  0  0  0
  4 47  1  0  0  0  0
  5 48  1  0  0  0  0
  6 49  1  0  0  0  0
  9 50  1  0  0  0  0
 10 51  1  0  0  0  0
 11 52  1  0  0  0  0
 12 53  1  0  0  0  0
 14 54  1  0  0  0  0
 17 55  1  0  0  0  0
 23 56  1  0  0  0  0
 27 57  1  0  0  0  0
 28 58  1  0  0  0  0
 30 59  1  0  0  0  0
 31 60  1  0  0  0  0
 32 61  1  0  0  0  0
 33 62  1  0  0  0  0
 34 63  1  0  0  0  0
 35 64  1  0  0  0  0
 35 65  1  0  0  0  0
 36 66  1  0  0  0  0
 37 67  1  0  0  0  0
 38 68  1  0  0  0  0
 39 69  1  0  0  0  0
 40 70  1  0  0  0  0
 41 71  1  0  0  0  0
M  END
$$$$
