C12H14O2
APtclcactv06281817023D 0   0.00000     0.00000
 
 28 29  0  0  0  0  0  0  0  0999 V2000
    5.2072   -0.0986    0.4583 C   0  0  0  0  0  0  0  0  0  0  0  0
    3.8326   -0.7689    0.5017 C   0  0  0  0  0  0  0  0  0  0  0  0
    2.9144   -0.1172   -0.5342 C   0  0  0  0  0  0  0  0  0  0  0  0
    1.5604   -0.7774   -0.4915 C   0  0  0  0  0  0  0  0  0  0  0  0
    0.4559   -0.0343   -0.3056 C   0  0  0  0  0  0  0  0  0  0  0  0
   -0.8562   -0.5278   -0.2470 C   0  0  0  0  0  0  0  0  0  0  0  0
   -1.6913    0.5513   -0.0470 C   0  0  0  0  0  0  0  0  0  0  0  0
   -3.1492    0.3740    0.0585 C   0  0  0  0  0  0  0  0  0  0  0  0
   -3.5916   -0.8631    0.2916 C   0  0  0  0  0  0  0  0  0  0  0  0
   -2.6713   -2.0310    0.4818 C   0  0  0  0  0  0  0  0  0  0  0  0
   -1.3986   -1.9268   -0.3599 C   0  0  0  0  0  0  0  0  0  0  0  0
   -0.8449    1.7312    0.0181 C   0  0  0  0  0  0  0  0  0  0  0  0
   -1.2158    2.8773    0.1872 O   0  0  0  0  0  0  0  0  0  0  0  0
    0.4325    1.3157   -0.1386 O   0  0  0  0  0  0  0  0  0  0  0  0
    5.8613   -0.5629    1.1964 H   0  0  0  0  0  0  0  0  0  0  0  0
    5.6385   -0.2180   -0.5356 H   0  0  0  0  0  0  0  0  0  0  0  0
    5.1013    0.9627    0.6833 H   0  0  0  0  0  0  0  0  0  0  0  0
    3.9386   -1.8301    0.2768 H   0  0  0  0  0  0  0  0  0  0  0  0
    3.4013   -0.6494    1.4957 H   0  0  0  0  0  0  0  0  0  0  0  0
    2.8085    0.9441   -0.3093 H   0  0  0  0  0  0  0  0  0  0  0  0
    3.3457   -0.2366   -1.5281 H   0  0  0  0  0  0  0  0  0  0  0  0
    1.4775   -1.8476   -0.6101 H   0  0  0  0  0  0  0  0  0  0  0  0
   -3.8288    1.2067   -0.0474 H   0  0  0  0  0  0  0  0  0  0  0  0
   -4.6573   -1.0299    0.3459 H   0  0  0  0  0  0  0  0  0  0  0  0
   -2.3929   -2.0914    1.5339 H   0  0  0  0  0  0  0  0  0  0  0  0
   -3.2004   -2.9437    0.2075 H   0  0  0  0  0  0  0  0  0  0  0  0
   -1.6308   -2.1455   -1.4021 H   0  0  0  0  0  0  0  0  0  0  0  0
   -0.6580   -2.6367    0.0083 H   0  0  0  0  0  0  0  0  0  0  0  0
  1  2  1  0  0  0  0
  2  3  1  0  0  0  0
  3  4  1  0  0  0  0
  4  5  2  0  0  0  0
  5  6  1  0  0  0  0
  6  7  2  0  0  0  0
  7  8  1  0  0  0  0
  8  9  2  0  0  0  0
  9 10  1  0  0  0  0
 10 11  1  0  0  0  0
  6 11  1  0  0  0  0
  7 12  1  0  0  0  0
 12 13  2  0  0  0  0
 12 14  1  0  0  0  0
  5 14  1  0  0  0  0
  1 15  1  0  0  0  0
  1 16  1  0  0  0  0
  1 17  1  0  0  0  0
  2 18  1  0  0  0  0
  2 19  1  0  0  0  0
  3 20  1  0  0  0  0
  3 21  1  0  0  0  0
  4 22  1  0  0  0  0
  8 23  1  0  0  0  0
  9 24  1  0  0  0  0
 10 25  1  0  0  0  0
 10 26  1  0  0  0  0
 11 27  1  0  0  0  0
 11 28  1  0  0  0  0
M  END
$$$$
