C4H7N3O
APtclcactv06201804423D 0   0.00000     0.00000
 
 15 15  0  0  0  0  0  0  0  0999 V2000
    2.0760    1.3635    0.0004 C   0  0  0  0  0  0  0  0  0  0  0  0
    0.7985    0.6465    0.0013 N   0  0  0  0  0  0  0  0  0  0  0  0
   -0.5521    1.2381   -0.0007 C   0  0  0  0  0  0  0  0  0  0  0  0
   -1.4617    0.0251    0.0004 C   0  0  0  0  0  0  0  0  0  0  0  0
   -2.6771    0.0220   -0.0009 O   0  0  0  0  0  0  0  0  0  0  0  0
   -0.6583   -1.0349    0.0027 N   0  0  0  0  0  0  0  0  0  0  0  0
    0.6152   -0.7024   -0.0020 C   0  0  0  0  0  0  0  0  0  0  0  0
    1.6346   -1.6060   -0.0009 N   0  0  0  0  0  0  0  0  0  0  0  0
    2.3923    1.5435    1.0279 H   0  0  0  0  0  0  0  0  0  0  0  0
    2.8288    0.7642   -0.5117 H   0  0  0  0  0  0  0  0  0  0  0  0
    1.9576    2.3164   -0.5155 H   0  0  0  0  0  0  0  0  0  0  0  0
   -0.7105    1.8386    0.8950 H   0  0  0  0  0  0  0  0  0  0  0  0
   -0.7090    1.8358   -0.8986 H   0  0  0  0  0  0  0  0  0  0  0  0
    1.4404   -2.5563    0.0038 H   0  0  0  0  0  0  0  0  0  0  0  0
    2.5548   -1.2990   -0.0049 H   0  0  0  0  0  0  0  0  0  0  0  0
  1  2  1  0  0  0  0
  2  3  1  0  0  0  0
  3  4  1  0  0  0  0
  4  5  2  0  0  0  0
  4  6  1  0  0  0  0
  6  7  2  0  0  0  0
  2  7  1  0  0  0  0
  7  8  1  0  0  0  0
  1  9  1  0  0  0  0
  1 10  1  0  0  0  0
  1 11  1  0  0  0  0
  3 12  1  0  0  0  0
  3 13  1  0  0  0  0
  8 14  1  0  0  0  0
  8 15  1  0  0  0  0
M  END
$$$$
