C12H16O2
APtclcactv06231803053D 0   0.00000     0.00000
 
 30 31  0  0  0  0  0  0  0  0999 V2000
    1.0574    1.1570    1.7950 C   0  0  0  0  0  0  0  0  0  0  0  0
    0.3907    1.1798    0.4181 C   0  0  0  0  0  0  0  0  0  0  0  0
    1.4587    1.3857   -0.6663 C   0  0  0  0  0  0  0  0  0  0  0  0
    2.4483    0.2450   -0.5495 C   0  0  0  0  0  0  0  0  0  0  0  0
    3.6424    0.4411   -0.6372 O   0  0  0  0  0  0  0  0  0  0  0  0
    1.9177   -1.1039   -0.3265 C   0  0  0  0  0  0  0  0  0  0  0  0
    0.6440   -1.2795    0.0101 C   0  0  0  0  0  0  0  0  0  0  0  0
   -0.3187   -0.1463    0.1734 C   0  0  0  0  0  0  0  0  0  0  0  0
   -1.2888   -0.4417    1.3406 C   0  0  0  0  0  0  0  0  0  0  0  0
   -2.5263    0.4121    0.9655 C   0  0  0  0  0  0  0  0  0  0  0  0
   -2.6186    0.3033   -0.5465 C   0  0  0  0  0  0  0  0  0  0  0  0
   -3.6112    0.4600   -1.2161 O   0  0  0  0  0  0  0  0  0  0  0  0
   -1.2340   -0.0378   -1.0591 C   0  0  0  0  0  0  0  0  0  0  0  0
    0.1470   -2.6839    0.2370 C   0  0  0  0  0  0  0  0  0  0  0  0
    1.6765    2.0462    1.9138 H   0  0  0  0  0  0  0  0  0  0  0  0
    0.2907    1.1419    2.5697 H   0  0  0  0  0  0  0  0  0  0  0  0
    1.6799    0.2665    1.8825 H   0  0  0  0  0  0  0  0  0  0  0  0
   -0.3324    1.9944    0.3768 H   0  0  0  0  0  0  0  0  0  0  0  0
    0.9934    1.3731   -1.6519 H   0  0  0  0  0  0  0  0  0  0  0  0
    1.9686    2.3362   -0.5085 H   0  0  0  0  0  0  0  0  0  0  0  0
    2.5662   -1.9605   -0.4368 H   0  0  0  0  0  0  0  0  0  0  0  0
   -1.5442   -1.5008    1.3741 H   0  0  0  0  0  0  0  0  0  0  0  0
   -0.8648   -0.1138    2.2897 H   0  0  0  0  0  0  0  0  0  0  0  0
   -3.4241    0.0063    1.4317 H   0  0  0  0  0  0  0  0  0  0  0  0
   -2.3773    1.4498    1.2640 H   0  0  0  0  0  0  0  0  0  0  0  0
   -0.8765    0.7513   -1.7207 H   0  0  0  0  0  0  0  0  0  0  0  0
   -1.2572   -0.9888   -1.5912 H   0  0  0  0  0  0  0  0  0  0  0  0
    0.9639   -3.3883    0.0797 H   0  0  0  0  0  0  0  0  0  0  0  0
   -0.2223   -2.7781    1.2582 H   0  0  0  0  0  0  0  0  0  0  0  0
   -0.6600   -2.9013   -0.4626 H   0  0  0  0  0  0  0  0  0  0  0  0
  1  2  1  0  0  0  0
  2  3  1  0  0  0  0
  3  4  1  0  0  0  0
  4  5  2  0  0  0  0
  4  6  1  0  0  0  0
  6  7  2  0  0  0  0
  7  8  1  0  0  0  0
  2  8  1  0  0  0  0
  8  9  1  0  0  0  0
  9 10  1  0  0  0  0
 10 11  1  0  0  0  0
 11 12  2  0  0  0  0
 11 13  1  0  0  0  0
  8 13  1  0  0  0  0
  7 14  1  0  0  0  0
  1 15  1  0  0  0  0
  1 16  1  0  0  0  0
  1 17  1  0  0  0  0
  2 18  1  0  0  0  0
  3 19  1  0  0  0  0
  3 20  1  0  0  0  0
  6 21  1  0  0  0  0
  9 22  1  0  0  0  0
  9 23  1  0  0  0  0
 10 24  1  0  0  0  0
 10 25  1  0  0  0  0
 13 26  1  0  0  0  0
 13 27  1  0  0  0  0
 14 28  1  0  0  0  0
 14 29  1  0  0  0  0
 14 30  1  0  0  0  0
M  END
$$$$
