C26H25Cl2N3O3
APtclcactv06281817183D 0   0.00000     0.00000
 
 59 61  0  0  0  0  0  0  0  0999 V2000
    0.5059   -3.0051    1.1058 C   0  0  0  0  0  0  0  0  0  0  0  0
    1.6735   -3.4947    0.2468 C   0  0  0  0  0  0  0  0  0  0  0  0
    2.9193   -3.6514    1.1211 C   0  0  0  0  0  0  0  0  0  0  0  0
    1.3159   -4.8447   -0.3782 C   0  0  0  0  0  0  0  0  0  0  0  0
    1.9418   -2.5182   -0.8174 N   0  0  0  0  0  0  0  0  0  0  0  0
    2.2650   -1.2990   -0.2929 N   0  0  0  0  0  0  0  0  0  0  0  0
    2.5468   -0.2664   -1.1118 C   0  0  0  0  0  0  0  0  0  0  0  0
    2.5875   -0.4382   -2.3157 O   0  0  0  0  0  0  0  0  0  0  0  0
    2.8047    1.0664   -0.5511 C   0  0  0  0  0  0  0  0  0  0  0  0
    1.8012    1.9716   -0.4680 C   0  0  0  0  0  0  0  0  0  0  0  0
    0.4271    1.5790   -0.8108 C   0  0  0  0  0  0  0  0  0  0  0  0
   -0.0630    0.3267   -0.4226 C   0  0  0  0  0  0  0  0  0  0  0  0
   -1.3513   -0.0361   -0.7458 C   0  0  0  0  0  0  0  0  0  0  0  0
   -2.1647    0.8387   -1.4568 C   0  0  0  0  0  0  0  0  0  0  0  0
   -1.6829    2.0836   -1.8447 C   0  0  0  0  0  0  0  0  0  0  0  0
   -0.3980    2.4584   -1.5216 C   0  0  0  0  0  0  0  0  0  0  0  0
   -3.4340    0.4758   -1.7738 O   0  0  0  0  0  0  0  0  0  0  0  0
   -4.3698    0.5016   -0.7888 C   0  0  0  0  0  0  0  0  0  0  0  0
   -5.6514    0.0317   -1.0359 C   0  0  0  0  0  0  0  0  0  0  0  0
   -6.6018    0.0585   -0.0321 C   0  0  0  0  0  0  0  0  0  0  0  0
   -6.2746    0.5543    1.2187 C   0  0  0  0  0  0  0  0  0  0  0  0
   -4.9966    1.0237    1.4660 C   0  0  0  0  0  0  0  0  0  0  0  0
   -4.0429    0.9928    0.4674 C   0  0  0  0  0  0  0  0  0  0  0  0
   -7.4693    0.5877    2.4777 Cl  0  0  0  0  0  0  0  0  0  0  0  0
   -8.2059   -0.5293   -0.3401 Cl  0  0  0  0  0  0  0  0  0  0  0  0
    4.0872    1.4005   -0.1029 N   0  0  0  0  0  0  0  0  0  0  0  0
    5.0602    0.4680   -0.0883 C   0  0  0  0  0  0  0  0  0  0  0  0
    4.8511   -0.6360   -0.5527 O   0  0  0  0  0  0  0  0  0  0  0  0
    6.3814    0.7875    0.4924 C   0  0  0  0  0  0  0  0  0  0  0  0
    7.3913   -0.1760    0.5091 C   0  0  0  0  0  0  0  0  0  0  0  0
    8.6223    0.1289    1.0522 C   0  0  0  0  0  0  0  0  0  0  0  0
    8.8568    1.3862    1.5798 C   0  0  0  0  0  0  0  0  0  0  0  0
    7.8600    2.3457    1.5668 C   0  0  0  0  0  0  0  0  0  0  0  0
    6.6265    2.0559    1.0212 C   0  0  0  0  0  0  0  0  0  0  0  0
    0.7607   -2.0433    1.5510 H   0  0  0  0  0  0  0  0  0  0  0  0
   -0.3816   -2.8934    0.4829 H   0  0  0  0  0  0  0  0  0  0  0  0
    0.3069   -3.7296    1.8954 H   0  0  0  0  0  0  0  0  0  0  0  0
    2.7202   -4.3760    1.9107 H   0  0  0  0  0  0  0  0  0  0  0  0
    3.7511   -4.0003    0.5091 H   0  0  0  0  0  0  0  0  0  0  0  0
    3.1741   -2.6897    1.5663 H   0  0  0  0  0  0  0  0  0  0  0  0
    0.4284   -4.7330   -1.0010 H   0  0  0  0  0  0  0  0  0  0  0  0
    2.1477   -5.1935   -0.9901 H   0  0  0  0  0  0  0  0  0  0  0  0
    1.1169   -5.5693    0.4114 H   0  0  0  0  0  0  0  0  0  0  0  0
    2.6661   -2.8487   -1.4372 H   0  0  0  0  0  0  0  0  0  0  0  0
    2.2918   -1.1765    0.6690 H   0  0  0  0  0  0  0  0  0  0  0  0
    2.0106    2.9822   -0.1498 H   0  0  0  0  0  0  0  0  0  0  0  0
    0.5683   -0.3540    0.1292 H   0  0  0  0  0  0  0  0  0  0  0  0
   -1.7305   -1.0021   -0.4468 H   0  0  0  0  0  0  0  0  0  0  0  0
   -2.3188    2.7596   -2.3970 H   0  0  0  0  0  0  0  0  0  0  0  0
   -0.0247    3.4260   -1.8231 H   0  0  0  0  0  0  0  0  0  0  0  0
   -5.9066   -0.3543   -2.0118 H   0  0  0  0  0  0  0  0  0  0  0  0
   -4.7434    1.4104    2.4421 H   0  0  0  0  0  0  0  0  0  0  0  0
   -3.0456    1.3590    0.6614 H   0  0  0  0  0  0  0  0  0  0  0  0
    4.2761    2.3033    0.1974 H   0  0  0  0  0  0  0  0  0  0  0  0
    7.2093   -1.1580    0.0982 H   0  0  0  0  0  0  0  0  0  0  0  0
    9.4045   -0.6156    1.0657 H   0  0  0  0  0  0  0  0  0  0  0  0
    9.8222    1.6197    2.0041 H   0  0  0  0  0  0  0  0  0  0  0  0
    8.0494    3.3251    1.9807 H   0  0  0  0  0  0  0  0  0  0  0  0
    5.8493    2.8057    1.0117 H   0  0  0  0  0  0  0  0  0  0  0  0
  1  2  1  0  0  0  0
  2  3  1  0  0  0  0
  2  4  1  0  0  0  0
  2  5  1  0  0  0  0
  5  6  1  0  0  0  0
  6  7  1  0  0  0  0
  7  8  2  0  0  0  0
  7  9  1  0  0  0  0
  9 10  2  0  0  0  0
 10 11  1  0  0  0  0
 11 12  2  0  0  0  0
 12 13  1  0  0  0  0
 13 14  2  0  0  0  0
 14 15  1  0  0  0  0
 15 16  2  0  0  0  0
 11 16  1  0  0  0  0
 14 17  1  0  0  0  0
 17 18  1  0  0  0  0
 18 19  2  0  0  0  0
 19 20  1  0  0  0  0
 20 21  2  0  0  0  0
 21 22  1  0  0  0  0
 22 23  2  0  0  0  0
 18 23  1  0  0  0  0
 21 24  1  0  0  0  0
 20 25  1  0  0  0  0
  9 26  1  0  0  0  0
 26 27  1  0  0  0  0
 27 28  2  0  0  0  0
 27 29  1  0  0  0  0
 29 30  2  0  0  0  0
 30 31  1  0  0  0  0
 31 32  2  0  0  0  0
 32 33  1  0  0  0  0
 33 34  2  0  0  0  0
 29 34  1  0  0  0  0
  1 35  1  0  0  0  0
  1 36  1  0  0  0  0
  1 37  1  0  0  0  0
  3 38  1  0  0  0  0
  3 39  1  0  0  0  0
  3 40  1  0  0  0  0
  4 41  1  0  0  0  0
  4 42  1  0  0  0  0
  4 43  1  0  0  0  0
  5 44  1  0  0  0  0
  6 45  1  0  0  0  0
 10 46  1  0  0  0  0
 12 47  1  0  0  0  0
 13 48  1  0  0  0  0
 15 49  1  0  0  0  0
 16 50  1  0  0  0  0
 19 51  1  0  0  0  0
 22 52  1  0  0  0  0
 23 53  1  0  0  0  0
 26 54  1  0  0  0  0
 30 55  1  0  0  0  0
 31 56  1  0  0  0  0
 32 57  1  0  0  0  0
 33 58  1  0  0  0  0
 34 59  1  0  0  0  0
M  END
$$$$
