C15H18O3
APtclcactv06231803053D 0   0.00000     0.00000
 
 36 38  0  0  0  0  0  0  0  0999 V2000
    3.8714    2.9398    0.4320 C   0  0  0  0  0  0  0  0  0  0  0  0
    3.4858    1.5044    0.1830 C   0  0  0  0  0  0  0  0  0  0  0  0
    4.0220    0.6777   -0.7327 C   0  0  0  0  0  0  0  0  0  0  0  0
    3.4083   -0.5133   -0.6401 O   0  0  0  0  0  0  0  0  0  0  0  0
    2.4790   -0.4642    0.3282 C   0  0  0  0  0  0  0  0  0  0  0  0
    2.4954    0.7665    0.8710 C   0  0  0  0  0  0  0  0  0  0  0  0
    1.5753   -1.5974    0.7408 C   0  0  0  0  0  0  0  0  0  0  0  0
    0.2878   -1.5493   -0.0843 C   0  0  0  0  0  0  0  0  0  0  0  0
   -0.6446   -2.7072    0.3318 C   0  0  0  0  0  0  0  0  0  0  0  0
   -2.0436   -2.0340    0.2933 C   0  0  0  0  0  0  0  0  0  0  0  0
   -1.6909   -0.5963    0.7508 C   0  0  0  0  0  0  0  0  0  0  0  0
   -0.4063   -0.3222    0.1693 O   0  0  0  0  0  0  0  0  0  0  0  0
   -2.7164    0.3820    0.2385 C   0  0  0  0  0  0  0  0  0  0  0  0
   -2.7798    0.9016   -1.0006 C   0  0  0  0  0  0  0  0  0  0  0  0
   -3.8350    1.7303   -1.0598 O   0  0  0  0  0  0  0  0  0  0  0  0
   -4.4553    1.7513    0.1313 C   0  0  0  0  0  0  0  0  0  0  0  0
   -3.8001    0.9250    0.9664 C   0  0  0  0  0  0  0  0  0  0  0  0
    0.6213   -1.6609   -1.5734 C   0  0  0  0  0  0  0  0  0  0  0  0
    3.2643    3.5931   -0.1947 H   0  0  0  0  0  0  0  0  0  0  0  0
    3.7039    3.1843    1.4810 H   0  0  0  0  0  0  0  0  0  0  0  0
    4.9248    3.0803    0.1900 H   0  0  0  0  0  0  0  0  0  0  0  0
    4.8117    0.9292   -1.4252 H   0  0  0  0  0  0  0  0  0  0  0  0
    1.8672    1.1245    1.6732 H   0  0  0  0  0  0  0  0  0  0  0  0
    2.0818   -2.5471    0.5688 H   0  0  0  0  0  0  0  0  0  0  0  0
    1.3324   -1.5016    1.7991 H   0  0  0  0  0  0  0  0  0  0  0  0
   -0.5886   -3.5269   -0.3845 H   0  0  0  0  0  0  0  0  0  0  0  0
   -0.4081   -3.0532    1.3381 H   0  0  0  0  0  0  0  0  0  0  0  0
   -2.4526   -2.0356   -0.7170 H   0  0  0  0  0  0  0  0  0  0  0  0
   -2.7290   -2.5120    0.9933 H   0  0  0  0  0  0  0  0  0  0  0  0
   -1.6318   -0.5490    1.8381 H   0  0  0  0  0  0  0  0  0  0  0  0
   -2.0975    0.6889   -1.8103 H   0  0  0  0  0  0  0  0  0  0  0  0
   -5.3337    2.3301    0.3758 H   0  0  0  0  0  0  0  0  0  0  0  0
   -4.0494    0.7214    1.9972 H   0  0  0  0  0  0  0  0  0  0  0  0
    1.1232   -2.6097   -1.7631 H   0  0  0  0  0  0  0  0  0  0  0  0
   -0.2986   -1.6135   -2.1563 H   0  0  0  0  0  0  0  0  0  0  0  0
    1.2768   -0.8391   -1.8615 H   0  0  0  0  0  0  0  0  0  0  0  0
  1  2  1  0  0  0  0
  2  3  2  0  0  0  0
  3  4  1  0  0  0  0
  4  5  1  0  0  0  0
  5  6  2  0  0  0  0
  2  6  1  0  0  0  0
  5  7  1  0  0  0  0
  7  8  1  0  0  0  0
  8  9  1  0  0  0  0
  9 10  1  0  0  0  0
 10 11  1  0  0  0  0
 11 12  1  0  0  0  0
  8 12  1  0  0  0  0
 11 13  1  0  0  0  0
 13 14  2  0  0  0  0
 14 15  1  0  0  0  0
 15 16  1  0  0  0  0
 16 17  2  0  0  0  0
 13 17  1  0  0  0  0
  8 18  1  0  0  0  0
  1 19  1  0  0  0  0
  1 20  1  0  0  0  0
  1 21  1  0  0  0  0
  3 22  1  0  0  0  0
  6 23  1  0  0  0  0
  7 24  1  0  0  0  0
  7 25  1  0  0  0  0
  9 26  1  0  0  0  0
  9 27  1  0  0  0  0
 10 28  1  0  0  0  0
 10 29  1  0  0  0  0
 11 30  1  0  0  0  0
 14 31  1  0  0  0  0
 16 32  1  0  0  0  0
 17 33  1  0  0  0  0
 18 34  1  0  0  0  0
 18 35  1  0  0  0  0
 18 36  1  0  0  0  0
M  END
$$$$
