C26H28O15
APtclcactv06291802543D 0   0.00000     0.00000
 
 69 73  0  0  0  0  0  0  0  0999 V2000
    5.4763   -3.0472    0.8952 C   0  0  0  0  0  0  0  0  0  0  0  0
    4.1283   -3.8014    0.9120 C   0  0  0  0  0  0  0  0  0  0  0  0
    3.0983   -2.7207    1.3101 C   0  0  0  0  0  0  0  0  0  0  0  0
    3.9459   -1.4413    1.4868 C   0  0  0  0  0  0  0  0  0  0  0  0
    5.1224   -1.6637    0.6792 O   0  0  0  0  0  0  0  0  0  0  0  0
    3.2274   -0.2996    1.0153 O   0  0  0  0  0  0  0  0  0  0  0  0
    3.8949    0.9428    1.2453 C   0  0  0  0  0  0  0  0  0  0  0  0
    3.0392    2.0895    0.7031 C   0  0  0  0  0  0  0  0  0  0  0  0
    3.6931    3.4271    1.0592 C   0  0  0  0  0  0  0  0  0  0  0  0
    2.8631    4.5674    0.4617 C   0  0  0  0  0  0  0  0  0  0  0  0
    2.7478    4.3615   -1.0518 C   0  0  0  0  0  0  0  0  0  0  0  0
    2.1304    2.9878   -1.3264 C   0  0  0  0  0  0  0  0  0  0  0  0
    2.9343    1.9754   -0.7175 O   0  0  0  0  0  0  0  0  0  0  0  0
    0.8106    2.9407   -0.7806 O   0  0  0  0  0  0  0  0  0  0  0  0
    0.0806    1.8233   -1.0284 C   0  0  0  0  0  0  0  0  0  0  0  0
    0.6316    0.7947   -1.7844 C   0  0  0  0  0  0  0  0  0  0  0  0
   -0.1031   -0.3482   -2.0426 C   0  0  0  0  0  0  0  0  0  0  0  0
   -1.4041   -0.4604   -1.5371 C   0  0  0  0  0  0  0  0  0  0  0  0
   -1.9587    0.5811   -0.7731 C   0  0  0  0  0  0  0  0  0  0  0  0
   -1.2051    1.7164   -0.5205 C   0  0  0  0  0  0  0  0  0  0  0  0
   -3.2143    0.4639   -0.2913 O   0  0  0  0  0  0  0  0  0  0  0  0
   -3.9692   -0.6236   -0.5146 C   0  0  0  0  0  0  0  0  0  0  0  0
   -3.5259   -1.6849   -1.2407 C   0  0  0  0  0  0  0  0  0  0  0  0
   -2.2214   -1.6595   -1.7885 C   0  0  0  0  0  0  0  0  0  0  0  0
   -1.7911   -2.5939   -2.4450 O   0  0  0  0  0  0  0  0  0  0  0  0
   -5.3314   -0.6694    0.0495 C   0  0  0  0  0  0  0  0  0  0  0  0
   -5.8151    0.4055    0.8005 C   0  0  0  0  0  0  0  0  0  0  0  0
   -7.0919    0.3577    1.3261 C   0  0  0  0  0  0  0  0  0  0  0  0
   -7.8942   -0.7609    1.1075 C   0  0  0  0  0  0  0  0  0  0  0  0
   -7.4139   -1.8286    0.3617 C   0  0  0  0  0  0  0  0  0  0  0  0
   -6.1434   -1.7853   -0.1706 C   0  0  0  0  0  0  0  0  0  0  0  0
   -9.1491   -0.8066    1.6259 O   0  0  0  0  0  0  0  0  0  0  0  0
   -7.5657    1.4019    2.0573 O   0  0  0  0  0  0  0  0  0  0  0  0
    0.4327   -1.3531   -2.7806 O   0  0  0  0  0  0  0  0  0  0  0  0
    1.9149    5.3796   -1.6102 O   0  0  0  0  0  0  0  0  0  0  0  0
    1.5586    4.5658    1.0451 O   0  0  0  0  0  0  0  0  0  0  0  0
    3.7466    3.5692    2.4802 O   0  0  0  0  0  0  0  0  0  0  0  0
    2.1329   -2.5424    0.2717 O   0  0  0  0  0  0  0  0  0  0  0  0
    3.8094   -4.3604   -0.4761 C   0  0  0  0  0  0  0  0  0  0  0  0
    4.8245   -5.2901   -0.8599 O   0  0  0  0  0  0  0  0  0  0  0  0
    4.1535   -4.8505    1.8820 O   0  0  0  0  0  0  0  0  0  0  0  0
    5.9879   -3.1632    1.8507 H   0  0  0  0  0  0  0  0  0  0  0  0
    6.1039   -3.4099    0.0812 H   0  0  0  0  0  0  0  0  0  0  0  0
    2.6084   -2.9866    2.2468 H   0  0  0  0  0  0  0  0  0  0  0  0
    4.2228   -1.3111    2.5329 H   0  0  0  0  0  0  0  0  0  0  0  0
    4.0495    1.0796    2.3155 H   0  0  0  0  0  0  0  0  0  0  0  0
    4.8589    0.9369    0.7367 H   0  0  0  0  0  0  0  0  0  0  0  0
    2.0445    2.0417    1.1462 H   0  0  0  0  0  0  0  0  0  0  0  0
    4.7032    3.4590    0.6508 H   0  0  0  0  0  0  0  0  0  0  0  0
    3.3532    5.5199    0.6638 H   0  0  0  0  0  0  0  0  0  0  0  0
    3.7387    4.4123   -1.5029 H   0  0  0  0  0  0  0  0  0  0  0  0
    2.0852    2.8181   -2.4022 H   0  0  0  0  0  0  0  0  0  0  0  0
    1.6355    0.8886   -2.1713 H   0  0  0  0  0  0  0  0  0  0  0  0
   -1.6226    2.5219    0.0655 H   0  0  0  0  0  0  0  0  0  0  0  0
   -4.1647   -2.5416   -1.3971 H   0  0  0  0  0  0  0  0  0  0  0  0
   -5.1922    1.2714    0.9697 H   0  0  0  0  0  0  0  0  0  0  0  0
   -8.0387   -2.6936    0.1949 H   0  0  0  0  0  0  0  0  0  0  0  0
   -5.7723   -2.6174   -0.7505 H   0  0  0  0  0  0  0  0  0  0  0  0
   -9.8299   -0.4482    1.0402 H   0  0  0  0  0  0  0  0  0  0  0  0
   -8.0197    2.0755    1.5327 H   0  0  0  0  0  0  0  0  0  0  0  0
    0.9062   -2.0152   -2.2585 H   0  0  0  0  0  0  0  0  0  0  0  0
    1.7976    5.3107   -2.5675 H   0  0  0  0  0  0  0  0  0  0  0  0
    0.9779    5.2636    0.7120 H   0  0  0  0  0  0  0  0  0  0  0  0
    4.1499    4.3961    2.7779 H   0  0  0  0  0  0  0  0  0  0  0  0
    1.4617   -1.8748    0.4691 H   0  0  0  0  0  0  0  0  0  0  0  0
    2.8442   -4.8662   -0.4511 H   0  0  0  0  0  0  0  0  0  0  0  0
    3.7732   -3.5438   -1.1971 H   0  0  0  0  0  0  0  0  0  0  0  0
    4.6868   -5.6851   -1.7317 H   0  0  0  0  0  0  0  0  0  0  0  0
    4.8246   -5.5260    1.7133 H   0  0  0  0  0  0  0  0  0  0  0  0
  1  2  1  0  0  0  0
  2  3  1  0  0  0  0
  3  4  1  0  0  0  0
  4  5  1  0  0  0  0
  1  5  1  0  0  0  0
  4  6  1  0  0  0  0
  6  7  1  0  0  0  0
  7  8  1  0  0  0  0
  8  9  1  0  0  0  0
  9 10  1  0  0  0  0
 10 11  1  0  0  0  0
 11 12  1  0  0  0  0
 12 13  1  0  0  0  0
  8 13  1  0  0  0  0
 12 14  1  0  0  0  0
 14 15  1  0  0  0  0
 15 16  2  0  0  0  0
 16 17  1  0  0  0  0
 17 18  2  0  0  0  0
 18 19  1  0  0  0  0
 19 20  2  0  0  0  0
 15 20  1  0  0  0  0
 19 21  1  0  0  0  0
 21 22  1  0  0  0  0
 22 23  2  0  0  0  0
 23 24  1  0  0  0  0
 18 24  1  0  0  0  0
 24 25  2  0  0  0  0
 22 26  1  0  0  0  0
 26 27  2  0  0  0  0
 27 28  1  0  0  0  0
 28 29  2  0  0  0  0
 29 30  1  0  0  0  0
 30 31  2  0  0  0  0
 26 31  1  0  0  0  0
 29 32  1  0  0  0  0
 28 33  1  0  0  0  0
 17 34  1  0  0  0  0
 11 35  1  0  0  0  0
 10 36  1  0  0  0  0
  9 37  1  0  0  0  0
  3 38  1  0  0  0  0
  2 39  1  0  0  0  0
 39 40  1  0  0  0  0
  2 41  1  0  0  0  0
  1 42  1  0  0  0  0
  1 43  1  0  0  0  0
  3 44  1  0  0  0  0
  4 45  1  0  0  0  0
  7 46  1  0  0  0  0
  7 47  1  0  0  0  0
  8 48  1  0  0  0  0
  9 49  1  0  0  0  0
 10 50  1  0  0  0  0
 11 51  1  0  0  0  0
 12 52  1  0  0  0  0
 16 53  1  0  0  0  0
 20 54  1  0  0  0  0
 23 55  1  0  0  0  0
 27 56  1  0  0  0  0
 30 57  1  0  0  0  0
 31 58  1  0  0  0  0
 32 59  1  0  0  0  0
 33 60  1  0  0  0  0
 34 61  1  0  0  0  0
 35 62  1  0  0  0  0
 36 63  1  0  0  0  0
 37 64  1  0  0  0  0
 38 65  1  0  0  0  0
 39 66  1  0  0  0  0
 39 67  1  0  0  0  0
 40 68  1  0  0  0  0
 41 69  1  0  0  0  0
M  END
$$$$
