C6H12N2O4S2
APtclcactv06211802233D 0   0.00000     0.00000
 
 26 25  0  0  0  0  0  0  0  0999 V2000
   -1.6901    0.8014   -0.1171 C   0  0  0  0  0  0  0  0  0  0  0  0
   -2.8866   -0.0446    0.3227 C   0  0  0  0  0  0  0  0  0  0  0  0
   -3.9820    0.0609   -0.7070 C   0  0  0  0  0  0  0  0  0  0  0  0
   -4.1342   -0.8202   -1.5196 O   0  0  0  0  0  0  0  0  0  0  0  0
   -4.7885    1.1338   -0.7212 O   0  0  0  0  0  0  0  0  0  0  0  0
   -2.4722   -1.4478    0.4546 N   0  0  0  0  0  0  0  0  0  0  0  0
   -0.4365    0.8034    1.1940 S   0  0  0  0  0  0  0  0  0  0  0  0
    0.4381   -1.0404    0.9985 S   0  0  0  0  0  0  0  0  0  0  0  0
    1.6926   -0.7633   -0.2821 C   0  0  0  0  0  0  0  0  0  0  0  0
    2.8867   -0.0241    0.3252 C   0  0  0  0  0  0  0  0  0  0  0  0
    3.9815    0.0925   -0.7038 C   0  0  0  0  0  0  0  0  0  0  0  0
    4.1300    1.1249   -1.3136 O   0  0  0  0  0  0  0  0  0  0  0  0
    4.7917   -0.9507   -0.9429 O   0  0  0  0  0  0  0  0  0  0  0  0
    2.4676    1.3187    0.7485 N   0  0  0  0  0  0  0  0  0  0  0  0
   -1.2629    0.3811   -1.0276 H   0  0  0  0  0  0  0  0  0  0  0  0
   -2.0181    1.8233   -0.3077 H   0  0  0  0  0  0  0  0  0  0  0  0
   -3.2544    0.3174    1.2828 H   0  0  0  0  0  0  0  0  0  0  0  0
   -5.4766    1.1568   -1.4003 H   0  0  0  0  0  0  0  0  0  0  0  0
   -2.0174   -1.7710   -0.3861 H   0  0  0  0  0  0  0  0  0  0  0  0
   -1.8770   -1.5749    1.2594 H   0  0  0  0  0  0  0  0  0  0  0  0
    2.0234   -1.7225   -0.6803 H   0  0  0  0  0  0  0  0  0  0  0  0
    1.2650   -0.1641   -1.0860 H   0  0  0  0  0  0  0  0  0  0  0  0
    3.2564   -0.5781    1.1880 H   0  0  0  0  0  0  0  0  0  0  0  0
    5.4792   -0.8283   -1.6118 H   0  0  0  0  0  0  0  0  0  0  0  0
    2.0233    1.8146   -0.0096 H   0  0  0  0  0  0  0  0  0  0  0  0
    1.8616    1.2713    1.5538 H   0  0  0  0  0  0  0  0  0  0  0  0
  1  2  1  0  0  0  0
  2  3  1  0  0  0  0
  3  4  2  0  0  0  0
  3  5  1  0  0  0  0
  2  6  1  0  0  0  0
  1  7  1  0  0  0  0
  7  8  1  0  0  0  0
  8  9  1  0  0  0  0
  9 10  1  0  0  0  0
 10 11  1  0  0  0  0
 11 12  2  0  0  0  0
 11 13  1  0  0  0  0
 10 14  1  0  0  0  0
  1 15  1  0  0  0  0
  1 16  1  0  0  0  0
  2 17  1  0  0  0  0
  5 18  1  0  0  0  0
  6 19  1  0  0  0  0
  6 20  1  0  0  0  0
  9 21  1  0  0  0  0
  9 22  1  0  0  0  0
 10 23  1  0  0  0  0
 13 24  1  0  0  0  0
 14 25  1  0  0  0  0
 14 26  1  0  0  0  0
M  END
$$$$
