C3H7NO2
APtclcactv06211804303D 0   0.00000     0.00000
 
 13 12  0  0  0  0  0  0  0  0999 V2000
   -1.2138    1.3517    0.4275 C   0  0  0  0  0  0  0  0  0  0  0  0
   -0.7155    0.1840   -0.4264 C   0  0  0  0  0  0  0  0  0  0  0  0
    0.7126   -0.1309   -0.0624 C   0  0  0  0  0  0  0  0  0  0  0  0
    1.0012   -1.2259    0.3589 O   0  0  0  0  0  0  0  0  0  0  0  0
    1.6639    0.8051   -0.2061 O   0  0  0  0  0  0  0  0  0  0  0  0
   -1.5552   -0.9959   -0.1802 N   0  0  0  0  0  0  0  0  0  0  0  0
   -0.5908    2.2273    0.2448 H   0  0  0  0  0  0  0  0  0  0  0  0
   -2.2467    1.5795    0.1642 H   0  0  0  0  0  0  0  0  0  0  0  0
   -1.1590    1.0803    1.4817 H   0  0  0  0  0  0  0  0  0  0  0  0
   -0.7703    0.4555   -1.4806 H   0  0  0  0  0  0  0  0  0  0  0  0
    2.5652    0.5565    0.0404 H   0  0  0  0  0  0  0  0  0  0  0  0
   -1.4712   -1.3063    0.7762 H   0  0  0  0  0  0  0  0  0  0  0  0
   -2.5183   -0.8101   -0.4168 H   0  0  0  0  0  0  0  0  0  0  0  0
  1  2  1  0  0  0  0
  2  3  1  0  0  0  0
  3  4  2  0  0  0  0
  3  5  1  0  0  0  0
  2  6  1  0  0  0  0
  1  7  1  0  0  0  0
  1  8  1  0  0  0  0
  1  9  1  0  0  0  0
  2 10  1  0  0  0  0
  5 11  1  0  0  0  0
  6 12  1  0  0  0  0
  6 13  1  0  0  0  0
M  END
$$$$
