C3H7NO3
APtclcactv06211804313D 0   0.00000     0.00000
 
 14 13  0  0  0  0  0  0  0  0999 V2000
    1.1906    0.6192   -0.4922 C   0  0  0  0  0  0  0  0  0  0  0  0
    0.2589   -0.1472    0.4489 C   0  0  0  0  0  0  0  0  0  0  0  0
   -1.1713    0.0702    0.0266 C   0  0  0  0  0  0  0  0  0  0  0  0
   -1.7446   -0.7730   -0.6216 O   0  0  0  0  0  0  0  0  0  0  0  0
   -1.8083    1.2005    0.3707 O   0  0  0  0  0  0  0  0  0  0  0  0
    0.5745   -1.5807    0.3901 N   0  0  0  0  0  0  0  0  0  0  0  0
    2.5363    0.5088   -0.0242 O   0  0  0  0  0  0  0  0  0  0  0  0
    1.1192    0.1993   -1.4955 H   0  0  0  0  0  0  0  0  0  0  0  0
    0.8993    1.6693   -0.5162 H   0  0  0  0  0  0  0  0  0  0  0  0
    0.3955    0.2134    1.4685 H   0  0  0  0  0  0  0  0  0  0  0  0
   -2.7248    1.2947    0.0770 H   0  0  0  0  0  0  0  0  0  0  0  0
    0.4554   -1.9390   -0.5456 H   0  0  0  0  0  0  0  0  0  0  0  0
    1.5075   -1.7598    0.7298 H   0  0  0  0  0  0  0  0  0  0  0  0
    3.1831    0.9718   -0.5741 H   0  0  0  0  0  0  0  0  0  0  0  0
  1  2  1  0  0  0  0
  2  3  1  0  0  0  0
  3  4  2  0  0  0  0
  3  5  1  0  0  0  0
  2  6  1  0  0  0  0
  1  7  1  0  0  0  0
  1  8  1  0  0  0  0
  1  9  1  0  0  0  0
  2 10  1  0  0  0  0
  5 11  1  0  0  0  0
  6 12  1  0  0  0  0
  6 13  1  0  0  0  0
  7 14  1  0  0  0  0
M  END
$$$$
