C4H7NO4
APtclcactv06211804363D 0   0.00000     0.00000
 
 16 15  0  0  0  0  0  0  0  0999 V2000
    0.5391    0.5800   -0.4128 C   0  0  0  0  0  0  0  0  0  0  0  0
   -0.4702   -0.2859    0.3440 C   0  0  0  0  0  0  0  0  0  0  0  0
   -1.8681    0.1802    0.0285 C   0  0  0  0  0  0  0  0  0  0  0  0
   -2.5338   -0.4143   -0.7860 O   0  0  0  0  0  0  0  0  0  0  0  0
   -2.3738    1.2558    0.6523 O   0  0  0  0  0  0  0  0  0  0  0  0
   -0.3172   -1.6881   -0.0663 N   0  0  0  0  0  0  0  0  0  0  0  0
    1.9375    0.1951   -0.0037 C   0  0  0  0  0  0  0  0  0  0  0  0
    2.1093   -0.6817    0.8097 O   0  0  0  0  0  0  0  0  0  0  0  0
    2.9922    0.8265   -0.5429 O   0  0  0  0  0  0  0  0  0  0  0  0
    0.4186    0.4253   -1.4850 H   0  0  0  0  0  0  0  0  0  0  0  0
    0.3670    1.6298   -0.1755 H   0  0  0  0  0  0  0  0  0  0  0  0
   -0.2915   -0.1994    1.4158 H   0  0  0  0  0  0  0  0  0  0  0  0
   -3.2747    1.5166    0.4168 H   0  0  0  0  0  0  0  0  0  0  0  0
   -0.9282   -2.2893    0.4659 H   0  0  0  0  0  0  0  0  0  0  0  0
   -0.4779   -1.7946   -1.0567 H   0  0  0  0  0  0  0  0  0  0  0  0
    3.8695    0.5449   -0.2493 H   0  0  0  0  0  0  0  0  0  0  0  0
  1  2  1  0  0  0  0
  2  3  1  0  0  0  0
  3  4  2  0  0  0  0
  3  5  1  0  0  0  0
  2  6  1  0  0  0  0
  1  7  1  0  0  0  0
  7  8  2  0  0  0  0
  7  9  1  0  0  0  0
  1 10  1  0  0  0  0
  1 11  1  0  0  0  0
  2 12  1  0  0  0  0
  5 13  1  0  0  0  0
  6 14  1  0  0  0  0
  6 15  1  0  0  0  0
  9 16  1  0  0  0  0
M  END
$$$$
