C10H12O2
APtclcactv06231803053D 0   0.00000     0.00000
 
 24 24  0  0  0  0  0  0  0  0999 V2000
    4.8826   -0.3555   -0.0062 C   0  0  0  0  0  0  0  0  0  0  0  0
    3.3916   -0.5748   -0.0056 C   0  0  0  0  0  0  0  0  0  0  0  0
    2.5686    0.4648    0.0056 C   0  0  0  0  0  0  0  0  0  0  0  0
    1.1066    0.2498    0.0061 C   0  0  0  0  0  0  0  0  0  0  0  0
    0.2391    1.3429    0.0179 C   0  0  0  0  0  0  0  0  0  0  0  0
   -1.1283    1.1367    0.0184 C   0  0  0  0  0  0  0  0  0  0  0  0
   -1.6369   -0.1599    0.0072 C   0  0  0  0  0  0  0  0  0  0  0  0
   -0.7745   -1.2461   -0.0040 C   0  0  0  0  0  0  0  0  0  0  0  0
    0.5905   -1.0468   -0.0109 C   0  0  0  0  0  0  0  0  0  0  0  0
   -2.9815   -0.3612    0.0078 O   0  0  0  0  0  0  0  0  0  0  0  0
   -3.4345   -1.7164   -0.0041 C   0  0  0  0  0  0  0  0  0  0  0  0
   -1.9764    2.1997    0.0303 O   0  0  0  0  0  0  0  0  0  0  0  0
    5.1689    0.1974    0.8885 H   0  0  0  0  0  0  0  0  0  0  0  0
    5.3916   -1.3193   -0.0161 H   0  0  0  0  0  0  0  0  0  0  0  0
    5.1657    0.2141   -0.8914 H   0  0  0  0  0  0  0  0  0  0  0  0
    2.9934   -1.5786   -0.0143 H   0  0  0  0  0  0  0  0  0  0  0  0
    2.9668    1.4687    0.0142 H   0  0  0  0  0  0  0  0  0  0  0  0
    0.6348    2.3478    0.0269 H   0  0  0  0  0  0  0  0  0  0  0  0
   -1.1725   -2.2500   -0.0123 H   0  0  0  0  0  0  0  0  0  0  0  0
    1.2599   -1.8943   -0.0196 H   0  0  0  0  0  0  0  0  0  0  0  0
   -3.0640   -2.2156   -0.8994 H   0  0  0  0  0  0  0  0  0  0  0  0
   -3.0608   -2.2322    0.8805 H   0  0  0  0  0  0  0  0  0  0  0  0
   -4.5244   -1.7352   -0.0023 H   0  0  0  0  0  0  0  0  0  0  0  0
   -2.2233    2.5157   -0.8496 H   0  0  0  0  0  0  0  0  0  0  0  0
  1  2  1  0  0  0  0
  2  3  2  0  0  0  0
  3  4  1  0  0  0  0
  4  5  2  0  0  0  0
  5  6  1  0  0  0  0
  6  7  2  0  0  0  0
  7  8  1  0  0  0  0
  8  9  2  0  0  0  0
  4  9  1  0  0  0  0
  7 10  1  0  0  0  0
 10 11  1  0  0  0  0
  6 12  1  0  0  0  0
  1 13  1  0  0  0  0
  1 14  1  0  0  0  0
  1 15  1  0  0  0  0
  2 16  1  0  0  0  0
  3 17  1  0  0  0  0
  5 18  1  0  0  0  0
  8 19  1  0  0  0  0
  9 20  1  0  0  0  0
 11 21  1  0  0  0  0
 11 22  1  0  0  0  0
 11 23  1  0  0  0  0
 12 24  1  0  0  0  0
M  END
$$$$
