C4H5NS
APtclcactv06211804363D 0   0.00000     0.00000
 
 11 10  0  0  0  0  0  0  0  0999 V2000
    3.4511   -0.1307   -0.0584 C   0  0  0  0  0  0  0  0  0  0  0  0
    2.2028   -0.5279   -0.0458 C   0  0  0  0  0  0  0  0  0  0  0  0
    1.1333    0.3663    0.5265 C   0  0  0  0  0  0  0  0  0  0  0  0
    0.0818    0.5713   -0.4728 N   0  0  0  0  0  0  0  0  0  0  0  0
   -1.0921    0.2202   -0.2257 C   0  0  0  0  0  0  0  0  0  0  0  0
   -2.5512   -0.2162    0.0813 S   0  0  0  0  0  0  0  0  0  0  0  0
    3.7138    0.8375    0.3414 H   0  0  0  0  0  0  0  0  0  0  0  0
    4.2182   -0.7734   -0.4645 H   0  0  0  0  0  0  0  0  0  0  0  0
    1.9402   -1.4962   -0.4456 H   0  0  0  0  0  0  0  0  0  0  0  0
    0.7055   -0.1008    1.4136 H   0  0  0  0  0  0  0  0  0  0  0  0
    1.5700    1.3278    0.7969 H   0  0  0  0  0  0  0  0  0  0  0  0
  1  2  2  0  0  0  0
  2  3  1  0  0  0  0
  3  4  1  0  0  0  0
  4  5  2  0  0  0  0
  5  6  2  0  0  0  0
  1  7  1  0  0  0  0
  1  8  1  0  0  0  0
  2  9  1  0  0  0  0
  3 10  1  0  0  0  0
  3 11  1  0  0  0  0
M  END
$$$$
