C30H38O10
APtclcactv06291802543D 0   0.00000     0.00000
 
 78 80  0  0  0  0  0  0  0  0999 V2000
    7.3530    3.6082   -0.3603 C   0  0  0  0  0  0  0  0  0  0  0  0
    8.3127    2.5658   -0.5461 O   0  0  0  0  0  0  0  0  0  0  0  0
    7.8315    1.3022   -0.6909 C   0  0  0  0  0  0  0  0  0  0  0  0
    8.7095    0.2385   -0.8756 C   0  0  0  0  0  0  0  0  0  0  0  0
    8.2142   -1.0472   -1.0227 C   0  0  0  0  0  0  0  0  0  0  0  0
    6.8506   -1.2710   -0.9859 C   0  0  0  0  0  0  0  0  0  0  0  0
    5.9782   -0.2142   -0.8029 C   0  0  0  0  0  0  0  0  0  0  0  0
    6.4660    1.0701   -0.6493 C   0  0  0  0  0  0  0  0  0  0  0  0
    4.4925   -0.4638   -0.7641 C   0  0  0  0  0  0  0  0  0  0  0  0
    4.0590   -0.7384    0.6773 C   0  0  0  0  0  0  0  0  0  0  0  0
    4.2809    0.5162    1.5244 C   0  0  0  0  0  0  0  0  0  0  0  0
    3.9742    0.2291    2.8903 O   0  0  0  0  0  0  0  0  0  0  0  0
    2.5760   -1.1141    0.7011 C   0  0  0  0  0  0  0  0  0  0  0  0
    1.7644   -0.0326   -0.0149 C   0  0  0  0  0  0  0  0  0  0  0  0
    0.2946   -0.3392    0.1146 C   0  0  0  0  0  0  0  0  0  0  0  0
   -0.4218    0.1584    1.1870 C   0  0  0  0  0  0  0  0  0  0  0  0
   -1.7733   -0.1226    1.3076 C   0  0  0  0  0  0  0  0  0  0  0  0
   -2.4063   -0.9060    0.3474 C   0  0  0  0  0  0  0  0  0  0  0  0
   -1.6823   -1.4016   -0.7251 C   0  0  0  0  0  0  0  0  0  0  0  0
   -0.3355   -1.1129   -0.8424 C   0  0  0  0  0  0  0  0  0  0  0  0
   -3.7324   -1.1849    0.4616 O   0  0  0  0  0  0  0  0  0  0  0  0
   -4.3395   -1.9026   -0.6147 C   0  0  0  0  0  0  0  0  0  0  0  0
   -4.1991   -3.4061   -0.3684 C   0  0  0  0  0  0  0  0  0  0  0  0
   -4.9437   -3.7696    0.7958 O   0  0  0  0  0  0  0  0  0  0  0  0
   -5.8224   -1.5360   -0.6999 C   0  0  0  0  0  0  0  0  0  0  0  0
   -5.9607   -0.0551   -0.9425 C   0  0  0  0  0  0  0  0  0  0  0  0
   -6.1484    0.8040    0.1242 C   0  0  0  0  0  0  0  0  0  0  0  0
   -6.2756    2.1659   -0.0971 C   0  0  0  0  0  0  0  0  0  0  0  0
   -6.2141    2.6656   -1.3944 C   0  0  0  0  0  0  0  0  0  0  0  0
   -6.0258    1.7991   -2.4591 C   0  0  0  0  0  0  0  0  0  0  0  0
   -5.8939    0.4420   -2.2309 C   0  0  0  0  0  0  0  0  0  0  0  0
   -6.3389    4.0014   -1.6167 O   0  0  0  0  0  0  0  0  0  0  0  0
   -6.4608    3.0123    0.9511 O   0  0  0  0  0  0  0  0  0  0  0  0
   -6.5143    2.4288    2.2545 C   0  0  0  0  0  0  0  0  0  0  0  0
   -6.4295   -2.2537   -1.7762 O   0  0  0  0  0  0  0  0  0  0  0  0
   -2.4794    0.3658    2.3623 O   0  0  0  0  0  0  0  0  0  0  0  0
   -1.7641    1.1619    3.3091 C   0  0  0  0  0  0  0  0  0  0  0  0
    2.3780   -2.4546   -0.0094 C   0  0  0  0  0  0  0  0  0  0  0  0
    3.0747   -3.4788    0.7031 O   0  0  0  0  0  0  0  0  0  0  0  0
   10.0507    0.4605   -0.9120 O   0  0  0  0  0  0  0  0  0  0  0  0
    6.6860    3.6457   -1.2216 H   0  0  0  0  0  0  0  0  0  0  0  0
    6.7722    3.4109    0.5407 H   0  0  0  0  0  0  0  0  0  0  0  0
    7.8687    4.5630   -0.2583 H   0  0  0  0  0  0  0  0  0  0  0  0
    8.8936   -1.8744   -1.1665 H   0  0  0  0  0  0  0  0  0  0  0  0
    6.4658   -2.2736   -1.1007 H   0  0  0  0  0  0  0  0  0  0  0  0
    5.7824    1.8939   -0.5065 H   0  0  0  0  0  0  0  0  0  0  0  0
    3.9667    0.4135   -1.1407 H   0  0  0  0  0  0  0  0  0  0  0  0
    4.2526   -1.3261   -1.3862 H   0  0  0  0  0  0  0  0  0  0  0  0
    4.6485   -1.5602    1.0837 H   0  0  0  0  0  0  0  0  0  0  0  0
    5.3218    0.8295    1.4439 H   0  0  0  0  0  0  0  0  0  0  0  0
    3.6321    1.3156    1.1666 H   0  0  0  0  0  0  0  0  0  0  0  0
    4.0928    0.9811    3.4865 H   0  0  0  0  0  0  0  0  0  0  0  0
    2.2388   -1.1972    1.7342 H   0  0  0  0  0  0  0  0  0  0  0  0
    1.9743    0.9374    0.4358 H   0  0  0  0  0  0  0  0  0  0  0  0
    2.0394   -0.0104   -1.0695 H   0  0  0  0  0  0  0  0  0  0  0  0
    0.0719    0.7659    1.9311 H   0  0  0  0  0  0  0  0  0  0  0  0
   -2.1712   -2.0099   -1.4717 H   0  0  0  0  0  0  0  0  0  0  0  0
    0.2276   -1.4998   -1.6788 H   0  0  0  0  0  0  0  0  0  0  0  0
   -3.8460   -1.6401   -1.5505 H   0  0  0  0  0  0  0  0  0  0  0  0
   -4.5822   -3.9527   -1.2301 H   0  0  0  0  0  0  0  0  0  0  0  0
   -3.1480   -3.6533   -0.2194 H   0  0  0  0  0  0  0  0  0  0  0  0
   -4.8999   -4.7110    1.0126 H   0  0  0  0  0  0  0  0  0  0  0  0
   -6.3159   -1.7985    0.2358 H   0  0  0  0  0  0  0  0  0  0  0  0
   -6.1961    0.4136    1.1301 H   0  0  0  0  0  0  0  0  0  0  0  0
   -5.9777    2.1843   -3.4669 H   0  0  0  0  0  0  0  0  0  0  0  0
   -5.7472   -0.2323   -3.0616 H   0  0  0  0  0  0  0  0  0  0  0  0
   -5.5002    4.4825   -1.6031 H   0  0  0  0  0  0  0  0  0  0  0  0
   -7.3405    1.7195    2.3014 H   0  0  0  0  0  0  0  0  0  0  0  0
   -5.5778    1.9098    2.4589 H   0  0  0  0  0  0  0  0  0  0  0  0
   -6.6652    3.2121    2.9973 H   0  0  0  0  0  0  0  0  0  0  0  0
   -6.0397   -2.0687   -2.6416 H   0  0  0  0  0  0  0  0  0  0  0  0
   -0.9578    0.5717    3.7446 H   0  0  0  0  0  0  0  0  0  0  0  0
   -1.3456    2.0345    2.8076 H   0  0  0  0  0  0  0  0  0  0  0  0
   -2.4432    1.4868    4.0974 H   0  0  0  0  0  0  0  0  0  0  0  0
    1.3152   -2.6942   -0.0435 H   0  0  0  0  0  0  0  0  0  0  0  0
    2.7684   -2.3887   -1.0250 H   0  0  0  0  0  0  0  0  0  0  0  0
    2.9929   -4.3578    0.3084 H   0  0  0  0  0  0  0  0  0  0  0  0
   10.4816    0.4083   -0.0479 H   0  0  0  0  0  0  0  0  0  0  0  0
  1  2  1  0  0  0  0
  2  3  1  0  0  0  0
  3  4  2  0  0  0  0
  4  5  1  0  0  0  0
  5  6  2  0  0  0  0
  6  7  1  0  0  0  0
  7  8  2  0  0  0  0
  3  8  1  0  0  0  0
  7  9  1  0  0  0  0
  9 10  1  0  0  0  0
 10 11  1  0  0  0  0
 11 12  1  0  0  0  0
 10 13  1  0  0  0  0
 13 14  1  0  0  0  0
 14 15  1  0  0  0  0
 15 16  2  0  0  0  0
 16 17  1  0  0  0  0
 17 18  2  0  0  0  0
 18 19  1  0  0  0  0
 19 20  2  0  0  0  0
 15 20  1  0  0  0  0
 18 21  1  0  0  0  0
 21 22  1  0  0  0  0
 22 23  1  0  0  0  0
 23 24  1  0  0  0  0
 22 25  1  0  0  0  0
 25 26  1  0  0  0  0
 26 27  2  0  0  0  0
 27 28  1  0  0  0  0
 28 29  2  0  0  0  0
 29 30  1  0  0  0  0
 30 31  2  0  0  0  0
 26 31  1  0  0  0  0
 29 32  1  0  0  0  0
 28 33  1  0  0  0  0
 33 34  1  0  0  0  0
 25 35  1  0  0  0  0
 17 36  1  0  0  0  0
 36 37  1  0  0  0  0
 13 38  1  0  0  0  0
 38 39  1  0  0  0  0
  4 40  1  0  0  0  0
  1 41  1  0  0  0  0
  1 42  1  0  0  0  0
  1 43  1  0  0  0  0
  5 44  1  0  0  0  0
  6 45  1  0  0  0  0
  8 46  1  0  0  0  0
  9 47  1  0  0  0  0
  9 48  1  0  0  0  0
 10 49  1  0  0  0  0
 11 50  1  0  0  0  0
 11 51  1  0  0  0  0
 12 52  1  0  0  0  0
 13 53  1  0  0  0  0
 14 54  1  0  0  0  0
 14 55  1  0  0  0  0
 16 56  1  0  0  0  0
 19 57  1  0  0  0  0
 20 58  1  0  0  0  0
 22 59  1  0  0  0  0
 23 60  1  0  0  0  0
 23 61  1  0  0  0  0
 24 62  1  0  0  0  0
 25 63  1  0  0  0  0
 27 64  1  0  0  0  0
 30 65  1  0  0  0  0
 31 66  1  0  0  0  0
 32 67  1  0  0  0  0
 34 68  1  0  0  0  0
 34 69  1  0  0  0  0
 34 70  1  0  0  0  0
 35 71  1  0  0  0  0
 37 72  1  0  0  0  0
 37 73  1  0  0  0  0
 37 74  1  0  0  0  0
 38 75  1  0  0  0  0
 38 76  1  0  0  0  0
 39 77  1  0  0  0  0
 40 78  1  0  0  0  0
M  END
$$$$
