C12H22O11
APtclcactv06211804333D 0   0.00000     0.00000
 
 45 46  0  0  0  0  0  0  0  0999 V2000
   -3.6991    1.5484   -0.5375 C   0  0  0  0  0  0  0  0  0  0  0  0
   -2.6936    0.4806   -0.1021 C   0  0  0  0  0  0  0  0  0  0  0  0
   -3.4303   -0.8336    0.1701 C   0  0  0  0  0  0  0  0  0  0  0  0
   -2.4107   -1.9129    0.5468 C   0  0  0  0  0  0  0  0  0  0  0  0
   -1.3833   -2.0453   -0.5815 C   0  0  0  0  0  0  0  0  0  0  0  0
   -0.7257   -0.6843   -0.8246 C   0  0  0  0  0  0  0  0  0  0  0  0
   -1.7320    0.2800   -1.1400 O   0  0  0  0  0  0  0  0  0  0  0  0
   -0.0265   -0.2758    0.3528 O   0  0  0  0  0  0  0  0  0  0  0  0
    0.9901    0.7001    0.1159 C   0  0  0  0  0  0  0  0  0  0  0  0
    1.7728    0.9879    1.4163 C   0  0  0  0  0  0  0  0  0  0  0  0
    3.0004    0.0535    1.3302 C   0  0  0  0  0  0  0  0  0  0  0  0
    2.8142   -0.6882   -0.0120 C   0  0  0  0  0  0  0  0  0  0  0  0
    1.9779    0.1842   -0.8028 O   0  0  0  0  0  0  0  0  0  0  0  0
    4.1660   -0.8958   -0.6978 C   0  0  0  0  0  0  0  0  0  0  0  0
    3.9861   -1.6832   -1.8767 O   0  0  0  0  0  0  0  0  0  0  0  0
    4.2094    0.8152    1.3179 O   0  0  0  0  0  0  0  0  0  0  0  0
    2.1862    2.3551    1.4597 O   0  0  0  0  0  0  0  0  0  0  0  0
    0.3728    1.9890   -0.4305 C   0  0  0  0  0  0  0  0  0  0  0  0
   -0.1537    1.7484   -1.7370 O   0  0  0  0  0  0  0  0  0  0  0  0
   -0.3855   -2.9981   -0.2094 O   0  0  0  0  0  0  0  0  0  0  0  0
   -1.7469   -1.5419    1.7567 O   0  0  0  0  0  0  0  0  0  0  0  0
   -4.3517   -0.6504    1.2468 O   0  0  0  0  0  0  0  0  0  0  0  0
   -3.0284    2.8013   -0.6873 O   0  0  0  0  0  0  0  0  0  0  0  0
   -4.1466    1.2599   -1.4885 H   0  0  0  0  0  0  0  0  0  0  0  0
   -4.4795    1.6421    0.2177 H   0  0  0  0  0  0  0  0  0  0  0  0
   -2.1862    0.8075    0.8055 H   0  0  0  0  0  0  0  0  0  0  0  0
   -3.9712   -1.1401   -0.7253 H   0  0  0  0  0  0  0  0  0  0  0  0
   -2.9226   -2.8649    0.6874 H   0  0  0  0  0  0  0  0  0  0  0  0
   -1.8828   -2.3763   -1.4920 H   0  0  0  0  0  0  0  0  0  0  0  0
   -0.0243   -0.7627   -1.6553 H   0  0  0  0  0  0  0  0  0  0  0  0
    1.1670    0.7431    2.2888 H   0  0  0  0  0  0  0  0  0  0  0  0
    3.0015   -0.6531    2.1602 H   0  0  0  0  0  0  0  0  0  0  0  0
    2.3184   -1.6455    0.1491 H   0  0  0  0  0  0  0  0  0  0  0  0
    4.5887    0.0718   -0.9682 H   0  0  0  0  0  0  0  0  0  0  0  0
    4.8436   -1.4108   -0.0168 H   0  0  0  0  0  0  0  0  0  0  0  0
    4.8038   -1.8550   -2.3635 H   0  0  0  0  0  0  0  0  0  0  0  0
    5.0120    0.2783    1.2648 H   0  0  0  0  0  0  0  0  0  0  0  0
    2.6823    2.5909    2.2556 H   0  0  0  0  0  0  0  0  0  0  0  0
   -0.4300    2.3159    0.2303 H   0  0  0  0  0  0  0  0  0  0  0  0
    1.1376    2.7638   -0.4840 H   0  0  0  0  0  0  0  0  0  0  0  0
   -0.4922    2.5403   -2.1766 H   0  0  0  0  0  0  0  0  0  0  0  0
    0.2991   -3.1326   -0.8789 H   0  0  0  0  0  0  0  0  0  0  0  0
   -1.0860   -2.1817    2.0548 H   0  0  0  0  0  0  0  0  0  0  0  0
   -4.8544   -1.4447    1.4738 H   0  0  0  0  0  0  0  0  0  0  0  0
   -3.6061    3.5263   -0.9624 H   0  0  0  0  0  0  0  0  0  0  0  0
  1  2  1  0  0  0  0
  2  3  1  0  0  0  0
  3  4  1  0  0  0  0
  4  5  1  0  0  0  0
  5  6  1  0  0  0  0
  6  7  1  0  0  0  0
  2  7  1  0  0  0  0
  6  8  1  0  0  0  0
  8  9  1  0  0  0  0
  9 10  1  0  0  0  0
 10 11  1  0  0  0  0
 11 12  1  0  0  0  0
 12 13  1  0  0  0  0
  9 13  1  0  0  0  0
 12 14  1  0  0  0  0
 14 15  1  0  0  0  0
 11 16  1  0  0  0  0
 10 17  1  0  0  0  0
  9 18  1  0  0  0  0
 18 19  1  0  0  0  0
  5 20  1  0  0  0  0
  4 21  1  0  0  0  0
  3 22  1  0  0  0  0
  1 23  1  0  0  0  0
  1 24  1  0  0  0  0
  1 25  1  0  0  0  0
  2 26  1  0  0  0  0
  3 27  1  0  0  0  0
  4 28  1  0  0  0  0
  5 29  1  0  0  0  0
  6 30  1  0  0  0  0
 10 31  1  0  0  0  0
 11 32  1  0  0  0  0
 12 33  1  0  0  0  0
 14 34  1  0  0  0  0
 14 35  1  0  0  0  0
 15 36  1  0  0  0  0
 16 37  1  0  0  0  0
 17 38  1  0  0  0  0
 18 39  1  0  0  0  0
 18 40  1  0  0  0  0
 19 41  1  0  0  0  0
 20 42  1  0  0  0  0
 21 43  1  0  0  0  0
 22 44  1  0  0  0  0
 23 45  1  0  0  0  0
M  END
$$$$
