C19H21NO4
APtclcactv06231803053D 0   0.00000     0.00000
 
 45 48  0  0  0  0  0  0  0  0999 V2000
   -6.6503    0.4675    0.7252 C   0  0  0  0  0  0  0  0  0  0  0  0
   -5.8605   -0.6346    0.2739 O   0  0  0  0  0  0  0  0  0  0  0  0
   -4.5338   -0.4058    0.0816 C   0  0  0  0  0  0  0  0  0  0  0  0
   -3.7028   -1.4321   -0.3570 C   0  0  0  0  0  0  0  0  0  0  0  0
   -2.3547   -1.1898   -0.5493 C   0  0  0  0  0  0  0  0  0  0  0  0
   -1.8247    0.0710   -0.3081 C   0  0  0  0  0  0  0  0  0  0  0  0
   -0.3491    0.2726   -0.5340 C   0  0  0  0  0  0  0  0  0  0  0  0
    0.4093   -0.8813    0.1297 C   0  0  0  0  0  0  0  0  0  0  0  0
    1.8910   -0.6122    0.1052 C   0  0  0  0  0  0  0  0  0  0  0  0
    2.7587   -1.6718    0.3243 C   0  0  0  0  0  0  0  0  0  0  0  0
    4.1273   -1.4687    0.3158 C   0  0  0  0  0  0  0  0  0  0  0  0
    4.6329   -0.1926    0.0864 C   0  0  0  0  0  0  0  0  0  0  0  0
    3.7629    0.8604   -0.1335 C   0  0  0  0  0  0  0  0  0  0  0  0
    2.3912    0.6515   -0.1270 C   0  0  0  0  0  0  0  0  0  0  0  0
    1.4870    1.8265   -0.3861 C   0  0  0  0  0  0  0  0  0  0  0  0
    0.1145    1.5352    0.0517 N   0  0  0  0  0  0  0  0  0  0  0  0
   -0.7766    2.6456   -0.3192 C   0  0  0  0  0  0  0  0  0  0  0  0
   -2.1147    2.4684    0.3973 C   0  0  0  0  0  0  0  0  0  0  0  0
   -2.6503    1.0857    0.1251 C   0  0  0  0  0  0  0  0  0  0  0  0
   -4.0030    0.8508    0.3155 C   0  0  0  0  0  0  0  0  0  0  0  0
    5.9764    0.0184    0.0781 O   0  0  0  0  0  0  0  0  0  0  0  0
    6.4218    1.3544   -0.1640 C   0  0  0  0  0  0  0  0  0  0  0  0
    4.9742   -2.5108    0.5308 O   0  0  0  0  0  0  0  0  0  0  0  0
   -4.2143   -2.6695   -0.5953 O   0  0  0  0  0  0  0  0  0  0  0  0
   -6.5952    1.2764   -0.0034 H   0  0  0  0  0  0  0  0  0  0  0  0
   -7.6869    0.1498    0.8376 H   0  0  0  0  0  0  0  0  0  0  0  0
   -6.2712    0.8170    1.6855 H   0  0  0  0  0  0  0  0  0  0  0  0
   -1.7097   -1.9866   -0.8890 H   0  0  0  0  0  0  0  0  0  0  0  0
   -0.1429    0.2741   -1.6043 H   0  0  0  0  0  0  0  0  0  0  0  0
    0.0779   -0.9842    1.1630 H   0  0  0  0  0  0  0  0  0  0  0  0
    0.2014   -1.8065   -0.4078 H   0  0  0  0  0  0  0  0  0  0  0  0
    2.3638   -2.6610    0.5031 H   0  0  0  0  0  0  0  0  0  0  0  0
    4.1539    1.8514   -0.3108 H   0  0  0  0  0  0  0  0  0  0  0  0
    1.8611    2.6938    0.1578 H   0  0  0  0  0  0  0  0  0  0  0  0
    1.4831    2.0476   -1.4535 H   0  0  0  0  0  0  0  0  0  0  0  0
   -0.3250    3.5915   -0.0202 H   0  0  0  0  0  0  0  0  0  0  0  0
   -0.9366    2.6405   -1.3974 H   0  0  0  0  0  0  0  0  0  0  0  0
   -1.9724    2.5978    1.4702 H   0  0  0  0  0  0  0  0  0  0  0  0
   -2.8236    3.2115    0.0322 H   0  0  0  0  0  0  0  0  0  0  0  0
   -4.6453    1.6513    0.6517 H   0  0  0  0  0  0  0  0  0  0  0  0
    7.5112    1.3835   -0.1439 H   0  0  0  0  0  0  0  0  0  0  0  0
    6.0674    1.6842   -1.1406 H   0  0  0  0  0  0  0  0  0  0  0  0
    6.0264    2.0147    0.6079 H   0  0  0  0  0  0  0  0  0  0  0  0
    5.2380   -2.9760   -0.2749 H   0  0  0  0  0  0  0  0  0  0  0  0
   -4.5231   -2.7994   -1.5024 H   0  0  0  0  0  0  0  0  0  0  0  0
  1  2  1  0  0  0  0
  2  3  1  0  0  0  0
  3  4  2  0  0  0  0
  4  5  1  0  0  0  0
  5  6  2  0  0  0  0
  6  7  1  0  0  0  0
  7  8  1  0  0  0  0
  8  9  1  0  0  0  0
  9 10  2  0  0  0  0
 10 11  1  0  0  0  0
 11 12  2  0  0  0  0
 12 13  1  0  0  0  0
 13 14  2  0  0  0  0
  9 14  1  0  0  0  0
 14 15  1  0  0  0  0
 15 16  1  0  0  0  0
  7 16  1  0  0  0  0
 16 17  1  0  0  0  0
 17 18  1  0  0  0  0
 18 19  1  0  0  0  0
  6 19  1  0  0  0  0
 19 20  2  0  0  0  0
  3 20  1  0  0  0  0
 12 21  1  0  0  0  0
 21 22  1  0  0  0  0
 11 23  1  0  0  0  0
  4 24  1  0  0  0  0
  1 25  1  0  0  0  0
  1 26  1  0  0  0  0
  1 27  1  0  0  0  0
  5 28  1  0  0  0  0
  7 29  1  0  0  0  0
  8 30  1  0  0  0  0
  8 31  1  0  0  0  0
 10 32  1  0  0  0  0
 13 33  1  0  0  0  0
 15 34  1  0  0  0  0
 15 35  1  0  0  0  0
 17 36  1  0  0  0  0
 17 37  1  0  0  0  0
 18 38  1  0  0  0  0
 18 39  1  0  0  0  0
 20 40  1  0  0  0  0
 22 41  1  0  0  0  0
 22 42  1  0  0  0  0
 22 43  1  0  0  0  0
 23 44  1  0  0  0  0
 24 45  1  0  0  0  0
M  END
$$$$
