C26H28O14
APtclcactv06291802543D 0   0.00000     0.00000
 
 68 72  0  0  0  0  0  0  0  0999 V2000
    6.2919    2.4387    0.1114 C   0  0  0  0  0  0  0  0  0  0  0  0
    6.5733    1.2294   -0.7826 C   0  0  0  0  0  0  0  0  0  0  0  0
    7.8575    0.5382   -0.3171 C   0  0  0  0  0  0  0  0  0  0  0  0
    7.6620    0.0239    1.1125 C   0  0  0  0  0  0  0  0  0  0  0  0
    6.4520   -0.9149    1.1446 C   0  0  0  0  0  0  0  0  0  0  0  0
    5.2221   -0.1675    0.6227 C   0  0  0  0  0  0  0  0  0  0  0  0
    5.4820    0.3105   -0.6987 O   0  0  0  0  0  0  0  0  0  0  0  0
    4.1014   -1.0538    0.5969 O   0  0  0  0  0  0  0  0  0  0  0  0
    2.9008   -0.5194    0.2563 C   0  0  0  0  0  0  0  0  0  0  0  0
    2.8110    0.8349   -0.0465 C   0  0  0  0  0  0  0  0  0  0  0  0
    1.5935    1.3896   -0.3952 C   0  0  0  0  0  0  0  0  0  0  0  0
    0.4531    0.5773   -0.4407 C   0  0  0  0  0  0  0  0  0  0  0  0
    0.5467   -0.7917   -0.1341 C   0  0  0  0  0  0  0  0  0  0  0  0
    1.7775   -1.3303    0.2082 C   0  0  0  0  0  0  0  0  0  0  0  0
   -0.5568   -1.5672   -0.1800 O   0  0  0  0  0  0  0  0  0  0  0  0
   -1.7645   -1.0795   -0.5121 C   0  0  0  0  0  0  0  0  0  0  0  0
   -1.9620    0.2314   -0.8267 C   0  0  0  0  0  0  0  0  0  0  0  0
   -0.8619    1.1275   -0.8064 C   0  0  0  0  0  0  0  0  0  0  0  0
   -1.0009    2.3086   -1.0820 O   0  0  0  0  0  0  0  0  0  0  0  0
   -3.2043    0.6778   -1.1576 O   0  0  0  0  0  0  0  0  0  0  0  0
   -3.8202    1.6056   -0.2621 C   0  0  0  0  0  0  0  0  0  0  0  0
   -5.0821    2.2069   -0.9173 C   0  0  0  0  0  0  0  0  0  0  0  0
   -6.0729    2.2747    0.2768 C   0  0  0  0  0  0  0  0  0  0  0  0
   -5.6595    1.0121    1.0741 C   0  0  0  0  0  0  0  0  0  0  0  0
   -4.2326    0.9287    0.9310 O   0  0  0  0  0  0  0  0  0  0  0  0
   -6.0371    1.1679    2.5485 C   0  0  0  0  0  0  0  0  0  0  0  0
   -5.7551   -0.0485    3.2435 O   0  0  0  0  0  0  0  0  0  0  0  0
   -5.8696    3.4604    1.0480 O   0  0  0  0  0  0  0  0  0  0  0  0
   -4.8149    3.5132   -1.4312 O   0  0  0  0  0  0  0  0  0  0  0  0
   -2.9182   -1.9973   -0.5374 C   0  0  0  0  0  0  0  0  0  0  0  0
   -3.7828   -2.0064   -1.6358 C   0  0  0  0  0  0  0  0  0  0  0  0
   -4.8591   -2.8658   -1.6554 C   0  0  0  0  0  0  0  0  0  0  0  0
   -5.0863   -3.7225   -0.5852 C   0  0  0  0  0  0  0  0  0  0  0  0
   -4.2295   -3.7170    0.5087 C   0  0  0  0  0  0  0  0  0  0  0  0
   -3.1474   -2.8650    0.5343 C   0  0  0  0  0  0  0  0  0  0  0  0
   -6.1491   -4.5675   -0.6084 O   0  0  0  0  0  0  0  0  0  0  0  0
    1.5039    2.7111   -0.6906 O   0  0  0  0  0  0  0  0  0  0  0  0
    6.7073   -2.0513    0.3167 O   0  0  0  0  0  0  0  0  0  0  0  0
    8.8297   -0.6868    1.5287 O   0  0  0  0  0  0  0  0  0  0  0  0
    8.1500   -0.5597   -1.1837 O   0  0  0  0  0  0  0  0  0  0  0  0
    7.1248    3.1390    0.0481 H   0  0  0  0  0  0  0  0  0  0  0  0
    5.3775    2.9307   -0.2201 H   0  0  0  0  0  0  0  0  0  0  0  0
    6.1729    2.1079    1.1432 H   0  0  0  0  0  0  0  0  0  0  0  0
    6.6919    1.5600   -1.8145 H   0  0  0  0  0  0  0  0  0  0  0  0
    8.6826    1.2501   -0.3384 H   0  0  0  0  0  0  0  0  0  0  0  0
    7.4880    0.8660    1.7823 H   0  0  0  0  0  0  0  0  0  0  0  0
    6.2720   -1.2422    2.1686 H   0  0  0  0  0  0  0  0  0  0  0  0
    5.0039    0.6757    1.2780 H   0  0  0  0  0  0  0  0  0  0  0  0
    3.6945    1.4550   -0.0090 H   0  0  0  0  0  0  0  0  0  0  0  0
    1.8598   -2.3808    0.4450 H   0  0  0  0  0  0  0  0  0  0  0  0
   -3.1178    2.4012   -0.0134 H   0  0  0  0  0  0  0  0  0  0  0  0
   -5.4626    1.5511   -1.7003 H   0  0  0  0  0  0  0  0  0  0  0  0
   -7.1055    2.2029   -0.0650 H   0  0  0  0  0  0  0  0  0  0  0  0
   -6.1344    0.1262    0.6526 H   0  0  0  0  0  0  0  0  0  0  0  0
   -5.4582    1.9801    2.9881 H   0  0  0  0  0  0  0  0  0  0  0  0
   -7.1003    1.3944    2.6293 H   0  0  0  0  0  0  0  0  0  0  0  0
   -5.9704   -0.0220    4.1859 H   0  0  0  0  0  0  0  0  0  0  0  0
   -5.9532    4.2791    0.5402 H   0  0  0  0  0  0  0  0  0  0  0  0
   -4.1363    3.5338   -2.1198 H   0  0  0  0  0  0  0  0  0  0  0  0
   -3.6074   -1.3403   -2.4677 H   0  0  0  0  0  0  0  0  0  0  0  0
   -5.5276   -2.8735   -2.5035 H   0  0  0  0  0  0  0  0  0  0  0  0
   -4.4101   -4.3843    1.3384 H   0  0  0  0  0  0  0  0  0  0  0  0
   -2.4818   -2.8616    1.3848 H   0  0  0  0  0  0  0  0  0  0  0  0
   -5.9579   -5.4292   -1.0032 H   0  0  0  0  0  0  0  0  0  0  0  0
    1.6397    2.9151   -1.6260 H   0  0  0  0  0  0  0  0  0  0  0  0
    5.9812   -2.6895    0.2899 H   0  0  0  0  0  0  0  0  0  0  0  0
    8.7752   -1.0412    2.4268 H   0  0  0  0  0  0  0  0  0  0  0  0
    8.2813   -0.3072   -2.1079 H   0  0  0  0  0  0  0  0  0  0  0  0
  1  2  1  0  0  0  0
  2  3  1  0  0  0  0
  3  4  1  0  0  0  0
  4  5  1  0  0  0  0
  5  6  1  0  0  0  0
  6  7  1  0  0  0  0
  2  7  1  0  0  0  0
  6  8  1  0  0  0  0
  8  9  1  0  0  0  0
  9 10  2  0  0  0  0
 10 11  1  0  0  0  0
 11 12  2  0  0  0  0
 12 13  1  0  0  0  0
 13 14  2  0  0  0  0
  9 14  1  0  0  0  0
 13 15  1  0  0  0  0
 15 16  1  0  0  0  0
 16 17  2  0  0  0  0
 17 18  1  0  0  0  0
 12 18  1  0  0  0  0
 18 19  2  0  0  0  0
 17 20  1  0  0  0  0
 20 21  1  0  0  0  0
 21 22  1  0  0  0  0
 22 23  1  0  0  0  0
 23 24  1  0  0  0  0
 24 25  1  0  0  0  0
 21 25  1  0  0  0  0
 24 26  1  0  0  0  0
 26 27  1  0  0  0  0
 23 28  1  0  0  0  0
 22 29  1  0  0  0  0
 16 30  1  0  0  0  0
 30 31  2  0  0  0  0
 31 32  1  0  0  0  0
 32 33  2  0  0  0  0
 33 34  1  0  0  0  0
 34 35  2  0  0  0  0
 30 35  1  0  0  0  0
 33 36  1  0  0  0  0
 11 37  1  0  0  0  0
  5 38  1  0  0  0  0
  4 39  1  0  0  0  0
  3 40  1  0  0  0  0
  1 41  1  0  0  0  0
  1 42  1  0  0  0  0
  1 43  1  0  0  0  0
  2 44  1  0  0  0  0
  3 45  1  0  0  0  0
  4 46  1  0  0  0  0
  5 47  1  0  0  0  0
  6 48  1  0  0  0  0
 10 49  1  0  0  0  0
 14 50  1  0  0  0  0
 21 51  1  0  0  0  0
 22 52  1  0  0  0  0
 23 53  1  0  0  0  0
 24 54  1  0  0  0  0
 26 55  1  0  0  0  0
 26 56  1  0  0  0  0
 27 57  1  0  0  0  0
 28 58  1  0  0  0  0
 29 59  1  0  0  0  0
 31 60  1  0  0  0  0
 32 61  1  0  0  0  0
 34 62  1  0  0  0  0
 35 63  1  0  0  0  0
 36 64  1  0  0  0  0
 37 65  1  0  0  0  0
 38 66  1  0  0  0  0
 39 67  1  0  0  0  0
 40 68  1  0  0  0  0
M  END
$$$$
