C5H8O
APtclcactv06281817063D 0   0.00000     0.00000
 
 14 13  0  0  0  0  0  0  0  0999 V2000
    2.4655    0.1144    0.0000 C   0  0  0  0  0  0  0  0  0  0  0  0
    1.1137    0.7805   -0.0000 C   0  0  0  0  0  0  0  0  0  0  0  0
    0.0043    0.0387   -0.0000 C   0  0  0  0  0  0  0  0  0  0  0  0
    0.1033   -1.4651   -0.0000 C   0  0  0  0  0  0  0  0  0  0  0  0
   -1.3077    0.6851   -0.0000 C   0  0  0  0  0  0  0  0  0  0  0  0
   -2.3163    0.0107    0.0000 O   0  0  0  0  0  0  0  0  0  0  0  0
    2.5643   -0.5071    0.8900 H   0  0  0  0  0  0  0  0  0  0  0  0
    2.5643   -0.5071   -0.8900 H   0  0  0  0  0  0  0  0  0  0  0  0
    3.2457    0.8756    0.0000 H   0  0  0  0  0  0  0  0  0  0  0  0
    1.0427    1.8581    0.0000 H   0  0  0  0  0  0  0  0  0  0  0  0
    0.1272   -1.8276    1.0277 H   0  0  0  0  0  0  0  0  0  0  0  0
   -0.7609   -1.8861   -0.5138 H   0  0  0  0  0  0  0  0  0  0  0  0
    1.0153   -1.7691   -0.5138 H   0  0  0  0  0  0  0  0  0  0  0  0
   -1.3787    1.7628   -0.0000 H   0  0  0  0  0  0  0  0  0  0  0  0
  1  2  1  0  0  0  0
  2  3  2  0  0  0  0
  3  4  1  0  0  0  0
  3  5  1  0  0  0  0
  5  6  2  0  0  0  0
  1  7  1  0  0  0  0
  1  8  1  0  0  0  0
  1  9  1  0  0  0  0
  2 10  1  0  0  0  0
  4 11  1  0  0  0  0
  4 12  1  0  0  0  0
  4 13  1  0  0  0  0
  5 14  1  0  0  0  0
M  END
$$$$
