C9H13N2O9P
APtclcactv06211804373D 0   0.00000     0.00000
 
 34 35  0  0  0  0  0  0  0  0999 V2000
    2.4716    2.3339    0.2777 C   0  0  0  0  0  0  0  0  0  0  0  0
    1.6878    1.3036   -0.1060 C   0  0  0  0  0  0  0  0  0  0  0  0
    2.2586    0.1058   -0.4404 N   0  0  0  0  0  0  0  0  0  0  0  0
    3.5934   -0.0549   -0.3900 C   0  0  0  0  0  0  0  0  0  0  0  0
    4.0797   -1.1279   -0.6911 O   0  0  0  0  0  0  0  0  0  0  0  0
    4.3982    0.9554   -0.0115 N   0  0  0  0  0  0  0  0  0  0  0  0
    3.8747    2.1513    0.3259 C   0  0  0  0  0  0  0  0  0  0  0  0
    4.6021    3.0661    0.6681 O   0  0  0  0  0  0  0  0  0  0  0  0
    1.4083   -1.0121   -0.8567 C   0  0  0  0  0  0  0  0  0  0  0  0
    1.4334   -2.1320    0.2070 C   0  0  0  0  0  0  0  0  0  0  0  0
    0.1949   -1.8439    1.0848 C   0  0  0  0  0  0  0  0  0  0  0  0
   -0.4319   -0.5840    0.4475 C   0  0  0  0  0  0  0  0  0  0  0  0
    0.0268   -0.5960   -0.9219 O   0  0  0  0  0  0  0  0  0  0  0  0
   -1.9589   -0.6650    0.4984 C   0  0  0  0  0  0  0  0  0  0  0  0
   -2.5172    0.5571    0.0117 O   0  0  0  0  0  0  0  0  0  0  0  0
   -4.1027    0.8229   -0.0768 P   0  0  0  0  0  0  0  0  0  0  0  0
   -4.7148    0.6019    1.2524 O   0  0  0  0  0  0  0  0  0  0  0  0
   -4.3671    2.3409   -0.5437 O   0  0  0  0  0  0  0  0  0  0  0  0
   -4.7577   -0.1888   -1.1442 O   0  0  0  0  0  0  0  0  0  0  0  0
   -0.7210   -2.9396    1.0334 O   0  0  0  0  0  0  0  0  0  0  0  0
    1.3202   -3.4144   -0.4132 O   0  0  0  0  0  0  0  0  0  0  0  0
    2.0343    3.2860    0.5400 H   0  0  0  0  0  0  0  0  0  0  0  0
    0.6154    1.4242   -0.1484 H   0  0  0  0  0  0  0  0  0  0  0  0
    5.3585    0.8225    0.0193 H   0  0  0  0  0  0  0  0  0  0  0  0
    1.7360   -1.3982   -1.8219 H   0  0  0  0  0  0  0  0  0  0  0  0
    2.3450   -2.0735    0.8018 H   0  0  0  0  0  0  0  0  0  0  0  0
    0.4942   -1.6430    2.1135 H   0  0  0  0  0  0  0  0  0  0  0  0
   -0.0815    0.3134    0.9573 H   0  0  0  0  0  0  0  0  0  0  0  0
   -2.2998   -1.4931   -0.1231 H   0  0  0  0  0  0  0  0  0  0  0  0
   -2.2801   -0.8268    1.5274 H   0  0  0  0  0  0  0  0  0  0  0  0
   -5.3030    2.5719   -0.6187 H   0  0  0  0  0  0  0  0  0  0  0  0
   -4.4031   -0.0998   -2.0394 H   0  0  0  0  0  0  0  0  0  0  0  0
   -0.3578   -3.7718    1.3658 H   0  0  0  0  0  0  0  0  0  0  0  0
    1.3305   -4.1546    0.2090 H   0  0  0  0  0  0  0  0  0  0  0  0
  1  2  2  0  0  0  0
  2  3  1  0  0  0  0
  3  4  1  0  0  0  0
  4  5  2  0  0  0  0
  4  6  1  0  0  0  0
  6  7  1  0  0  0  0
  1  7  1  0  0  0  0
  7  8  2  0  0  0  0
  3  9  1  0  0  0  0
  9 10  1  0  0  0  0
 10 11  1  0  0  0  0
 11 12  1  0  0  0  0
 12 13  1  0  0  0  0
  9 13  1  0  0  0  0
 12 14  1  0  0  0  0
 14 15  1  0  0  0  0
 15 16  1  0  0  0  0
 16 17  2  0  0  0  0
 16 18  1  0  0  0  0
 16 19  1  0  0  0  0
 11 20  1  0  0  0  0
 10 21  1  0  0  0  0
  1 22  1  0  0  0  0
  2 23  1  0  0  0  0
  6 24  1  0  0  0  0
  9 25  1  0  0  0  0
 10 26  1  0  0  0  0
 11 27  1  0  0  0  0
 12 28  1  0  0  0  0
 14 29  1  0  0  0  0
 14 30  1  0  0  0  0
 18 31  1  0  0  0  0
 19 32  1  0  0  0  0
 20 33  1  0  0  0  0
 21 34  1  0  0  0  0
M  END
$$$$
