C19H19N7O6
APtclcactv06211804373D 0   0.00000     0.00000
 
 51 53  0  0  0  0  0  0  0  0999 V2000
    1.8270   -0.1205   -0.3393 C   0  0  0  0  0  0  0  0  0  0  0  0
    0.4831   -0.3946   -0.4509 C   0  0  0  0  0  0  0  0  0  0  0  0
   -0.4139    0.1220    0.4801 C   0  0  0  0  0  0  0  0  0  0  0  0
    0.0454    0.9168    1.5268 C   0  0  0  0  0  0  0  0  0  0  0  0
    1.3881    1.1941    1.6442 C   0  0  0  0  0  0  0  0  0  0  0  0
    2.2913    0.6772    0.7107 C   0  0  0  0  0  0  0  0  0  0  0  0
    3.7314    0.9722    0.8338 C   0  0  0  0  0  0  0  0  0  0  0  0
    4.1340    1.6656    1.7480 O   0  0  0  0  0  0  0  0  0  0  0  0
    4.6009    0.4732   -0.0669 N   0  0  0  0  0  0  0  0  0  0  0  0
    6.0311    0.7661    0.0554 C   0  0  0  0  0  0  0  0  0  0  0  0
    6.8384   -0.3390   -0.6287 C   0  0  0  0  0  0  0  0  0  0  0  0
    6.6303   -1.6587    0.1170 C   0  0  0  0  0  0  0  0  0  0  0  0
    7.4254   -2.7472   -0.5568 C   0  0  0  0  0  0  0  0  0  0  0  0
    8.0903   -2.4935   -1.5332 O   0  0  0  0  0  0  0  0  0  0  0  0
    7.3950   -3.9986   -0.0722 O   0  0  0  0  0  0  0  0  0  0  0  0
    6.3312    2.0881   -0.6028 C   0  0  0  0  0  0  0  0  0  0  0  0
    5.4416    2.7208   -1.1209 O   0  0  0  0  0  0  0  0  0  0  0  0
    7.5867    2.5629   -0.6135 O   0  0  0  0  0  0  0  0  0  0  0  0
   -1.7713   -0.1560    0.3640 N   0  0  0  0  0  0  0  0  0  0  0  0
   -2.7165    0.3868    1.3428 C   0  0  0  0  0  0  0  0  0  0  0  0
   -4.1130   -0.0591    0.9934 C   0  0  0  0  0  0  0  0  0  0  0  0
   -4.6475   -1.1901    1.5971 C   0  0  0  0  0  0  0  0  0  0  0  0
   -5.8698   -1.5945    1.3021 N   0  0  0  0  0  0  0  0  0  0  0  0
   -6.5907   -0.9139    0.4231 C   0  0  0  0  0  0  0  0  0  0  0  0
   -6.0477    0.2314   -0.1867 C   0  0  0  0  0  0  0  0  0  0  0  0
   -4.8218    0.6304    0.1204 N   0  0  0  0  0  0  0  0  0  0  0  0
   -6.8845    0.9615   -1.1619 C   0  0  0  0  0  0  0  0  0  0  0  0
   -6.4647    1.9604   -1.7208 O   0  0  0  0  0  0  0  0  0  0  0  0
   -8.1159    0.4984   -1.4169 N   0  0  0  0  0  0  0  0  0  0  0  0
   -8.5860   -0.5785   -0.8235 C   0  0  0  0  0  0  0  0  0  0  0  0
   -7.8711   -1.2965    0.0819 N   0  0  0  0  0  0  0  0  0  0  0  0
   -9.8508   -0.9932   -1.1322 N   0  0  0  0  0  0  0  0  0  0  0  0
    2.5228   -0.5250   -1.0594 H   0  0  0  0  0  0  0  0  0  0  0  0
    0.1238   -1.0109   -1.2618 H   0  0  0  0  0  0  0  0  0  0  0  0
   -0.6530    1.3164    2.2473 H   0  0  0  0  0  0  0  0  0  0  0  0
    1.7437    1.8110    2.4562 H   0  0  0  0  0  0  0  0  0  0  0  0
    4.2798   -0.0800   -0.7962 H   0  0  0  0  0  0  0  0  0  0  0  0
    6.3031    0.8151    1.1098 H   0  0  0  0  0  0  0  0  0  0  0  0
    6.5037   -0.4479   -1.6603 H   0  0  0  0  0  0  0  0  0  0  0  0
    7.8964   -0.0772   -0.6157 H   0  0  0  0  0  0  0  0  0  0  0  0
    6.9650   -1.5498    1.1486 H   0  0  0  0  0  0  0  0  0  0  0  0
    5.5723   -1.9205    0.1040 H   0  0  0  0  0  0  0  0  0  0  0  0
    7.9213   -4.6627   -0.5381 H   0  0  0  0  0  0  0  0  0  0  0  0
    7.7301    3.4150   -1.0475 H   0  0  0  0  0  0  0  0  0  0  0  0
   -2.0924   -0.7094   -0.3651 H   0  0  0  0  0  0  0  0  0  0  0  0
   -2.4576    0.0243    2.3377 H   0  0  0  0  0  0  0  0  0  0  0  0
   -2.6686    1.4757    1.3290 H   0  0  0  0  0  0  0  0  0  0  0  0
   -4.0586   -1.7438    2.3133 H   0  0  0  0  0  0  0  0  0  0  0  0
   -8.2640   -2.0834    0.4911 H   0  0  0  0  0  0  0  0  0  0  0  0
  -10.3804   -0.4970   -1.7756 H   0  0  0  0  0  0  0  0  0  0  0  0
  -10.2189   -1.7840   -0.7079 H   0  0  0  0  0  0  0  0  0  0  0  0
  1  2  2  0  0  0  0
  2  3  1  0  0  0  0
  3  4  2  0  0  0  0
  4  5  1  0  0  0  0
  5  6  2  0  0  0  0
  1  6  1  0  0  0  0
  6  7  1  0  0  0  0
  7  8  2  0  0  0  0
  7  9  1  0  0  0  0
  9 10  1  0  0  0  0
 10 11  1  0  0  0  0
 11 12  1  0  0  0  0
 12 13  1  0  0  0  0
 13 14  2  0  0  0  0
 13 15  1  0  0  0  0
 10 16  1  0  0  0  0
 16 17  2  0  0  0  0
 16 18  1  0  0  0  0
  3 19  1  0  0  0  0
 19 20  1  0  0  0  0
 20 21  1  0  0  0  0
 21 22  2  0  0  0  0
 22 23  1  0  0  0  0
 23 24  2  0  0  0  0
 24 25  1  0  0  0  0
 25 26  2  0  0  0  0
 21 26  1  0  0  0  0
 25 27  1  0  0  0  0
 27 28  2  0  0  0  0
 27 29  1  0  0  0  0
 29 30  2  0  0  0  0
 30 31  1  0  0  0  0
 24 31  1  0  0  0  0
 30 32  1  0  0  0  0
  1 33  1  0  0  0  0
  2 34  1  0  0  0  0
  4 35  1  0  0  0  0
  5 36  1  0  0  0  0
  9 37  1  0  0  0  0
 10 38  1  0  0  0  0
 11 39  1  0  0  0  0
 11 40  1  0  0  0  0
 12 41  1  0  0  0  0
 12 42  1  0  0  0  0
 15 43  1  0  0  0  0
 18 44  1  0  0  0  0
 19 45  1  0  0  0  0
 20 46  1  0  0  0  0
 20 47  1  0  0  0  0
 22 48  1  0  0  0  0
 31 49  1  0  0  0  0
 32 50  1  0  0  0  0
 32 51  1  0  0  0  0
M  END
$$$$
