C9H11NO4
APtclcactv06211804373D 0   0.00000     0.00000
 
 25 25  0  0  0  0  0  0  0  0999 V2000
   -0.8337   -1.5691   -0.1267 C   0  0  0  0  0  0  0  0  0  0  0  0
   -2.1774   -1.6410    0.1901 C   0  0  0  0  0  0  0  0  0  0  0  0
   -2.9626   -0.5004    0.1418 C   0  0  0  0  0  0  0  0  0  0  0  0
   -2.3954    0.7160   -0.2259 C   0  0  0  0  0  0  0  0  0  0  0  0
   -1.0479    0.7811   -0.5422 C   0  0  0  0  0  0  0  0  0  0  0  0
   -0.2702   -0.3607   -0.4921 C   0  0  0  0  0  0  0  0  0  0  0  0
    1.1952   -0.2879   -0.8365 C   0  0  0  0  0  0  0  0  0  0  0  0
    2.0023    0.0093    0.4289 C   0  0  0  0  0  0  0  0  0  0  0  0
    3.4741   -0.0393    0.1089 C   0  0  0  0  0  0  0  0  0  0  0  0
    4.0871    0.9860   -0.0723 O   0  0  0  0  0  0  0  0  0  0  0  0
    4.1040   -1.2216    0.0252 O   0  0  0  0  0  0  0  0  0  0  0  0
    1.6538    1.3458    0.9293 N   0  0  0  0  0  0  0  0  0  0  0  0
   -3.1620    1.8382   -0.2752 O   0  0  0  0  0  0  0  0  0  0  0  0
   -4.2847   -0.5695    0.4527 O   0  0  0  0  0  0  0  0  0  0  0  0
   -0.2218   -2.4580   -0.0844 H   0  0  0  0  0  0  0  0  0  0  0  0
   -2.6152   -2.5863    0.4748 H   0  0  0  0  0  0  0  0  0  0  0  0
   -0.6053    1.7238   -0.8283 H   0  0  0  0  0  0  0  0  0  0  0  0
    1.5172   -1.2404   -1.2575 H   0  0  0  0  0  0  0  0  0  0  0  0
    1.3580    0.5054   -1.5660 H   0  0  0  0  0  0  0  0  0  0  0  0
    1.7712   -0.7354    1.1905 H   0  0  0  0  0  0  0  0  0  0  0  0
    5.0483   -1.2023   -0.1824 H   0  0  0  0  0  0  0  0  0  0  0  0
    1.8588    2.0544    0.2409 H   0  0  0  0  0  0  0  0  0  0  0  0
    0.6859    1.3852    1.2116 H   0  0  0  0  0  0  0  0  0  0  0  0
   -3.1934    2.3299    0.5569 H   0  0  0  0  0  0  0  0  0  0  0  0
   -4.4768   -0.4227    1.3890 H   0  0  0  0  0  0  0  0  0  0  0  0
  1  2  2  0  0  0  0
  2  3  1  0  0  0  0
  3  4  2  0  0  0  0
  4  5  1  0  0  0  0
  5  6  2  0  0  0  0
  1  6  1  0  0  0  0
  6  7  1  0  0  0  0
  7  8  1  0  0  0  0
  8  9  1  0  0  0  0
  9 10  2  0  0  0  0
  9 11  1  0  0  0  0
  8 12  1  0  0  0  0
  4 13  1  0  0  0  0
  3 14  1  0  0  0  0
  1 15  1  0  0  0  0
  2 16  1  0  0  0  0
  5 17  1  0  0  0  0
  7 18  1  0  0  0  0
  7 19  1  0  0  0  0
  8 20  1  0  0  0  0
 11 21  1  0  0  0  0
 12 22  1  0  0  0  0
 12 23  1  0  0  0  0
 13 24  1  0  0  0  0
 14 25  1  0  0  0  0
M  END
$$$$
