C23H24ClN3O5
APtclcactv06211806223D 0   0.00000     0.00000
 
 56 59  0  0  0  0  0  0  0  0999 V2000
    3.7921   -3.9327    2.2392 C   0  0  0  0  0  0  0  0  0  0  0  0
    2.8535   -2.8334    1.7377 C   0  0  0  0  0  0  0  0  0  0  0  0
    2.6133   -3.0130    0.2374 C   0  0  0  0  0  0  0  0  0  0  0  0
    1.7892   -1.8623   -0.2828 C   0  0  0  0  0  0  0  0  0  0  0  0
    2.3231   -0.8985   -1.0796 C   0  0  0  0  0  0  0  0  0  0  0  0
    3.7623   -0.9209   -1.5213 C   0  0  0  0  0  0  0  0  0  0  0  0
    4.5337   -1.8425   -0.7073 O   0  0  0  0  0  0  0  0  0  0  0  0
    3.9394   -3.0376   -0.4874 C   0  0  0  0  0  0  0  0  0  0  0  0
    4.4437   -4.0733   -0.8521 O   0  0  0  0  0  0  0  0  0  0  0  0
    1.5039    0.1629   -1.5168 C   0  0  0  0  0  0  0  0  0  0  0  0
    1.9794    1.0418   -2.2173 O   0  0  0  0  0  0  0  0  0  0  0  0
    0.2036    0.2190   -1.1707 N   0  0  0  0  0  0  0  0  0  0  0  0
   -0.8367    1.2014   -1.5027 C   0  0  0  0  0  0  0  0  0  0  0  0
   -2.0999    0.7315   -0.8285 C   0  0  0  0  0  0  0  0  0  0  0  0
   -1.7806   -0.4572   -0.1500 C   0  0  0  0  0  0  0  0  0  0  0  0
   -0.3465   -0.7497   -0.3798 C   0  0  0  0  0  0  0  0  0  0  0  0
    0.4353   -1.7917    0.0710 C   0  0  0  0  0  0  0  0  0  0  0  0
   -2.7006   -1.1097    0.5435 N   0  0  0  0  0  0  0  0  0  0  0  0
   -3.9553   -0.6671    0.6240 C   0  0  0  0  0  0  0  0  0  0  0  0
   -4.9229   -1.3710    1.3671 C   0  0  0  0  0  0  0  0  0  0  0  0
   -6.1965   -0.9013    1.4352 C   0  0  0  0  0  0  0  0  0  0  0  0
   -6.5672    0.2760    0.7767 C   0  0  0  0  0  0  0  0  0  0  0  0
   -5.6550    0.9852    0.0467 C   0  0  0  0  0  0  0  0  0  0  0  0
   -4.3327    0.5274   -0.0429 C   0  0  0  0  0  0  0  0  0  0  0  0
   -3.3633    1.2322   -0.7849 C   0  0  0  0  0  0  0  0  0  0  0  0
   -6.0680    2.2515   -0.6583 C   0  0  0  0  0  0  0  0  0  0  0  0
   -5.8721    3.3978    0.2392 N   0  0  0  0  0  0  0  0  0  0  0  0
   -6.0363    4.6662   -0.4834 C   0  0  0  0  0  0  0  0  0  0  0  0
   -6.7814    3.3264    1.3907 C   0  0  0  0  0  0  0  0  0  0  0  0
   -7.8486    0.7191    0.8634 O   0  0  0  0  0  0  0  0  0  0  0  0
    1.9186   -4.2405    0.0082 O   0  0  0  0  0  0  0  0  0  0  0  0
   14.1647    4.8871    1.1006 Cl  0  0  0  0  0  0  0  0  0  0  0  0
    3.9632   -3.8047    3.3080 H   0  0  0  0  0  0  0  0  0  0  0  0
    3.3395   -4.9075    2.0578 H   0  0  0  0  0  0  0  0  0  0  0  0
    4.7423   -3.8690    1.7089 H   0  0  0  0  0  0  0  0  0  0  0  0
    1.9033   -2.8971    2.2680 H   0  0  0  0  0  0  0  0  0  0  0  0
    3.3061   -1.8585    1.9190 H   0  0  0  0  0  0  0  0  0  0  0  0
    3.8132   -1.2338   -2.5642 H   0  0  0  0  0  0  0  0  0  0  0  0
    4.1827    0.0803   -1.4266 H   0  0  0  0  0  0  0  0  0  0  0  0
   -0.5558    2.1850   -1.1260 H   0  0  0  0  0  0  0  0  0  0  0  0
   -0.9820    1.2416   -2.5822 H   0  0  0  0  0  0  0  0  0  0  0  0
    0.0028   -2.5563    0.6993 H   0  0  0  0  0  0  0  0  0  0  0  0
   -4.6536   -2.2818    1.8812 H   0  0  0  0  0  0  0  0  0  0  0  0
   -6.9340   -1.4456    2.0063 H   0  0  0  0  0  0  0  0  0  0  0  0
   -3.6169    2.1446   -1.3041 H   0  0  0  0  0  0  0  0  0  0  0  0
   -5.4610    2.3833   -1.5539 H   0  0  0  0  0  0  0  0  0  0  0  0
   -7.1193    2.1850   -0.9385 H   0  0  0  0  0  0  0  0  0  0  0  0
   -7.0412    4.7182   -0.9024 H   0  0  0  0  0  0  0  0  0  0  0  0
   -5.8860    5.4983    0.2045 H   0  0  0  0  0  0  0  0  0  0  0  0
   -5.3036    4.7233   -1.2884 H   0  0  0  0  0  0  0  0  0  0  0  0
   -6.5903    2.4094    1.9482 H   0  0  0  0  0  0  0  0  0  0  0  0
   -6.6153    4.1869    2.0388 H   0  0  0  0  0  0  0  0  0  0  0  0
   -7.8133    3.3298    1.0396 H   0  0  0  0  0  0  0  0  0  0  0  0
   -8.0089    1.3157    1.6073 H   0  0  0  0  0  0  0  0  0  0  0  0
    2.3933   -5.0246    0.3164 H   0  0  0  0  0  0  0  0  0  0  0  0
   15.4103    4.3231    1.0157 H   0  0  0  0  0  0  0  0  0  0  0  0
  1  2  1  0  0  0  0
  2  3  1  0  0  0  0
  3  4  1  0  0  0  0
  4  5  2  0  0  0  0
  5  6  1  0  0  0  0
  6  7  1  0  0  0  0
  7  8  1  0  0  0  0
  3  8  1  0  0  0  0
  8  9  2  0  0  0  0
  5 10  1  0  0  0  0
 10 11  2  0  0  0  0
 10 12  1  0  0  0  0
 12 13  1  0  0  0  0
 13 14  1  0  0  0  0
 14 15  2  0  0  0  0
 15 16  1  0  0  0  0
 12 16  1  0  0  0  0
 16 17  2  0  0  0  0
  4 17  1  0  0  0  0
 15 18  1  0  0  0  0
 18 19  2  0  0  0  0
 19 20  1  0  0  0  0
 20 21  2  0  0  0  0
 21 22  1  0  0  0  0
 22 23  2  0  0  0  0
 23 24  1  0  0  0  0
 19 24  1  0  0  0  0
 24 25  2  0  0  0  0
 14 25  1  0  0  0  0
 23 26  1  0  0  0  0
 26 27  1  0  0  0  0
 27 28  1  0  0  0  0
 27 29  1  0  0  0  0
 22 30  1  0  0  0  0
  3 31  1  0  0  0  0
  1 33  1  0  0  0  0
  1 34  1  0  0  0  0
  1 35  1  0  0  0  0
  2 36  1  0  0  0  0
  2 37  1  0  0  0  0
  6 38  1  0  0  0  0
  6 39  1  0  0  0  0
 13 40  1  0  0  0  0
 13 41  1  0  0  0  0
 17 42  1  0  0  0  0
 20 43  1  0  0  0  0
 21 44  1  0  0  0  0
 25 45  1  0  0  0  0
 26 46  1  0  0  0  0
 26 47  1  0  0  0  0
 28 48  1  0  0  0  0
 28 49  1  0  0  0  0
 28 50  1  0  0  0  0
 29 51  1  0  0  0  0
 29 52  1  0  0  0  0
 29 53  1  0  0  0  0
 30 54  1  0  0  0  0
 31 55  1  0  0  0  0
 32 56  1  0  0  0  0
M  END
$$$$
