C21H24O10
APtclcactv06211804373D 0   0.00000     0.00000
 
 55 57  0  0  0  0  0  0  0  0999 V2000
   -5.5582    0.8814   -1.0973 C   0  0  0  0  0  0  0  0  0  0  0  0
   -6.9180    0.7591   -0.8864 C   0  0  0  0  0  0  0  0  0  0  0  0
   -7.4274    0.8233    0.4024 C   0  0  0  0  0  0  0  0  0  0  0  0
   -6.5694    1.0102    1.4764 C   0  0  0  0  0  0  0  0  0  0  0  0
   -5.2104    1.1319    1.2602 C   0  0  0  0  0  0  0  0  0  0  0  0
   -4.7052    1.0676   -0.0252 C   0  0  0  0  0  0  0  0  0  0  0  0
   -3.2223    1.2007   -0.2581 C   0  0  0  0  0  0  0  0  0  0  0  0
   -2.5718   -0.1832   -0.2071 C   0  0  0  0  0  0  0  0  0  0  0  0
   -1.0889   -0.0502   -0.4400 C   0  0  0  0  0  0  0  0  0  0  0  0
   -0.6000    1.0447   -0.6285 O   0  0  0  0  0  0  0  0  0  0  0  0
   -0.2395   -1.2394   -0.4390 C   0  0  0  0  0  0  0  0  0  0  0  0
   -0.8016   -2.5111   -0.2210 C   0  0  0  0  0  0  0  0  0  0  0  0
    0.0100   -3.6298   -0.2224 C   0  0  0  0  0  0  0  0  0  0  0  0
    1.3764   -3.5020   -0.4380 C   0  0  0  0  0  0  0  0  0  0  0  0
    1.9409   -2.2507   -0.6542 C   0  0  0  0  0  0  0  0  0  0  0  0
    1.1455   -1.1209   -0.6619 C   0  0  0  0  0  0  0  0  0  0  0  0
    1.6986    0.0991   -0.8736 O   0  0  0  0  0  0  0  0  0  0  0  0
    3.1116    0.1435   -1.0819 C   0  0  0  0  0  0  0  0  0  0  0  0
    3.5323    1.5749   -1.4252 C   0  0  0  0  0  0  0  0  0  0  0  0
    3.2079    2.4919   -0.2419 C   0  0  0  0  0  0  0  0  0  0  0  0
    3.9154    1.9622    1.0093 C   0  0  0  0  0  0  0  0  0  0  0  0
    3.4799    0.5159    1.2585 C   0  0  0  0  0  0  0  0  0  0  0  0
    3.7822   -0.2762    0.1081 O   0  0  0  0  0  0  0  0  0  0  0  0
    4.2278   -0.0403    2.4719 C   0  0  0  0  0  0  0  0  0  0  0  0
    3.7376   -1.3479    2.7753 O   0  0  0  0  0  0  0  0  0  0  0  0
    5.3301    2.0079    0.8132 O   0  0  0  0  0  0  0  0  0  0  0  0
    3.6640    3.8163   -0.5243 O   0  0  0  0  0  0  0  0  0  0  0  0
    4.9369    1.6103   -1.6857 O   0  0  0  0  0  0  0  0  0  0  0  0
    2.1650   -4.6060   -0.4371 O   0  0  0  0  0  0  0  0  0  0  0  0
   -2.1351   -2.6383   -0.0098 O   0  0  0  0  0  0  0  0  0  0  0  0
   -8.7648    0.7038    0.6124 O   0  0  0  0  0  0  0  0  0  0  0  0
   -5.1607    0.8270   -2.1000 H   0  0  0  0  0  0  0  0  0  0  0  0
   -7.5840    0.6140   -1.7242 H   0  0  0  0  0  0  0  0  0  0  0  0
   -6.9636    1.0609    2.4806 H   0  0  0  0  0  0  0  0  0  0  0  0
   -4.5421    1.2778    2.0960 H   0  0  0  0  0  0  0  0  0  0  0  0
   -3.0469    1.6487   -1.2362 H   0  0  0  0  0  0  0  0  0  0  0  0
   -2.7885    1.8348    0.5151 H   0  0  0  0  0  0  0  0  0  0  0  0
   -2.7472   -0.6313    0.7710 H   0  0  0  0  0  0  0  0  0  0  0  0
   -3.0056   -0.8173   -0.9803 H   0  0  0  0  0  0  0  0  0  0  0  0
   -0.4193   -4.6065   -0.0549 H   0  0  0  0  0  0  0  0  0  0  0  0
    3.0043   -2.1615   -0.8210 H   0  0  0  0  0  0  0  0  0  0  0  0
    3.3790   -0.5209   -1.9036 H   0  0  0  0  0  0  0  0  0  0  0  0
    2.9887    1.9127   -2.3075 H   0  0  0  0  0  0  0  0  0  0  0  0
    2.1309    2.5037   -0.0743 H   0  0  0  0  0  0  0  0  0  0  0  0
    3.6457    2.5770    1.8680 H   0  0  0  0  0  0  0  0  0  0  0  0
    2.4069    0.4869    1.4480 H   0  0  0  0  0  0  0  0  0  0  0  0
    5.2933   -0.0945    2.2484 H   0  0  0  0  0  0  0  0  0  0  0  0
    4.0690    0.6150    3.3283 H   0  0  0  0  0  0  0  0  0  0  0  0
    4.1678   -1.7626    3.5356 H   0  0  0  0  0  0  0  0  0  0  0  0
    5.6754    2.8953    0.6449 H   0  0  0  0  0  0  0  0  0  0  0  0
    3.2615    4.2118   -1.3096 H   0  0  0  0  0  0  0  0  0  0  0  0
    5.2148    1.0476   -2.4213 H   0  0  0  0  0  0  0  0  0  0  0  0
    2.2651   -5.0185   -1.3059 H   0  0  0  0  0  0  0  0  0  0  0  0
   -2.6508   -2.7673   -0.8176 H   0  0  0  0  0  0  0  0  0  0  0  0
   -9.0611   -0.2059    0.7526 H   0  0  0  0  0  0  0  0  0  0  0  0
  1  2  2  0  0  0  0
  2  3  1  0  0  0  0
  3  4  2  0  0  0  0
  4  5  1  0  0  0  0
  5  6  2  0  0  0  0
  1  6  1  0  0  0  0
  6  7  1  0  0  0  0
  7  8  1  0  0  0  0
  8  9  1  0  0  0  0
  9 10  2  0  0  0  0
  9 11  1  0  0  0  0
 11 12  2  0  0  0  0
 12 13  1  0  0  0  0
 13 14  2  0  0  0  0
 14 15  1  0  0  0  0
 15 16  2  0  0  0  0
 11 16  1  0  0  0  0
 16 17  1  0  0  0  0
 17 18  1  0  0  0  0
 18 19  1  0  0  0  0
 19 20  1  0  0  0  0
 20 21  1  0  0  0  0
 21 22  1  0  0  0  0
 22 23  1  0  0  0  0
 18 23  1  0  0  0  0
 22 24  1  0  0  0  0
 24 25  1  0  0  0  0
 21 26  1  0  0  0  0
 20 27  1  0  0  0  0
 19 28  1  0  0  0  0
 14 29  1  0  0  0  0
 12 30  1  0  0  0  0
  3 31  1  0  0  0  0
  1 32  1  0  0  0  0
  2 33  1  0  0  0  0
  4 34  1  0  0  0  0
  5 35  1  0  0  0  0
  7 36  1  0  0  0  0
  7 37  1  0  0  0  0
  8 38  1  0  0  0  0
  8 39  1  0  0  0  0
 13 40  1  0  0  0  0
 15 41  1  0  0  0  0
 18 42  1  0  0  0  0
 19 43  1  0  0  0  0
 20 44  1  0  0  0  0
 21 45  1  0  0  0  0
 22 46  1  0  0  0  0
 24 47  1  0  0  0  0
 24 48  1  0  0  0  0
 25 49  1  0  0  0  0
 26 50  1  0  0  0  0
 27 51  1  0  0  0  0
 28 52  1  0  0  0  0
 29 53  1  0  0  0  0
 30 54  1  0  0  0  0
 31 55  1  0  0  0  0
M  END
$$$$
