C20H18O8
APtclcactv06281817183D 0   0.00000     0.00000
 
 46 48  0  0  0  0  0  0  0  0999 V2000
    2.4828   -1.3480    3.5191 C   0  0  0  0  0  0  0  0  0  0  0  0
    1.3464   -0.6409    3.0183 O   0  0  0  0  0  0  0  0  0  0  0  0
    1.4310   -0.1544    1.7512 C   0  0  0  0  0  0  0  0  0  0  0  0
    2.5790   -0.3552    1.0153 C   0  0  0  0  0  0  0  0  0  0  0  0
    2.6728    0.1432   -0.2898 C   0  0  0  0  0  0  0  0  0  0  0  0
    1.5908    0.8416   -0.8395 C   0  0  0  0  0  0  0  0  0  0  0  0
    0.4498    1.0321   -0.0983 C   0  0  0  0  0  0  0  0  0  0  0  0
    0.3491    0.5431    1.1994 C   0  0  0  0  0  0  0  0  0  0  0  0
   -0.8524    0.8631    1.7534 O   0  0  0  0  0  0  0  0  0  0  0  0
   -1.7838    1.1897    0.7082 C   0  0  0  0  0  0  0  0  0  0  0  0
   -0.8657    1.7162   -0.4183 C   0  0  0  0  0  0  0  0  0  0  0  0
   -0.7204    3.2141   -0.3388 C   0  0  0  0  0  0  0  0  0  0  0  0
   -1.2890    3.8309    0.5308 O   0  0  0  0  0  0  0  0  0  0  0  0
    0.0407    3.8630   -1.2340 O   0  0  0  0  0  0  0  0  0  0  0  0
   -2.5288   -0.0389    0.2538 C   0  0  0  0  0  0  0  0  0  0  0  0
   -3.8427    0.0659   -0.1629 C   0  0  0  0  0  0  0  0  0  0  0  0
   -4.5291   -1.0628   -0.5810 C   0  0  0  0  0  0  0  0  0  0  0  0
   -3.8929   -2.3004   -0.5802 C   0  0  0  0  0  0  0  0  0  0  0  0
   -2.5757   -2.3985   -0.1613 C   0  0  0  0  0  0  0  0  0  0  0  0
   -1.8949   -1.2676    0.2492 C   0  0  0  0  0  0  0  0  0  0  0  0
   -4.5625   -3.4111   -0.9892 O   0  0  0  0  0  0  0  0  0  0  0  0
   -5.8219   -0.9614   -0.9908 O   0  0  0  0  0  0  0  0  0  0  0  0
   -6.4106    0.3404   -0.9645 C   0  0  0  0  0  0  0  0  0  0  0  0
    3.8969   -0.0645   -1.0760 C   0  0  0  0  0  0  0  0  0  0  0  0
    4.9377   -0.7387   -0.5400 C   0  0  0  0  0  0  0  0  0  0  0  0
    6.1186   -0.9391   -1.2984 C   0  0  0  0  0  0  0  0  0  0  0  0
    6.1948   -0.5039   -2.4318 O   0  0  0  0  0  0  0  0  0  0  0  0
    7.1581   -1.6125   -0.7631 O   0  0  0  0  0  0  0  0  0  0  0  0
    3.3511   -0.6890    3.5158 H   0  0  0  0  0  0  0  0  0  0  0  0
    2.2835   -1.6813    4.5375 H   0  0  0  0  0  0  0  0  0  0  0  0
    2.6806   -2.2128    2.8858 H   0  0  0  0  0  0  0  0  0  0  0  0
    3.4076   -0.8976    1.4461 H   0  0  0  0  0  0  0  0  0  0  0  0
    1.6533    1.2306   -1.8451 H   0  0  0  0  0  0  0  0  0  0  0  0
   -2.4774    1.9636    1.0370 H   0  0  0  0  0  0  0  0  0  0  0  0
   -1.2377    1.4138   -1.3973 H   0  0  0  0  0  0  0  0  0  0  0  0
    0.1036    4.8236   -1.1425 H   0  0  0  0  0  0  0  0  0  0  0  0
   -4.3343    1.0276   -0.1622 H   0  0  0  0  0  0  0  0  0  0  0  0
   -2.0796   -3.3578   -0.1597 H   0  0  0  0  0  0  0  0  0  0  0  0
   -0.8683   -1.3454    0.5755 H   0  0  0  0  0  0  0  0  0  0  0  0
   -4.4826   -3.5923   -1.9357 H   0  0  0  0  0  0  0  0  0  0  0  0
   -5.8444    1.0084   -1.6136 H   0  0  0  0  0  0  0  0  0  0  0  0
   -7.4410    0.2803   -1.3150 H   0  0  0  0  0  0  0  0  0  0  0  0
   -6.3955    0.7254    0.0551 H   0  0  0  0  0  0  0  0  0  0  0  0
    3.9645    0.3219   -2.0822 H   0  0  0  0  0  0  0  0  0  0  0  0
    4.8701   -1.1251    0.4663 H   0  0  0  0  0  0  0  0  0  0  0  0
    7.9179   -1.6985   -1.3551 H   0  0  0  0  0  0  0  0  0  0  0  0
  1  2  1  0  0  0  0
  2  3  1  0  0  0  0
  3  4  2  0  0  0  0
  4  5  1  0  0  0  0
  5  6  2  0  0  0  0
  6  7  1  0  0  0  0
  7  8  2  0  0  0  0
  3  8  1  0  0  0  0
  8  9  1  0  0  0  0
  9 10  1  0  0  0  0
 10 11  1  0  0  0  0
  7 11  1  0  0  0  0
 11 12  1  0  0  0  0
 12 13  2  0  0  0  0
 12 14  1  0  0  0  0
 10 15  1  0  0  0  0
 15 16  2  0  0  0  0
 16 17  1  0  0  0  0
 17 18  2  0  0  0  0
 18 19  1  0  0  0  0
 19 20  2  0  0  0  0
 15 20  1  0  0  0  0
 18 21  1  0  0  0  0
 17 22  1  0  0  0  0
 22 23  1  0  0  0  0
  5 24  1  0  0  0  0
 24 25  2  0  0  0  0
 25 26  1  0  0  0  0
 26 27  2  0  0  0  0
 26 28  1  0  0  0  0
  1 29  1  0  0  0  0
  1 30  1  0  0  0  0
  1 31  1  0  0  0  0
  4 32  1  0  0  0  0
  6 33  1  0  0  0  0
 10 34  1  0  0  0  0
 11 35  1  0  0  0  0
 14 36  1  0  0  0  0
 16 37  1  0  0  0  0
 19 38  1  0  0  0  0
 20 39  1  0  0  0  0
 21 40  1  0  0  0  0
 23 41  1  0  0  0  0
 23 42  1  0  0  0  0
 23 43  1  0  0  0  0
 24 44  1  0  0  0  0
 25 45  1  0  0  0  0
 28 46  1  0  0  0  0
M  END
$$$$
