C15H18O
APtclcactv06231803053D 0   0.00000     0.00000
 
 34 35  0  0  0  0  0  0  0  0999 V2000
    0.6317    3.5513    0.0172 C   0  0  0  0  0  0  0  0  0  0  0  0
   -0.1449    2.2599    0.0067 C   0  0  0  0  0  0  0  0  0  0  0  0
    0.5324    1.0285   -0.0053 C   0  0  0  0  0  0  0  0  0  0  0  0
    1.9357    0.9688   -0.0067 C   0  0  0  0  0  0  0  0  0  0  0  0
    2.5597   -0.2459   -0.0177 C   0  0  0  0  0  0  0  0  0  0  0  0
    1.8198   -1.4327   -0.0279 C   0  0  0  0  0  0  0  0  0  0  0  0
    0.4603   -1.4088   -0.0268 C   0  0  0  0  0  0  0  0  0  0  0  0
   -0.2155   -0.1759   -0.0152 C   0  0  0  0  0  0  0  0  0  0  0  0
   -1.6190   -0.1148   -0.0132 C   0  0  0  0  0  0  0  0  0  0  0  0
   -2.2408    1.0962   -0.0015 C   0  0  0  0  0  0  0  0  0  0  0  0
   -1.5059    2.2799    0.0145 C   0  0  0  0  0  0  0  0  0  0  0  0
   -2.4322   -1.3835   -0.0245 C   0  0  0  0  0  0  0  0  0  0  0  0
   -3.2153   -1.4989    1.2848 C   0  0  0  0  0  0  0  0  0  0  0  0
   -3.4088   -1.3528   -1.2018 C   0  0  0  0  0  0  0  0  0  0  0  0
    2.5395   -2.7566   -0.0409 C   0  0  0  0  0  0  0  0  0  0  0  0
    3.9174   -0.3022   -0.0190 O   0  0  0  0  0  0  0  0  0  0  0  0
    0.8175    3.8719   -1.0079 H   0  0  0  0  0  0  0  0  0  0  0  0
    0.0570    4.3167    0.5387 H   0  0  0  0  0  0  0  0  0  0  0  0
    1.5824    3.3995    0.5283 H   0  0  0  0  0  0  0  0  0  0  0  0
    2.5180    1.8784    0.0004 H   0  0  0  0  0  0  0  0  0  0  0  0
   -0.0982   -2.3331   -0.0352 H   0  0  0  0  0  0  0  0  0  0  0  0
   -3.3199    1.1401    0.0001 H   0  0  0  0  0  0  0  0  0  0  0  0
   -2.0239    3.2275    0.0235 H   0  0  0  0  0  0  0  0  0  0  0  0
   -1.7668   -2.2407   -0.1266 H   0  0  0  0  0  0  0  0  0  0  0  0
   -3.8035   -2.4166    1.2767 H   0  0  0  0  0  0  0  0  0  0  0  0
   -2.5196   -1.5208    2.1236 H   0  0  0  0  0  0  0  0  0  0  0  0
   -3.8808   -0.6417    1.3870 H   0  0  0  0  0  0  0  0  0  0  0  0
   -2.8509   -1.2706   -2.1346 H   0  0  0  0  0  0  0  0  0  0  0  0
   -3.9970   -2.2705   -1.2100 H   0  0  0  0  0  0  0  0  0  0  0  0
   -4.0743   -0.4956   -1.0997 H   0  0  0  0  0  0  0  0  0  0  0  0
    2.7141   -3.0854    0.9836 H   0  0  0  0  0  0  0  0  0  0  0  0
    1.9306   -3.4961   -0.5610 H   0  0  0  0  0  0  0  0  0  0  0  0
    3.4945   -2.6461   -0.5546 H   0  0  0  0  0  0  0  0  0  0  0  0
    4.3110   -0.3262    0.8640 H   0  0  0  0  0  0  0  0  0  0  0  0
  1  2  1  0  0  0  0
  2  3  2  0  0  0  0
  3  4  1  0  0  0  0
  4  5  2  0  0  0  0
  5  6  1  0  0  0  0
  6  7  2  0  0  0  0
  7  8  1  0  0  0  0
  3  8  1  0  0  0  0
  8  9  2  0  0  0  0
  9 10  1  0  0  0  0
 10 11  2  0  0  0  0
  2 11  1  0  0  0  0
  9 12  1  0  0  0  0
 12 13  1  0  0  0  0
 12 14  1  0  0  0  0
  6 15  1  0  0  0  0
  5 16  1  0  0  0  0
  1 17  1  0  0  0  0
  1 18  1  0  0  0  0
  1 19  1  0  0  0  0
  4 20  1  0  0  0  0
  7 21  1  0  0  0  0
 10 22  1  0  0  0  0
 11 23  1  0  0  0  0
 12 24  1  0  0  0  0
 13 25  1  0  0  0  0
 13 26  1  0  0  0  0
 13 27  1  0  0  0  0
 14 28  1  0  0  0  0
 14 29  1  0  0  0  0
 14 30  1  0  0  0  0
 15 31  1  0  0  0  0
 15 32  1  0  0  0  0
 15 33  1  0  0  0  0
 16 34  1  0  0  0  0
M  END
$$$$
