C30H50O
APtclcactv06231803053D 0   0.00000     0.00000
 
 81 85  0  0  0  0  0  0  0  0999 V2000
    5.8662    2.3495    0.8696 C   0  0  0  0  0  0  0  0  0  0  0  0
    5.3225    1.2036    0.0039 C   0  0  0  0  0  0  0  0  0  0  0  0
    5.9592   -0.0901    0.4756 C   0  0  0  0  0  0  0  0  0  0  0  0
    4.9860   -1.0261    1.1822 C   0  0  0  0  0  0  0  0  0  0  0  0
    3.7176   -1.1864    0.3335 C   0  0  0  0  0  0  0  0  0  0  0  0
    2.7300   -2.1220    1.0207 C   0  0  0  0  0  0  0  0  0  0  0  0
    1.4105   -2.2220    0.2748 C   0  0  0  0  0  0  0  0  0  0  0  0
    0.8832   -0.8953   -0.2440 C   0  0  0  0  0  0  0  0  0  0  0  0
    1.5859    0.2878    0.4134 C   0  0  0  0  0  0  0  0  0  0  0  0
    3.0816    0.1829    0.2461 C   0  0  0  0  0  0  0  0  0  0  0  0
    3.8328    1.2270    0.0899 C   0  0  0  0  0  0  0  0  0  0  0  0
    1.0737    1.6169   -0.1298 C   0  0  0  0  0  0  0  0  0  0  0  0
   -0.4446    1.7282    0.0596 C   0  0  0  0  0  0  0  0  0  0  0  0
   -1.1237    0.5266   -0.5842 C   0  0  0  0  0  0  0  0  0  0  0  0
   -0.6342   -0.7746    0.0268 C   0  0  0  0  0  0  0  0  0  0  0  0
   -1.3682   -1.9643   -0.5730 C   0  0  0  0  0  0  0  0  0  0  0  0
   -2.8898   -1.8223   -0.5300 C   0  0  0  0  0  0  0  0  0  0  0  0
   -3.3503   -0.4890    0.0298 C   0  0  0  0  0  0  0  0  0  0  0  0
   -2.6434    0.6686   -0.6463 C   0  0  0  0  0  0  0  0  0  0  0  0
   -3.0758    1.9871    0.0001 C   0  0  0  0  0  0  0  0  0  0  0  0
   -4.5912    2.1430   -0.1193 C   0  0  0  0  0  0  0  0  0  0  0  0
   -5.3060    1.0021    0.5901 C   0  0  0  0  0  0  0  0  0  0  0  0
   -4.8677   -0.3708    0.0815 C   0  0  0  0  0  0  0  0  0  0  0  0
   -5.5546   -0.6930   -1.2399 C   0  0  0  0  0  0  0  0  0  0  0  0
   -5.3789   -1.4014    1.1203 C   0  0  0  0  0  0  0  0  0  0  0  0
   -5.0584    1.0836    1.9986 O   0  0  0  0  0  0  0  0  0  0  0  0
   -2.9886    0.7354   -2.1478 C   0  0  0  0  0  0  0  0  0  0  0  0
   -0.8072   -0.7783    1.5529 C   0  0  0  0  0  0  0  0  0  0  0  0
    1.1244   -0.8546   -1.7568 C   0  0  0  0  0  0  0  0  0  0  0  0
    4.1023   -1.7268   -1.0430 C   0  0  0  0  0  0  0  0  0  0  0  0
    5.7390    1.4675   -1.4458 C   0  0  0  0  0  0  0  0  0  0  0  0
    6.9495    2.4040    0.7616 H   0  0  0  0  0  0  0  0  0  0  0  0
    5.4212    3.2909    0.5474 H   0  0  0  0  0  0  0  0  0  0  0  0
    5.6140    2.1670    1.9142 H   0  0  0  0  0  0  0  0  0  0  0  0
    6.4220   -0.5992   -0.3706 H   0  0  0  0  0  0  0  0  0  0  0  0
    6.7657    0.1615    1.1799 H   0  0  0  0  0  0  0  0  0  0  0  0
    5.4504   -2.0041    1.3201 H   0  0  0  0  0  0  0  0  0  0  0  0
    4.7174   -0.6149    2.1561 H   0  0  0  0  0  0  0  0  0  0  0  0
    3.1726   -3.1196    1.0905 H   0  0  0  0  0  0  0  0  0  0  0  0
    2.5391   -1.7609    2.0344 H   0  0  0  0  0  0  0  0  0  0  0  0
    1.5582   -2.8861   -0.5887 H   0  0  0  0  0  0  0  0  0  0  0  0
    0.6809   -2.7086    0.9161 H   0  0  0  0  0  0  0  0  0  0  0  0
    1.4008    0.2731    1.5042 H   0  0  0  0  0  0  0  0  0  0  0  0
    3.3505    2.1886    0.0174 H   0  0  0  0  0  0  0  0  0  0  0  0
    1.5438    2.4369    0.4266 H   0  0  0  0  0  0  0  0  0  0  0  0
    1.3196    1.7311   -1.1817 H   0  0  0  0  0  0  0  0  0  0  0  0
   -0.6807    1.8065    1.1146 H   0  0  0  0  0  0  0  0  0  0  0  0
   -0.7766    2.6451   -0.4431 H   0  0  0  0  0  0  0  0  0  0  0  0
   -0.8212    0.5482   -1.6595 H   0  0  0  0  0  0  0  0  0  0  0  0
   -1.0741   -2.1182   -1.6149 H   0  0  0  0  0  0  0  0  0  0  0  0
   -1.0922   -2.8716   -0.0174 H   0  0  0  0  0  0  0  0  0  0  0  0
   -3.2733   -1.9689   -1.5455 H   0  0  0  0  0  0  0  0  0  0  0  0
   -3.2846   -2.6424    0.0853 H   0  0  0  0  0  0  0  0  0  0  0  0
   -3.0822   -0.4608    1.1113 H   0  0  0  0  0  0  0  0  0  0  0  0
   -2.7894    1.9910    1.0507 H   0  0  0  0  0  0  0  0  0  0  0  0
   -2.5924    2.8195   -0.5137 H   0  0  0  0  0  0  0  0  0  0  0  0
   -4.8779    3.0905    0.3615 H   0  0  0  0  0  0  0  0  0  0  0  0
   -4.8970    2.2008   -1.1599 H   0  0  0  0  0  0  0  0  0  0  0  0
   -6.3873    1.1045    0.4282 H   0  0  0  0  0  0  0  0  0  0  0  0
   -5.4075    0.1323   -1.9366 H   0  0  0  0  0  0  0  0  0  0  0  0
   -5.1264   -1.6034   -1.6595 H   0  0  0  0  0  0  0  0  0  0  0  0
   -6.6212   -0.8385   -1.0690 H   0  0  0  0  0  0  0  0  0  0  0  0
   -6.4648   -1.3382    1.1909 H   0  0  0  0  0  0  0  0  0  0  0  0
   -5.0930   -2.4055    0.8070 H   0  0  0  0  0  0  0  0  0  0  0  0
   -4.9384   -1.1854    2.0937 H   0  0  0  0  0  0  0  0  0  0  0  0
   -5.3632    1.9067    2.4045 H   0  0  0  0  0  0  0  0  0  0  0  0
   -4.0342    1.0188   -2.2680 H   0  0  0  0  0  0  0  0  0  0  0  0
   -2.3533    1.4757   -2.6341 H   0  0  0  0  0  0  0  0  0  0  0  0
   -2.8222   -0.2411   -2.6027 H   0  0  0  0  0  0  0  0  0  0  0  0
   -1.8592   -0.9233    1.7989 H   0  0  0  0  0  0  0  0  0  0  0  0
   -0.2184   -1.5883    1.9834 H   0  0  0  0  0  0  0  0  0  0  0  0
   -0.4669    0.1740    1.9595 H   0  0  0  0  0  0  0  0  0  0  0  0
    0.7161   -1.7558   -2.2142 H   0  0  0  0  0  0  0  0  0  0  0  0
    0.6333    0.0219   -2.1795 H   0  0  0  0  0  0  0  0  0  0  0  0
    2.1953   -0.8009   -1.9526 H   0  0  0  0  0  0  0  0  0  0  0  0
    4.7527   -2.5934   -0.9243 H   0  0  0  0  0  0  0  0  0  0  0  0
    3.2018   -2.0195   -1.5830 H   0  0  0  0  0  0  0  0  0  0  0  0
    4.6267   -0.9529   -1.6035 H   0  0  0  0  0  0  0  0  0  0  0  0
    6.8265    1.5048   -1.5104 H   0  0  0  0  0  0  0  0  0  0  0  0
    5.3646    0.6663   -2.0830 H   0  0  0  0  0  0  0  0  0  0  0  0
    5.3226    2.4191   -1.7761 H   0  0  0  0  0  0  0  0  0  0  0  0
  1  2  1  0  0  0  0
  2  3  1  0  0  0  0
  3  4  1  0  0  0  0
  4  5  1  0  0  0  0
  5  6  1  0  0  0  0
  6  7  1  0  0  0  0
  7  8  1  0  0  0  0
  8  9  1  0  0  0  0
  9 10  1  0  0  0  0
  5 10  1  0  0  0  0
 10 11  2  0  0  0  0
  2 11  1  0  0  0  0
  9 12  1  0  0  0  0
 12 13  1  0  0  0  0
 13 14  1  0  0  0  0
 14 15  1  0  0  0  0
  8 15  1  0  0  0  0
 15 16  1  0  0  0  0
 16 17  1  0  0  0  0
 17 18  1  0  0  0  0
 18 19  1  0  0  0  0
 14 19  1  0  0  0  0
 19 20  1  0  0  0  0
 20 21  1  0  0  0  0
 21 22  1  0  0  0  0
 22 23  1  0  0  0  0
 18 23  1  0  0  0  0
 23 24  1  0  0  0  0
 23 25  1  0  0  0  0
 22 26  1  0  0  0  0
 19 27  1  0  0  0  0
 15 28  1  0  0  0  0
  8 29  1  0  0  0  0
  5 30  1  0  0  0  0
  2 31  1  0  0  0  0
  1 32  1  0  0  0  0
  1 33  1  0  0  0  0
  1 34  1  0  0  0  0
  3 35  1  0  0  0  0
  3 36  1  0  0  0  0
  4 37  1  0  0  0  0
  4 38  1  0  0  0  0
  6 39  1  0  0  0  0
  6 40  1  0  0  0  0
  7 41  1  0  0  0  0
  7 42  1  0  0  0  0
  9 43  1  0  0  0  0
 11 44  1  0  0  0  0
 12 45  1  0  0  0  0
 12 46  1  0  0  0  0
 13 47  1  0  0  0  0
 13 48  1  0  0  0  0
 14 49  1  0  0  0  0
 16 50  1  0  0  0  0
 16 51  1  0  0  0  0
 17 52  1  0  0  0  0
 17 53  1  0  0  0  0
 18 54  1  0  0  0  0
 20 55  1  0  0  0  0
 20 56  1  0  0  0  0
 21 57  1  0  0  0  0
 21 58  1  0  0  0  0
 22 59  1  0  0  0  0
 24 60  1  0  0  0  0
 24 61  1  0  0  0  0
 24 62  1  0  0  0  0
 25 63  1  0  0  0  0
 25 64  1  0  0  0  0
 25 65  1  0  0  0  0
 26 66  1  0  0  0  0
 27 67  1  0  0  0  0
 27 68  1  0  0  0  0
 27 69  1  0  0  0  0
 28 70  1  0  0  0  0
 28 71  1  0  0  0  0
 28 72  1  0  0  0  0
 29 73  1  0  0  0  0
 29 74  1  0  0  0  0
 29 75  1  0  0  0  0
 30 76  1  0  0  0  0
 30 77  1  0  0  0  0
 30 78  1  0  0  0  0
 31 79  1  0  0  0  0
 31 80  1  0  0  0  0
 31 81  1  0  0  0  0
M  END
$$$$
