C6H9ClN2
APtclcactv06211806223D 0   0.00000     0.00000
 
 18 17  0  0  0  0  0  0  0  0999 V2000
   -4.6153    1.7043    0.0980 C   0  0  0  0  0  0  0  0  0  0  0  0
   -5.0702    0.5456    0.7002 C   0  0  0  0  0  0  0  0  0  0  0  0
   -4.2997   -0.6000    0.6672 C   0  0  0  0  0  0  0  0  0  0  0  0
   -3.0664   -0.5874    0.0281 C   0  0  0  0  0  0  0  0  0  0  0  0
   -2.6124    0.5783   -0.5757 C   0  0  0  0  0  0  0  0  0  0  0  0
   -3.3880    1.7203   -0.5389 C   0  0  0  0  0  0  0  0  0  0  0  0
   -2.2843   -1.7442   -0.0068 N   0  0  0  0  0  0  0  0  0  0  0  0
   -1.0717   -1.7301   -0.6356 N   0  0  0  0  0  0  0  0  0  0  0  0
    9.5286    0.2917    0.1283 Cl  0  0  0  0  0  0  0  0  0  0  0  0
   -5.2218    2.5976    0.1214 H   0  0  0  0  0  0  0  0  0  0  0  0
   -6.0291    0.5366    1.1972 H   0  0  0  0  0  0  0  0  0  0  0  0
   -4.6554   -1.5046    1.1380 H   0  0  0  0  0  0  0  0  0  0  0  0
   -1.6538    0.5915   -1.0731 H   0  0  0  0  0  0  0  0  0  0  0  0
   -3.0358    2.6269   -1.0085 H   0  0  0  0  0  0  0  0  0  0  0  0
   -2.6022   -2.5575    0.4155 H   0  0  0  0  0  0  0  0  0  0  0  0
   -0.4770   -1.0076   -0.2582 H   0  0  0  0  0  0  0  0  0  0  0  0
   -0.6245   -2.6328   -0.5789 H   0  0  0  0  0  0  0  0  0  0  0  0
   10.4917   -0.6656   -0.0533 H   0  0  0  0  0  0  0  0  0  0  0  0
  1  2  2  0  0  0  0
  2  3  1  0  0  0  0
  3  4  2  0  0  0  0
  4  5  1  0  0  0  0
  5  6  2  0  0  0  0
  1  6  1  0  0  0  0
  4  7  1  0  0  0  0
  7  8  1  0  0  0  0
  1 10  1  0  0  0  0
  2 11  1  0  0  0  0
  3 12  1  0  0  0  0
  5 13  1  0  0  0  0
  6 14  1  0  0  0  0
  7 15  1  0  0  0  0
  8 16  1  0  0  0  0
  8 17  1  0  0  0  0
  9 18  1  0  0  0  0
M  END
$$$$
