C11H13NO3
APtclcactv06231803053D 0   0.00000     0.00000
 
 28 29  0  0  0  0  0  0  0  0999 V2000
    3.0892    2.4968    0.0583 C   0  0  0  0  0  0  0  0  0  0  0  0
    2.9204    1.0792   -0.0040 O   0  0  0  0  0  0  0  0  0  0  0  0
    1.6469    0.6083    0.0225 C   0  0  0  0  0  0  0  0  0  0  0  0
    1.4134   -0.7648   -0.0351 C   0  0  0  0  0  0  0  0  0  0  0  0
    0.1180   -1.2480   -0.0090 C   0  0  0  0  0  0  0  0  0  0  0  0
   -0.9486   -0.3546    0.0759 C   0  0  0  0  0  0  0  0  0  0  0  0
   -0.7088    1.0222    0.1351 C   0  0  0  0  0  0  0  0  0  0  0  0
    0.5827    1.4966    0.1128 C   0  0  0  0  0  0  0  0  0  0  0  0
   -1.8771    1.9675    0.2299 C   0  0  0  0  0  0  0  0  0  0  0  0
   -3.0620    1.4099   -0.5554 C   0  0  0  0  0  0  0  0  0  0  0  0
   -3.3419    0.0290   -0.1719 N   0  0  0  0  0  0  0  0  0  0  0  0
   -2.3447   -0.8348    0.1048 C   0  0  0  0  0  0  0  0  0  0  0  0
   -2.5916   -1.9943    0.3747 O   0  0  0  0  0  0  0  0  0  0  0  0
    2.4599   -1.6295   -0.1175 O   0  0  0  0  0  0  0  0  0  0  0  0
    2.1474   -3.0228   -0.1730 C   0  0  0  0  0  0  0  0  0  0  0  0
    4.1519    2.7378    0.0288 H   0  0  0  0  0  0  0  0  0  0  0  0
    2.5879    2.9601   -0.7914 H   0  0  0  0  0  0  0  0  0  0  0  0
    2.6568    2.8739    0.9851 H   0  0  0  0  0  0  0  0  0  0  0  0
   -0.0662   -2.3112   -0.0544 H   0  0  0  0  0  0  0  0  0  0  0  0
    0.7686    2.5595    0.1575 H   0  0  0  0  0  0  0  0  0  0  0  0
   -2.1606    2.0889    1.2754 H   0  0  0  0  0  0  0  0  0  0  0  0
   -1.5935    2.9361   -0.1818 H   0  0  0  0  0  0  0  0  0  0  0  0
   -3.9421    2.0217   -0.3576 H   0  0  0  0  0  0  0  0  0  0  0  0
   -2.8341    1.4463   -1.6207 H   0  0  0  0  0  0  0  0  0  0  0  0
   -4.2622   -0.2723   -0.1152 H   0  0  0  0  0  0  0  0  0  0  0  0
    3.0700   -3.5998   -0.2367 H   0  0  0  0  0  0  0  0  0  0  0  0
    1.6013   -3.3088    0.7259 H   0  0  0  0  0  0  0  0  0  0  0  0
    1.5326   -3.2226   -1.0507 H   0  0  0  0  0  0  0  0  0  0  0  0
  1  2  1  0  0  0  0
  2  3  1  0  0  0  0
  3  4  2  0  0  0  0
  4  5  1  0  0  0  0
  5  6  2  0  0  0  0
  6  7  1  0  0  0  0
  7  8  2  0  0  0  0
  3  8  1  0  0  0  0
  7  9  1  0  0  0  0
  9 10  1  0  0  0  0
 10 11  1  0  0  0  0
 11 12  1  0  0  0  0
  6 12  1  0  0  0  0
 12 13  2  0  0  0  0
  4 14  1  0  0  0  0
 14 15  1  0  0  0  0
  1 16  1  0  0  0  0
  1 17  1  0  0  0  0
  1 18  1  0  0  0  0
  5 19  1  0  0  0  0
  8 20  1  0  0  0  0
  9 21  1  0  0  0  0
  9 22  1  0  0  0  0
 10 23  1  0  0  0  0
 10 24  1  0  0  0  0
 11 25  1  0  0  0  0
 15 26  1  0  0  0  0
 15 27  1  0  0  0  0
 15 28  1  0  0  0  0
M  END
$$$$
