C10H14O
APtclcactv06211806223D 0   0.00000     0.00000
 
 25 25  0  0  0  0  0  0  0  0999 V2000
   -1.4620    2.4081   -0.0283 C   0  0  0  0  0  0  0  0  0  0  0  0
   -1.1242    0.9395   -0.0313 C   0  0  0  0  0  0  0  0  0  0  0  0
    0.1712    0.5378    0.0127 C   0  0  0  0  0  0  0  0  0  0  0  0
    0.5048   -0.9309   -0.0350 C   0  0  0  0  0  0  0  0  0  0  0  0
   -0.5599   -1.7323    0.7118 C   0  0  0  0  0  0  0  0  0  0  0  0
   -1.9347   -1.3245    0.2530 C   0  0  0  0  0  0  0  0  0  0  0  0
   -2.1899   -0.0588   -0.0755 C   0  0  0  0  0  0  0  0  0  0  0  0
    0.5584   -1.3924   -1.4927 C   0  0  0  0  0  0  0  0  0  0  0  0
    1.8679   -1.1636    0.6197 C   0  0  0  0  0  0  0  0  0  0  0  0
    1.2023    1.4922    0.1024 C   0  0  0  0  0  0  0  0  0  0  0  0
    2.3629    1.1409    0.0309 O   0  0  0  0  0  0  0  0  0  0  0  0
   -1.5052    2.7731   -1.0545 H   0  0  0  0  0  0  0  0  0  0  0  0
   -2.4293    2.5574    0.4514 H   0  0  0  0  0  0  0  0  0  0  0  0
   -0.6960    2.9561    0.5203 H   0  0  0  0  0  0  0  0  0  0  0  0
   -0.4147   -2.7949    0.5172 H   0  0  0  0  0  0  0  0  0  0  0  0
   -0.4667   -1.5473    1.7820 H   0  0  0  0  0  0  0  0  0  0  0  0
   -2.7206   -2.0629    0.1936 H   0  0  0  0  0  0  0  0  0  0  0  0
   -3.1844    0.2290   -0.3831 H   0  0  0  0  0  0  0  0  0  0  0  0
    1.3241   -0.8277   -2.0247 H   0  0  0  0  0  0  0  0  0  0  0  0
    0.7997   -2.4548   -1.5288 H   0  0  0  0  0  0  0  0  0  0  0  0
   -0.4102   -1.2236   -1.9632 H   0  0  0  0  0  0  0  0  0  0  0  0
    1.9146   -0.6216    1.5642 H   0  0  0  0  0  0  0  0  0  0  0  0
    2.0048   -2.2290    0.8051 H   0  0  0  0  0  0  0  0  0  0  0  0
    2.6554   -0.8061   -0.0437 H   0  0  0  0  0  0  0  0  0  0  0  0
    0.9614    2.5366    0.2348 H   0  0  0  0  0  0  0  0  0  0  0  0
  1  2  1  0  0  0  0
  2  3  2  0  0  0  0
  3  4  1  0  0  0  0
  4  5  1  0  0  0  0
  5  6  1  0  0  0  0
  6  7  2  0  0  0  0
  2  7  1  0  0  0  0
  4  8  1  0  0  0  0
  4  9  1  0  0  0  0
  3 10  1  0  0  0  0
 10 11  2  0  0  0  0
  1 12  1  0  0  0  0
  1 13  1  0  0  0  0
  1 14  1  0  0  0  0
  5 15  1  0  0  0  0
  5 16  1  0  0  0  0
  6 17  1  0  0  0  0
  7 18  1  0  0  0  0
  8 19  1  0  0  0  0
  8 20  1  0  0  0  0
  8 21  1  0  0  0  0
  9 22  1  0  0  0  0
  9 23  1  0  0  0  0
  9 24  1  0  0  0  0
 10 25  1  0  0  0  0
M  END
$$$$
