C11H22O2
APtclcactv06211806223D 0   0.00000     0.00000
 
 35 34  0  0  0  0  0  0  0  0999 V2000
    7.2063   -0.2915   -0.0000 C   0  0  0  0  0  0  0  0  0  0  0  0
    5.9285    0.5500    0.0000 C   0  0  0  0  0  0  0  0  0  0  0  0
    4.7092   -0.3742   -0.0000 C   0  0  0  0  0  0  0  0  0  0  0  0
    3.4314    0.4672    0.0000 C   0  0  0  0  0  0  0  0  0  0  0  0
    2.2121   -0.4570   -0.0000 C   0  0  0  0  0  0  0  0  0  0  0  0
    0.9343    0.3845    0.0000 C   0  0  0  0  0  0  0  0  0  0  0  0
   -0.2850   -0.5397    0.0000 C   0  0  0  0  0  0  0  0  0  0  0  0
   -1.5628    0.3017    0.0000 C   0  0  0  0  0  0  0  0  0  0  0  0
   -2.7199   -0.5754    0.0000 O   0  0  0  0  0  0  0  0  0  0  0  0
   -3.9280    0.0096    0.0000 C   0  0  0  0  0  0  0  0  0  0  0  0
   -4.0157    1.2147   -0.0000 O   0  0  0  0  0  0  0  0  0  0  0  0
   -5.1750   -0.8366    0.0000 C   0  0  0  0  0  0  0  0  0  0  0  0
   -6.4070    0.0706   -0.0000 C   0  0  0  0  0  0  0  0  0  0  0  0
    8.0750    0.3670    0.0000 H   0  0  0  0  0  0  0  0  0  0  0  0
    7.2272   -0.9204    0.8900 H   0  0  0  0  0  0  0  0  0  0  0  0
    7.2272   -0.9204   -0.8900 H   0  0  0  0  0  0  0  0  0  0  0  0
    5.9077    1.1790    0.8900 H   0  0  0  0  0  0  0  0  0  0  0  0
    5.9077    1.1790   -0.8900 H   0  0  0  0  0  0  0  0  0  0  0  0
    4.7301   -1.0032   -0.8900 H   0  0  0  0  0  0  0  0  0  0  0  0
    4.7301   -1.0032    0.8900 H   0  0  0  0  0  0  0  0  0  0  0  0
    3.4106    1.0962    0.8900 H   0  0  0  0  0  0  0  0  0  0  0  0
    3.4106    1.0962   -0.8900 H   0  0  0  0  0  0  0  0  0  0  0  0
    2.2330   -1.0860   -0.8900 H   0  0  0  0  0  0  0  0  0  0  0  0
    2.2330   -1.0860    0.8900 H   0  0  0  0  0  0  0  0  0  0  0  0
    0.9135    1.0135    0.8900 H   0  0  0  0  0  0  0  0  0  0  0  0
    0.9135    1.0135   -0.8900 H   0  0  0  0  0  0  0  0  0  0  0  0
   -0.2641   -1.1687   -0.8900 H   0  0  0  0  0  0  0  0  0  0  0  0
   -0.2641   -1.1687    0.8900 H   0  0  0  0  0  0  0  0  0  0  0  0
   -1.5836    0.9307    0.8900 H   0  0  0  0  0  0  0  0  0  0  0  0
   -1.5836    0.9307   -0.8900 H   0  0  0  0  0  0  0  0  0  0  0  0
   -5.1871   -1.4658   -0.8900 H   0  0  0  0  0  0  0  0  0  0  0  0
   -5.1871   -1.4658    0.8900 H   0  0  0  0  0  0  0  0  0  0  0  0
   -7.3090   -0.5415   -0.0000 H   0  0  0  0  0  0  0  0  0  0  0  0
   -6.3949    0.6998    0.8900 H   0  0  0  0  0  0  0  0  0  0  0  0
   -6.3949    0.6998   -0.8900 H   0  0  0  0  0  0  0  0  0  0  0  0
  1  2  1  0  0  0  0
  2  3  1  0  0  0  0
  3  4  1  0  0  0  0
  4  5  1  0  0  0  0
  5  6  1  0  0  0  0
  6  7  1  0  0  0  0
  7  8  1  0  0  0  0
  8  9  1  0  0  0  0
  9 10  1  0  0  0  0
 10 11  2  0  0  0  0
 10 12  1  0  0  0  0
 12 13  1  0  0  0  0
  1 14  1  0  0  0  0
  1 15  1  0  0  0  0
  1 16  1  0  0  0  0
  2 17  1  0  0  0  0
  2 18  1  0  0  0  0
  3 19  1  0  0  0  0
  3 20  1  0  0  0  0
  4 21  1  0  0  0  0
  4 22  1  0  0  0  0
  5 23  1  0  0  0  0
  5 24  1  0  0  0  0
  6 25  1  0  0  0  0
  6 26  1  0  0  0  0
  7 27  1  0  0  0  0
  7 28  1  0  0  0  0
  8 29  1  0  0  0  0
  8 30  1  0  0  0  0
 12 31  1  0  0  0  0
 12 32  1  0  0  0  0
 13 33  1  0  0  0  0
 13 34  1  0  0  0  0
 13 35  1  0  0  0  0
M  END
$$$$
