C13H22O2
APtclcactv06211806223D 0   0.00000     0.00000
 
 37 36  0  0  0  0  0  0  0  0999 V2000
    4.3465   -1.8933    0.0519 C   0  0  0  0  0  0  0  0  0  0  0  0
    2.8462   -1.9153   -0.2475 C   0  0  0  0  0  0  0  0  0  0  0  0
    2.3049   -0.5095   -0.2051 C   0  0  0  0  0  0  0  0  0  0  0  0
    3.0432    0.4151    0.0395 O   0  0  0  0  0  0  0  0  0  0  0  0
    1.0024   -0.2846   -0.4390 O   0  0  0  0  0  0  0  0  0  0  0  0
    0.5509    1.0942   -0.3817 C   0  0  0  0  0  0  0  0  0  0  0  0
    1.3048    1.9215   -1.4248 C   0  0  0  0  0  0  0  0  0  0  0  0
   -0.9501    1.1519   -0.6726 C   0  0  0  0  0  0  0  0  0  0  0  0
   -1.7133    0.4295    0.4394 C   0  0  0  0  0  0  0  0  0  0  0  0
   -3.1917    0.4863    0.1528 C   0  0  0  0  0  0  0  0  0  0  0  0
   -3.8782   -0.6227    0.0305 C   0  0  0  0  0  0  0  0  0  0  0  0
   -3.1700   -1.9528    0.0443 C   0  0  0  0  0  0  0  0  0  0  0  0
   -5.3763   -0.5683   -0.1239 C   0  0  0  0  0  0  0  0  0  0  0  0
    0.8181    1.6536    0.9919 C   0  0  0  0  0  0  0  0  0  0  0  0
    1.3796    0.9030    1.9070 C   0  0  0  0  0  0  0  0  0  0  0  0
    4.5133   -1.4695    1.0422 H   0  0  0  0  0  0  0  0  0  0  0  0
    4.7381   -2.9101    0.0212 H   0  0  0  0  0  0  0  0  0  0  0  0
    4.8570   -1.2847   -0.6945 H   0  0  0  0  0  0  0  0  0  0  0  0
    2.6795   -2.3392   -1.2377 H   0  0  0  0  0  0  0  0  0  0  0  0
    2.3357   -2.5239    0.4989 H   0  0  0  0  0  0  0  0  0  0  0  0
    1.1115    1.5169   -2.4183 H   0  0  0  0  0  0  0  0  0  0  0  0
    0.9658    2.9566   -1.3818 H   0  0  0  0  0  0  0  0  0  0  0  0
    2.3741    1.8804   -1.2175 H   0  0  0  0  0  0  0  0  0  0  0  0
   -1.2718    2.1924   -0.7174 H   0  0  0  0  0  0  0  0  0  0  0  0
   -1.1540    0.6671   -1.6274 H   0  0  0  0  0  0  0  0  0  0  0  0
   -1.3916   -0.6110    0.4842 H   0  0  0  0  0  0  0  0  0  0  0  0
   -1.5094    0.9143    1.3941 H   0  0  0  0  0  0  0  0  0  0  0  0
   -3.6852    1.4412    0.0482 H   0  0  0  0  0  0  0  0  0  0  0  0
   -3.0239   -2.2760    1.0749 H   0  0  0  0  0  0  0  0  0  0  0  0
   -3.7721   -2.6906   -0.4860 H   0  0  0  0  0  0  0  0  0  0  0  0
   -2.2016   -1.8538   -0.4462 H   0  0  0  0  0  0  0  0  0  0  0  0
   -5.6288   -0.0020   -1.0204 H   0  0  0  0  0  0  0  0  0  0  0  0
   -5.7696   -1.5811   -0.2111 H   0  0  0  0  0  0  0  0  0  0  0  0
   -5.8141   -0.0823    0.7480 H   0  0  0  0  0  0  0  0  0  0  0  0
    0.5468    2.6734    1.2219 H   0  0  0  0  0  0  0  0  0  0  0  0
    1.5711    1.3039    2.8914 H   0  0  0  0  0  0  0  0  0  0  0  0
    1.6510   -0.1167    1.6771 H   0  0  0  0  0  0  0  0  0  0  0  0
  1  2  1  0  0  0  0
  2  3  1  0  0  0  0
  3  4  2  0  0  0  0
  3  5  1  0  0  0  0
  5  6  1  0  0  0  0
  6  7  1  0  0  0  0
  6  8  1  0  0  0  0
  8  9  1  0  0  0  0
  9 10  1  0  0  0  0
 10 11  2  0  0  0  0
 11 12  1  0  0  0  0
 11 13  1  0  0  0  0
  6 14  1  0  0  0  0
 14 15  2  0  0  0  0
  1 16  1  0  0  0  0
  1 17  1  0  0  0  0
  1 18  1  0  0  0  0
  2 19  1  0  0  0  0
  2 20  1  0  0  0  0
  7 21  1  0  0  0  0
  7 22  1  0  0  0  0
  7 23  1  0  0  0  0
  8 24  1  0  0  0  0
  8 25  1  0  0  0  0
  9 26  1  0  0  0  0
  9 27  1  0  0  0  0
 10 28  1  0  0  0  0
 12 29  1  0  0  0  0
 12 30  1  0  0  0  0
 12 31  1  0  0  0  0
 13 32  1  0  0  0  0
 13 33  1  0  0  0  0
 13 34  1  0  0  0  0
 14 35  1  0  0  0  0
 15 36  1  0  0  0  0
 15 37  1  0  0  0  0
M  END
$$$$
