C10H16O
APtclcactv06211806223D 0   0.00000     0.00000
 
 27 28  0  0  0  0  0  0  0  0999 V2000
    2.5368   -1.4738    0.4657 C   0  0  0  0  0  0  0  0  0  0  0  0
    1.3756   -0.6366   -0.0053 C   0  0  0  0  0  0  0  0  0  0  0  0
    1.4854    0.6646   -0.1454 C   0  0  0  0  0  0  0  0  0  0  0  0
    0.3005    1.4658   -0.6279 C   0  0  0  0  0  0  0  0  0  0  0  0
   -0.9122    0.5414   -0.8029 C   0  0  0  0  0  0  0  0  0  0  0  0
   -0.5416   -0.6954   -1.6467 C   0  0  0  0  0  0  0  0  0  0  0  0
    0.0349   -1.2657   -0.3423 C   0  0  0  0  0  0  0  0  0  0  0  0
   -1.0814   -0.4481    0.3627 C   0  0  0  0  0  0  0  0  0  0  0  0
   -0.6698    0.1184    1.7230 C   0  0  0  0  0  0  0  0  0  0  0  0
   -2.4407   -1.1500    0.3897 C   0  0  0  0  0  0  0  0  0  0  0  0
   -0.0092    2.4802    0.3298 O   0  0  0  0  0  0  0  0  0  0  0  0
    3.3985   -0.8312    0.6462 H   0  0  0  0  0  0  0  0  0  0  0  0
    2.2650   -1.9851    1.3893 H   0  0  0  0  0  0  0  0  0  0  0  0
    2.7866   -2.2108   -0.2976 H   0  0  0  0  0  0  0  0  0  0  0  0
    2.4181    1.1587    0.0835 H   0  0  0  0  0  0  0  0  0  0  0  0
    0.5424    1.9315   -1.5832 H   0  0  0  0  0  0  0  0  0  0  0  0
   -1.8185    1.0584   -1.1183 H   0  0  0  0  0  0  0  0  0  0  0  0
   -1.4032   -1.2449   -2.0260 H   0  0  0  0  0  0  0  0  0  0  0  0
    0.2112   -0.4993   -2.4101 H   0  0  0  0  0  0  0  0  0  0  0  0
   -0.0030   -2.3496   -0.2343 H   0  0  0  0  0  0  0  0  0  0  0  0
    0.3546    0.4868    1.6683 H   0  0  0  0  0  0  0  0  0  0  0  0
   -1.3366    0.9375    1.9923 H   0  0  0  0  0  0  0  0  0  0  0  0
   -0.7341   -0.6656    2.4776 H   0  0  0  0  0  0  0  0  0  0  0  0
   -2.4495   -1.8943    1.1860 H   0  0  0  0  0  0  0  0  0  0  0  0
   -3.2254   -0.4154    0.5702 H   0  0  0  0  0  0  0  0  0  0  0  0
   -2.6154   -1.6405   -0.5680 H   0  0  0  0  0  0  0  0  0  0  0  0
    0.7121    3.1044    0.4888 H   0  0  0  0  0  0  0  0  0  0  0  0
  1  2  1  0  0  0  0
  2  3  2  0  0  0  0
  3  4  1  0  0  0  0
  4  5  1  0  0  0  0
  5  6  1  0  0  0  0
  6  7  1  0  0  0  0
  2  7  1  0  0  0  0
  7  8  1  0  0  0  0
  5  8  1  0  0  0  0
  8  9  1  0  0  0  0
  8 10  1  0  0  0  0
  4 11  1  0  0  0  0
  1 12  1  0  0  0  0
  1 13  1  0  0  0  0
  1 14  1  0  0  0  0
  3 15  1  0  0  0  0
  4 16  1  0  0  0  0
  5 17  1  0  0  0  0
  6 18  1  0  0  0  0
  6 19  1  0  0  0  0
  7 20  1  0  0  0  0
  9 21  1  0  0  0  0
  9 22  1  0  0  0  0
  9 23  1  0  0  0  0
 10 24  1  0  0  0  0
 10 25  1  0  0  0  0
 10 26  1  0  0  0  0
 11 27  1  0  0  0  0
M  END
$$$$
