C15H26O
APtclcactv06211806223D 0   0.00000     0.00000
 
 42 44  0  0  0  0  0  0  0  0999 V2000
    2.9837    1.4186    0.9552 C   0  0  0  0  0  0  0  0  0  0  0  0
    2.5363    0.3083    0.0022 C   0  0  0  0  0  0  0  0  0  0  0  0
    1.8320   -0.8640    0.7120 C   0  0  0  0  0  0  0  0  0  0  0  0
    0.8542   -0.8618   -0.4753 C   0  0  0  0  0  0  0  0  0  0  0  0
    1.2132    0.5829   -0.7392 C   0  0  0  0  0  0  0  0  0  0  0  0
    0.3741    1.6704   -0.1388 C   0  0  0  0  0  0  0  0  0  0  0  0
   -1.0267    1.8468   -0.6279 C   0  0  0  0  0  0  0  0  0  0  0  0
   -1.9926    0.7435   -0.2789 C   0  0  0  0  0  0  0  0  0  0  0  0
   -2.2517    0.5958    1.2046 C   0  0  0  0  0  0  0  0  0  0  0  0
   -1.1289   -0.1396    1.9274 C   0  0  0  0  0  0  0  0  0  0  0  0
   -0.8763   -1.4896    1.2594 C   0  0  0  0  0  0  0  0  0  0  0  0
   -0.5387   -1.3191   -0.2122 C   0  0  0  0  0  0  0  0  0  0  0  0
   -1.6111   -0.5618   -0.9583 C   0  0  0  0  0  0  0  0  0  0  0  0
   -0.5991   -2.6465   -0.7514 O   0  0  0  0  0  0  0  0  0  0  0  0
   -3.3397    1.1535   -0.9006 C   0  0  0  0  0  0  0  0  0  0  0  0
    3.6728   -0.1422   -0.9257 C   0  0  0  0  0  0  0  0  0  0  0  0
    3.9109    1.1239    1.4466 H   0  0  0  0  0  0  0  0  0  0  0  0
    3.1473    2.3371    0.3916 H   0  0  0  0  0  0  0  0  0  0  0  0
    2.2116    1.5858    1.7062 H   0  0  0  0  0  0  0  0  0  0  0  0
    2.4381   -1.7683    0.7707 H   0  0  0  0  0  0  0  0  0  0  0  0
    1.3775   -0.5914    1.6613 H   0  0  0  0  0  0  0  0  0  0  0  0
    1.2792   -1.4897   -1.2781 H   0  0  0  0  0  0  0  0  0  0  0  0
    1.3803    0.7671   -1.8125 H   0  0  0  0  0  0  0  0  0  0  0  0
    0.3612    1.5734    0.9431 H   0  0  0  0  0  0  0  0  0  0  0  0
    0.8973    2.6236   -0.3451 H   0  0  0  0  0  0  0  0  0  0  0  0
   -1.4221    2.7886   -0.2259 H   0  0  0  0  0  0  0  0  0  0  0  0
   -1.0063    1.9534   -1.7198 H   0  0  0  0  0  0  0  0  0  0  0  0
   -2.3715    1.5905    1.6460 H   0  0  0  0  0  0  0  0  0  0  0  0
   -3.1892    0.0484    1.3490 H   0  0  0  0  0  0  0  0  0  0  0  0
   -0.2213    0.4492    1.9616 H   0  0  0  0  0  0  0  0  0  0  0  0
   -1.4444   -0.3207    2.9682 H   0  0  0  0  0  0  0  0  0  0  0  0
   -0.0552   -2.0011    1.7658 H   0  0  0  0  0  0  0  0  0  0  0  0
   -1.7745   -2.1089    1.3500 H   0  0  0  0  0  0  0  0  0  0  0  0
   -2.4957   -1.1922   -1.0292 H   0  0  0  0  0  0  0  0  0  0  0  0
   -1.2494   -0.3439   -1.9612 H   0  0  0  0  0  0  0  0  0  0  0  0
   -1.4637   -3.0695   -0.6593 H   0  0  0  0  0  0  0  0  0  0  0  0
   -3.2264    1.2530   -1.9801 H   0  0  0  0  0  0  0  0  0  0  0  0
   -4.0875    0.3910   -0.6825 H   0  0  0  0  0  0  0  0  0  0  0  0
   -3.6592    2.1067   -0.4794 H   0  0  0  0  0  0  0  0  0  0  0  0
    4.5620   -0.3572   -0.3332 H   0  0  0  0  0  0  0  0  0  0  0  0
    3.3685   -1.0403   -1.4633 H   0  0  0  0  0  0  0  0  0  0  0  0
    3.8949    0.6509   -1.6397 H   0  0  0  0  0  0  0  0  0  0  0  0
  1  2  1  0  0  0  0
  2  3  1  0  0  0  0
  3  4  1  0  0  0  0
  4  5  1  0  0  0  0
  2  5  1  0  0  0  0
  5  6  1  0  0  0  0
  6  7  1  0  0  0  0
  7  8  1  0  0  0  0
  8  9  1  0  0  0  0
  9 10  1  0  0  0  0
 10 11  1  0  0  0  0
 11 12  1  0  0  0  0
  4 12  1  0  0  0  0
 12 13  1  0  0  0  0
  8 13  1  0  0  0  0
 12 14  1  0  0  0  0
  8 15  1  0  0  0  0
  2 16  1  0  0  0  0
  1 17  1  0  0  0  0
  1 18  1  0  0  0  0
  1 19  1  0  0  0  0
  3 20  1  0  0  0  0
  3 21  1  0  0  0  0
  4 22  1  0  0  0  0
  5 23  1  0  0  0  0
  6 24  1  0  0  0  0
  6 25  1  0  0  0  0
  7 26  1  0  0  0  0
  7 27  1  0  0  0  0
  9 28  1  0  0  0  0
  9 29  1  0  0  0  0
 10 30  1  0  0  0  0
 10 31  1  0  0  0  0
 11 32  1  0  0  0  0
 11 33  1  0  0  0  0
 13 34  1  0  0  0  0
 13 35  1  0  0  0  0
 14 36  1  0  0  0  0
 15 37  1  0  0  0  0
 15 38  1  0  0  0  0
 15 39  1  0  0  0  0
 16 40  1  0  0  0  0
 16 41  1  0  0  0  0
 16 42  1  0  0  0  0
M  END
$$$$
