C3H6O3
APtclcactv06211804303D 0   0.00000     0.00000
 
 12 11  0  0  0  0  0  0  0  0999 V2000
    1.2014    1.3460   -0.4685 C   0  0  0  0  0  0  0  0  0  0  0  0
    0.7034    0.1935    0.4059 C   0  0  0  0  0  0  0  0  0  0  0  0
   -0.7254   -0.1266    0.0492 C   0  0  0  0  0  0  0  0  0  0  0  0
   -1.0012   -1.1975   -0.4376 O   0  0  0  0  0  0  0  0  0  0  0  0
   -1.6916    0.7780    0.2722 O   0  0  0  0  0  0  0  0  0  0  0  0
    1.5191   -0.9589    0.1851 O   0  0  0  0  0  0  0  0  0  0  0  0
    1.1450    1.0566   -1.5178 H   0  0  0  0  0  0  0  0  0  0  0  0
    0.5792    2.2250   -0.3000 H   0  0  0  0  0  0  0  0  0  0  0  0
    2.2348    1.5775   -0.2104 H   0  0  0  0  0  0  0  0  0  0  0  0
    0.7597    0.4829    1.4553 H   0  0  0  0  0  0  0  0  0  0  0  0
   -2.5928    0.5274    0.0270 H   0  0  0  0  0  0  0  0  0  0  0  0
    2.4536   -0.8252    0.3944 H   0  0  0  0  0  0  0  0  0  0  0  0
  1  2  1  0  0  0  0
  2  3  1  0  0  0  0
  3  4  2  0  0  0  0
  3  5  1  0  0  0  0
  2  6  1  0  0  0  0
  1  7  1  0  0  0  0
  1  8  1  0  0  0  0
  1  9  1  0  0  0  0
  2 10  1  0  0  0  0
  5 11  1  0  0  0  0
  6 12  1  0  0  0  0
M  END
$$$$
