C28H50O
APtclcactv06231803053D 0   0.00000     0.00000
 
 79 82  0  0  0  0  0  0  0  0999 V2000
    4.6394    4.1197    0.6026 C   0  0  0  0  0  0  0  0  0  0  0  0
    4.8495    2.7682   -0.0831 C   0  0  0  0  0  0  0  0  0  0  0  0
    6.1026    2.0980    0.4838 C   0  0  0  0  0  0  0  0  0  0  0  0
    3.6341    1.8738    0.1695 C   0  0  0  0  0  0  0  0  0  0  0  0
    2.3810    2.5441   -0.3975 C   0  0  0  0  0  0  0  0  0  0  0  0
    3.8442    0.5223   -0.5162 C   0  0  0  0  0  0  0  0  0  0  0  0
    2.6881   -0.4149   -0.1612 C   0  0  0  0  0  0  0  0  0  0  0  0
    2.8981   -1.7664   -0.8469 C   0  0  0  0  0  0  0  0  0  0  0  0
    4.2950   -2.2950   -0.5150 C   0  0  0  0  0  0  0  0  0  0  0  0
    1.8505   -2.7548   -0.3523 C   0  0  0  0  0  0  0  0  0  0  0  0
    1.9623   -2.9347    1.1861 C   0  0  0  0  0  0  0  0  0  0  0  0
    0.6788   -2.3006    1.7963 C   0  0  0  0  0  0  0  0  0  0  0  0
    0.2418   -1.3412    0.6788 C   0  0  0  0  0  0  0  0  0  0  0  0
    0.4164   -2.2357   -0.5667 C   0  0  0  0  0  0  0  0  0  0  0  0
    0.1515   -1.4411   -1.8145 C   0  0  0  0  0  0  0  0  0  0  0  0
   -1.2036   -0.7202   -1.7509 C   0  0  0  0  0  0  0  0  0  0  0  0
   -1.9665   -0.9630   -0.4654 C   0  0  0  0  0  0  0  0  0  0  0  0
   -1.1178   -0.7264    0.7787 C   0  0  0  0  0  0  0  0  0  0  0  0
   -1.8960   -1.1748    2.0154 C   0  0  0  0  0  0  0  0  0  0  0  0
   -3.1822   -0.3463    2.1196 C   0  0  0  0  0  0  0  0  0  0  0  0
   -3.2585    0.6395    0.9574 C   0  0  0  0  0  0  0  0  0  0  0  0
   -3.2243   -0.0828   -0.3860 C   0  0  0  0  0  0  0  0  0  0  0  0
   -3.2294    0.9482   -1.5127 C   0  0  0  0  0  0  0  0  0  0  0  0
   -4.4751    1.8300   -1.4208 C   0  0  0  0  0  0  0  0  0  0  0  0
   -4.5433    2.5241   -0.0621 C   0  0  0  0  0  0  0  0  0  0  0  0
   -4.5218    1.4936    1.0673 C   0  0  0  0  0  0  0  0  0  0  0  0
   -3.4343    3.4144    0.0791 O   0  0  0  0  0  0  0  0  0  0  0  0
   -4.4411   -1.0030   -0.5335 C   0  0  0  0  0  0  0  0  0  0  0  0
   -0.4754   -3.4845   -0.5236 C   0  0  0  0  0  0  0  0  0  0  0  0
    5.5053    4.7569    0.4226 H   0  0  0  0  0  0  0  0  0  0  0  0
    3.7467    4.5972    0.1987 H   0  0  0  0  0  0  0  0  0  0  0  0
    4.5167    3.9679    1.6749 H   0  0  0  0  0  0  0  0  0  0  0  0
    4.9722    2.9201   -1.1555 H   0  0  0  0  0  0  0  0  0  0  0  0
    5.9798    1.9461    1.5562 H   0  0  0  0  0  0  0  0  0  0  0  0
    6.2522    1.1352   -0.0047 H   0  0  0  0  0  0  0  0  0  0  0  0
    6.9684    2.7352    0.3038 H   0  0  0  0  0  0  0  0  0  0  0  0
    3.5114    1.7220    1.2418 H   0  0  0  0  0  0  0  0  0  0  0  0
    1.5152    1.9069   -0.2175 H   0  0  0  0  0  0  0  0  0  0  0  0
    2.2314    3.5069    0.0911 H   0  0  0  0  0  0  0  0  0  0  0  0
    2.5038    2.6959   -1.4698 H   0  0  0  0  0  0  0  0  0  0  0  0
    3.8782    0.6643   -1.5964 H   0  0  0  0  0  0  0  0  0  0  0  0
    4.7834    0.0851   -0.1775 H   0  0  0  0  0  0  0  0  0  0  0  0
    2.6541   -0.5569    0.9190 H   0  0  0  0  0  0  0  0  0  0  0  0
    1.7488    0.0223   -0.4999 H   0  0  0  0  0  0  0  0  0  0  0  0
    2.8024   -1.6451   -1.9259 H   0  0  0  0  0  0  0  0  0  0  0  0
    4.4271   -2.3183    0.5667 H   0  0  0  0  0  0  0  0  0  0  0  0
    4.4072   -3.3021   -0.9165 H   0  0  0  0  0  0  0  0  0  0  0  0
    5.0458   -1.6412   -0.9587 H   0  0  0  0  0  0  0  0  0  0  0  0
    1.9638   -3.7181   -0.8488 H   0  0  0  0  0  0  0  0  0  0  0  0
    2.0095   -3.9933    1.4342 H   0  0  0  0  0  0  0  0  0  0  0  0
    2.8450   -2.4168    1.5571 H   0  0  0  0  0  0  0  0  0  0  0  0
   -0.0712   -3.0478    2.0171 H   0  0  0  0  0  0  0  0  0  0  0  0
    0.9337   -1.7369    2.6978 H   0  0  0  0  0  0  0  0  0  0  0  0
    0.9864   -0.5193    0.6378 H   0  0  0  0  0  0  0  0  0  0  0  0
    0.9294   -0.6851   -1.9786 H   0  0  0  0  0  0  0  0  0  0  0  0
    0.1592   -2.1125   -2.6865 H   0  0  0  0  0  0  0  0  0  0  0  0
   -1.0243    0.3571   -1.8733 H   0  0  0  0  0  0  0  0  0  0  0  0
   -1.8154   -1.0459   -2.6035 H   0  0  0  0  0  0  0  0  0  0  0  0
   -2.3583   -1.9866   -0.4541 H   0  0  0  0  0  0  0  0  0  0  0  0
   -0.9638    0.3688    0.8757 H   0  0  0  0  0  0  0  0  0  0  0  0
   -2.1498   -2.2305    1.9254 H   0  0  0  0  0  0  0  0  0  0  0  0
   -1.2892   -1.0175    2.9066 H   0  0  0  0  0  0  0  0  0  0  0  0
   -4.0467   -1.0050    2.1236 H   0  0  0  0  0  0  0  0  0  0  0  0
   -3.1655    0.2127    3.0612 H   0  0  0  0  0  0  0  0  0  0  0  0
   -2.3965    1.3182    1.0173 H   0  0  0  0  0  0  0  0  0  0  0  0
   -2.3406    1.5774   -1.4358 H   0  0  0  0  0  0  0  0  0  0  0  0
   -3.2241    0.4357   -2.4766 H   0  0  0  0  0  0  0  0  0  0  0  0
   -4.4202    2.5962   -2.2041 H   0  0  0  0  0  0  0  0  0  0  0  0
   -5.3749    1.2427   -1.5852 H   0  0  0  0  0  0  0  0  0  0  0  0
   -5.4706    3.1007   -0.0010 H   0  0  0  0  0  0  0  0  0  0  0  0
   -5.4133    0.8757    1.0289 H   0  0  0  0  0  0  0  0  0  0  0  0
   -4.5072    2.0224    2.0274 H   0  0  0  0  0  0  0  0  0  0  0  0
   -3.3994    4.1089   -0.5928 H   0  0  0  0  0  0  0  0  0  0  0  0
   -5.3540   -0.4105   -0.4739 H   0  0  0  0  0  0  0  0  0  0  0  0
   -4.3989   -1.5093   -1.4979 H   0  0  0  0  0  0  0  0  0  0  0  0
   -4.4357   -1.7435    0.2663 H   0  0  0  0  0  0  0  0  0  0  0  0
   -1.4897   -3.1973   -0.2465 H   0  0  0  0  0  0  0  0  0  0  0  0
   -0.4870   -3.9569   -1.5059 H   0  0  0  0  0  0  0  0  0  0  0  0
   -0.0826   -4.1862    0.2123 H   0  0  0  0  0  0  0  0  0  0  0  0
  1  2  1  0  0  0  0
  2  3  1  0  0  0  0
  2  4  1  0  0  0  0
  4  5  1  0  0  0  0
  4  6  1  0  0  0  0
  6  7  1  0  0  0  0
  7  8  1  0  0  0  0
  8  9  1  0  0  0  0
  8 10  1  0  0  0  0
 10 11  1  0  0  0  0
 11 12  1  0  0  0  0
 12 13  1  0  0  0  0
 13 14  1  0  0  0  0
 10 14  1  0  0  0  0
 14 15  1  0  0  0  0
 15 16  1  0  0  0  0
 16 17  1  0  0  0  0
 17 18  1  0  0  0  0
 13 18  1  0  0  0  0
 18 19  1  0  0  0  0
 19 20  1  0  0  0  0
 20 21  1  0  0  0  0
 21 22  1  0  0  0  0
 17 22  1  0  0  0  0
 22 23  1  0  0  0  0
 23 24  1  0  0  0  0
 24 25  1  0  0  0  0
 25 26  1  0  0  0  0
 21 26  1  0  0  0  0
 25 27  1  0  0  0  0
 22 28  1  0  0  0  0
 14 29  1  0  0  0  0
  1 30  1  0  0  0  0
  1 31  1  0  0  0  0
  1 32  1  0  0  0  0
  2 33  1  0  0  0  0
  3 34  1  0  0  0  0
  3 35  1  0  0  0  0
  3 36  1  0  0  0  0
  4 37  1  0  0  0  0
  5 38  1  0  0  0  0
  5 39  1  0  0  0  0
  5 40  1  0  0  0  0
  6 41  1  0  0  0  0
  6 42  1  0  0  0  0
  7 43  1  0  0  0  0
  7 44  1  0  0  0  0
  8 45  1  0  0  0  0
  9 46  1  0  0  0  0
  9 47  1  0  0  0  0
  9 48  1  0  0  0  0
 10 49  1  0  0  0  0
 11 50  1  0  0  0  0
 11 51  1  0  0  0  0
 12 52  1  0  0  0  0
 12 53  1  0  0  0  0
 13 54  1  0  0  0  0
 15 55  1  0  0  0  0
 15 56  1  0  0  0  0
 16 57  1  0  0  0  0
 16 58  1  0  0  0  0
 17 59  1  0  0  0  0
 18 60  1  0  0  0  0
 19 61  1  0  0  0  0
 19 62  1  0  0  0  0
 20 63  1  0  0  0  0
 20 64  1  0  0  0  0
 21 65  1  0  0  0  0
 23 66  1  0  0  0  0
 23 67  1  0  0  0  0
 24 68  1  0  0  0  0
 24 69  1  0  0  0  0
 25 70  1  0  0  0  0
 26 71  1  0  0  0  0
 26 72  1  0  0  0  0
 27 73  1  0  0  0  0
 28 74  1  0  0  0  0
 28 75  1  0  0  0  0
 28 76  1  0  0  0  0
 29 77  1  0  0  0  0
 29 78  1  0  0  0  0
 29 79  1  0  0  0  0
M  END
$$$$
