C12H21NO9S2
APtclcactv06281817183D 0   0.00000     0.00000
 
 45 45  0  0  0  0  0  0  0  0999 V2000
   -3.6289   -5.3916   -0.9239 C   0  0  0  0  0  0  0  0  0  0  0  0
   -3.1915   -4.5173   -0.0519 C   0  0  0  0  0  0  0  0  0  0  0  0
   -1.8625   -3.8397   -0.2659 C   0  0  0  0  0  0  0  0  0  0  0  0
   -2.0527   -2.3219   -0.2327 C   0  0  0  0  0  0  0  0  0  0  0  0
   -0.7035   -1.6340   -0.4499 C   0  0  0  0  0  0  0  0  0  0  0  0
   -0.8908   -0.1390   -0.4172 C   0  0  0  0  0  0  0  0  0  0  0  0
   -2.0677    0.3610   -0.2259 N   0  0  0  0  0  0  0  0  0  0  0  0
   -2.2278    1.7607   -0.0843 O   0  0  0  0  0  0  0  0  0  0  0  0
   -3.6685    2.2000    0.1348 S   0  0  0  0  0  0  0  0  0  0  0  0
   -3.6721    3.6187    0.0536 O   0  0  0  0  0  0  0  0  0  0  0  0
   -4.4712    1.3720   -0.6954 O   0  0  0  0  0  0  0  0  0  0  0  0
   -4.0325    1.8508    1.5708 O   0  0  0  0  0  0  0  0  0  0  0  0
    0.4940    0.9275   -0.6397 S   0  0  0  0  0  0  0  0  0  0  0  0
    1.7882   -0.2988   -0.9519 C   0  0  0  0  0  0  0  0  0  0  0  0
    3.0079    0.3917   -1.5676 C   0  0  0  0  0  0  0  0  0  0  0  0
    3.5651    1.4117   -0.5699 C   0  0  0  0  0  0  0  0  0  0  0  0
    3.9028    0.6952    0.7412 C   0  0  0  0  0  0  0  0  0  0  0  0
    2.6485   -0.0070    1.2677 C   0  0  0  0  0  0  0  0  0  0  0  0
    2.1644   -0.9187    0.2795 O   0  0  0  0  0  0  0  0  0  0  0  0
    2.9920   -0.7748    2.5457 C   0  0  0  0  0  0  0  0  0  0  0  0
    1.7997   -1.3338    3.1006 O   0  0  0  0  0  0  0  0  0  0  0  0
    4.9285   -0.2717    0.5065 O   0  0  0  0  0  0  0  0  0  0  0  0
    4.7473    2.0088   -1.1066 O   0  0  0  0  0  0  0  0  0  0  0  0
    4.0099   -0.5833   -1.8634 O   0  0  0  0  0  0  0  0  0  0  0  0
   -3.0371   -5.6268   -1.7962 H   0  0  0  0  0  0  0  0  0  0  0  0
   -4.5792   -5.8805   -0.7682 H   0  0  0  0  0  0  0  0  0  0  0  0
   -3.7833   -4.2821    0.8204 H   0  0  0  0  0  0  0  0  0  0  0  0
   -1.1720   -4.1367    0.5235 H   0  0  0  0  0  0  0  0  0  0  0  0
   -1.4564   -4.1339   -1.2336 H   0  0  0  0  0  0  0  0  0  0  0  0
   -2.7433   -2.0249   -1.0220 H   0  0  0  0  0  0  0  0  0  0  0  0
   -2.4589   -2.0277    0.7351 H   0  0  0  0  0  0  0  0  0  0  0  0
   -0.0129   -1.9310    0.3394 H   0  0  0  0  0  0  0  0  0  0  0  0
   -0.2973   -1.9282   -1.4177 H   0  0  0  0  0  0  0  0  0  0  0  0
   -4.9365    2.0903    1.8168 H   0  0  0  0  0  0  0  0  0  0  0  0
    1.4130   -1.0559   -1.6405 H   0  0  0  0  0  0  0  0  0  0  0  0
    2.7133    0.9023   -2.4844 H   0  0  0  0  0  0  0  0  0  0  0  0
    2.8185    2.1833   -0.3819 H   0  0  0  0  0  0  0  0  0  0  0  0
    4.2482    1.4230    1.4755 H   0  0  0  0  0  0  0  0  0  0  0  0
    1.8804    0.7353    1.4847 H   0  0  0  0  0  0  0  0  0  0  0  0
    3.6936   -1.5754    2.3111 H   0  0  0  0  0  0  0  0  0  0  0  0
    3.4447   -0.0950    3.2674 H   0  0  0  0  0  0  0  0  0  0  0  0
    1.9425   -1.8357    3.9147 H   0  0  0  0  0  0  0  0  0  0  0  0
    5.7523    0.1034    0.1664 H   0  0  0  0  0  0  0  0  0  0  0  0
    4.6079    2.4749   -1.9423 H   0  0  0  0  0  0  0  0  0  0  0  0
    3.7236   -1.2649   -2.4868 H   0  0  0  0  0  0  0  0  0  0  0  0
  1  2  2  0  0  0  0
  2  3  1  0  0  0  0
  3  4  1  0  0  0  0
  4  5  1  0  0  0  0
  5  6  1  0  0  0  0
  6  7  2  0  0  0  0
  7  8  1  0  0  0  0
  8  9  1  0  0  0  0
  9 10  2  0  0  0  0
  9 11  2  0  0  0  0
  9 12  1  0  0  0  0
  6 13  1  0  0  0  0
 13 14  1  0  0  0  0
 14 15  1  0  0  0  0
 15 16  1  0  0  0  0
 16 17  1  0  0  0  0
 17 18  1  0  0  0  0
 18 19  1  0  0  0  0
 14 19  1  0  0  0  0
 18 20  1  0  0  0  0
 20 21  1  0  0  0  0
 17 22  1  0  0  0  0
 16 23  1  0  0  0  0
 15 24  1  0  0  0  0
  1 25  1  0  0  0  0
  1 26  1  0  0  0  0
  2 27  1  0  0  0  0
  3 28  1  0  0  0  0
  3 29  1  0  0  0  0
  4 30  1  0  0  0  0
  4 31  1  0  0  0  0
  5 32  1  0  0  0  0
  5 33  1  0  0  0  0
 12 34  1  0  0  0  0
 14 35  1  0  0  0  0
 15 36  1  0  0  0  0
 16 37  1  0  0  0  0
 17 38  1  0  0  0  0
 18 39  1  0  0  0  0
 20 40  1  0  0  0  0
 20 41  1  0  0  0  0
 21 42  1  0  0  0  0
 22 43  1  0  0  0  0
 23 44  1  0  0  0  0
 24 45  1  0  0  0  0
M  END
$$$$
