C12H23NO10S2
APtclcactv06281817183D 0   0.00000     0.00000
 
 48 48  0  0  0  0  0  0  0  0999 V2000
    4.0859   -2.8851    1.2017 C   0  0  0  0  0  0  0  0  0  0  0  0
    2.7654   -2.1357    1.3901 C   0  0  0  0  0  0  0  0  0  0  0  0
    1.8078   -2.4958    0.2524 C   0  0  0  0  0  0  0  0  0  0  0  0
    1.5451   -4.0030    0.2648 C   0  0  0  0  0  0  0  0  0  0  0  0
    0.4873   -1.7463    0.4408 C   0  0  0  0  0  0  0  0  0  0  0  0
    0.7412   -0.2616    0.3936 C   0  0  0  0  0  0  0  0  0  0  0  0
    1.9346    0.1834    0.1710 N   0  0  0  0  0  0  0  0  0  0  0  0
    2.1547    1.5739    0.0185 O   0  0  0  0  0  0  0  0  0  0  0  0
    3.6080    1.9461   -0.2381 S   0  0  0  0  0  0  0  0  0  0  0  0
    3.6782    3.3635   -0.1642 O   0  0  0  0  0  0  0  0  0  0  0  0
    4.3924    1.0856    0.5763 O   0  0  0  0  0  0  0  0  0  0  0  0
    3.9201    1.5750   -1.6808 O   0  0  0  0  0  0  0  0  0  0  0  0
   -0.5882    0.8679    0.6418 S   0  0  0  0  0  0  0  0  0  0  0  0
   -1.9345   -0.2977    0.9661 C   0  0  0  0  0  0  0  0  0  0  0  0
   -3.1192    0.4497    1.5838 C   0  0  0  0  0  0  0  0  0  0  0  0
   -3.6349    1.4889    0.5836 C   0  0  0  0  0  0  0  0  0  0  0  0
   -4.0106    0.7820   -0.7223 C   0  0  0  0  0  0  0  0  0  0  0  0
   -2.7915    0.0217   -1.2510 C   0  0  0  0  0  0  0  0  0  0  0  0
   -2.3440   -0.9060   -0.2604 O   0  0  0  0  0  0  0  0  0  0  0  0
   -3.1752   -0.7361   -2.5235 C   0  0  0  0  0  0  0  0  0  0  0  0
   -2.0118   -1.3506   -3.0811 O   0  0  0  0  0  0  0  0  0  0  0  0
   -5.0774   -0.1369   -0.4780 O   0  0  0  0  0  0  0  0  0  0  0  0
   -4.7865    2.1409    1.1227 O   0  0  0  0  0  0  0  0  0  0  0  0
   -4.1623   -0.4780    1.8892 O   0  0  0  0  0  0  0  0  0  0  0  0
    2.3922   -2.1243   -0.9976 O   0  0  0  0  0  0  0  0  0  0  0  0
    3.8987   -3.9589    1.2105 H   0  0  0  0  0  0  0  0  0  0  0  0
    4.5317   -2.6018    0.2482 H   0  0  0  0  0  0  0  0  0  0  0  0
    4.7681   -2.6286    2.0122 H   0  0  0  0  0  0  0  0  0  0  0  0
    2.3197   -2.4190    2.3436 H   0  0  0  0  0  0  0  0  0  0  0  0
    2.9526   -1.0619    1.3813 H   0  0  0  0  0  0  0  0  0  0  0  0
    1.1984   -4.3033    1.2536 H   0  0  0  0  0  0  0  0  0  0  0  0
    0.7833   -4.2451   -0.4764 H   0  0  0  0  0  0  0  0  0  0  0  0
    2.4663   -4.5343    0.0258 H   0  0  0  0  0  0  0  0  0  0  0  0
   -0.2038   -2.0222   -0.3556 H   0  0  0  0  0  0  0  0  0  0  0  0
    0.0541   -2.0104    1.4055 H   0  0  0  0  0  0  0  0  0  0  0  0
    4.8277    1.7721   -1.9501 H   0  0  0  0  0  0  0  0  0  0  0  0
   -1.5903   -1.0676    1.6567 H   0  0  0  0  0  0  0  0  0  0  0  0
   -2.7976    0.9510    2.4967 H   0  0  0  0  0  0  0  0  0  0  0  0
   -2.8553    2.2253    0.3884 H   0  0  0  0  0  0  0  0  0  0  0  0
   -4.3266    1.5209   -1.4586 H   0  0  0  0  0  0  0  0  0  0  0  0
   -1.9920    0.7278   -1.4753 H   0  0  0  0  0  0  0  0  0  0  0  0
   -3.9108   -1.5033   -2.2817 H   0  0  0  0  0  0  0  0  0  0  0  0
   -3.6004   -0.0401   -3.2466 H   0  0  0  0  0  0  0  0  0  0  0  0
   -2.1808   -1.8495   -3.8920 H   0  0  0  0  0  0  0  0  0  0  0  0
   -5.8820    0.2764   -0.1361 H   0  0  0  0  0  0  0  0  0  0  0  0
   -4.6224    2.6042    1.9555 H   0  0  0  0  0  0  0  0  0  0  0  0
   -3.9038   -1.1687    2.5146 H   0  0  0  0  0  0  0  0  0  0  0  0
    2.5862   -1.1802   -1.0760 H   0  0  0  0  0  0  0  0  0  0  0  0
  1  2  1  0  0  0  0
  2  3  1  0  0  0  0
  3  4  1  0  0  0  0
  3  5  1  0  0  0  0
  5  6  1  0  0  0  0
  6  7  2  0  0  0  0
  7  8  1  0  0  0  0
  8  9  1  0  0  0  0
  9 10  2  0  0  0  0
  9 11  2  0  0  0  0
  9 12  1  0  0  0  0
  6 13  1  0  0  0  0
 13 14  1  0  0  0  0
 14 15  1  0  0  0  0
 15 16  1  0  0  0  0
 16 17  1  0  0  0  0
 17 18  1  0  0  0  0
 18 19  1  0  0  0  0
 14 19  1  0  0  0  0
 18 20  1  0  0  0  0
 20 21  1  0  0  0  0
 17 22  1  0  0  0  0
 16 23  1  0  0  0  0
 15 24  1  0  0  0  0
  3 25  1  0  0  0  0
  1 26  1  0  0  0  0
  1 27  1  0  0  0  0
  1 28  1  0  0  0  0
  2 29  1  0  0  0  0
  2 30  1  0  0  0  0
  4 31  1  0  0  0  0
  4 32  1  0  0  0  0
  4 33  1  0  0  0  0
  5 34  1  0  0  0  0
  5 35  1  0  0  0  0
 12 36  1  0  0  0  0
 14 37  1  0  0  0  0
 15 38  1  0  0  0  0
 16 39  1  0  0  0  0
 17 40  1  0  0  0  0
 18 41  1  0  0  0  0
 20 42  1  0  0  0  0
 20 43  1  0  0  0  0
 21 44  1  0  0  0  0
 22 45  1  0  0  0  0
 23 46  1  0  0  0  0
 24 47  1  0  0  0  0
 25 48  1  0  0  0  0
M  END
$$$$
