C12H21NO10S3
APtclcactv06281817183D 0   0.00000     0.00000
 
 47 47  0  0  0  0  0  0  0  0999 V2000
    6.1352    2.9305    1.2759 C   0  0  0  0  0  0  0  0  0  0  0  0
    5.0874    2.9016   -0.2046 S   0  0  0  0  0  0  0  0  0  0  0  0
    5.8761    2.5608   -1.3365 O   0  0  0  0  0  0  0  0  0  0  0  0
    4.0990    1.4632    0.0374 C   0  0  0  0  0  0  0  0  0  0  0  0
    3.2060    1.1237   -0.8589 C   0  0  0  0  0  0  0  0  0  0  0  0
    2.3606   -0.1065   -0.6520 C   0  0  0  0  0  0  0  0  0  0  0  0
    0.8805    0.2710   -0.7402 C   0  0  0  0  0  0  0  0  0  0  0  0
    0.0351   -0.9593   -0.5333 C   0  0  0  0  0  0  0  0  0  0  0  0
    0.5992   -2.1033   -0.3216 N   0  0  0  0  0  0  0  0  0  0  0  0
   -0.1921   -3.2374   -0.0172 O   0  0  0  0  0  0  0  0  0  0  0  0
    0.6111   -4.5108    0.2061 S   0  0  0  0  0  0  0  0  0  0  0  0
   -0.3323   -5.5695    0.2969 O   0  0  0  0  0  0  0  0  0  0  0  0
    1.6677   -4.4905   -0.7439 O   0  0  0  0  0  0  0  0  0  0  0  0
    1.2633   -4.3975    1.5767 O   0  0  0  0  0  0  0  0  0  0  0  0
   -1.7222   -0.8387   -0.5797 S   0  0  0  0  0  0  0  0  0  0  0  0
   -1.9061    0.9132   -0.9955 C   0  0  0  0  0  0  0  0  0  0  0  0
   -3.3336    1.1751   -1.4829 C   0  0  0  0  0  0  0  0  0  0  0  0
   -4.3170    0.8601   -0.3515 C   0  0  0  0  0  0  0  0  0  0  0  0
   -3.9567    1.7060    0.8736 C   0  0  0  0  0  0  0  0  0  0  0  0
   -2.5052    1.4237    1.2700 C   0  0  0  0  0  0  0  0  0  0  0  0
   -1.6467    1.7079    0.1635 O   0  0  0  0  0  0  0  0  0  0  0  0
   -2.1187    2.3092    2.4563 C   0  0  0  0  0  0  0  0  0  0  0  0
   -0.8050    1.9641    2.9003 O   0  0  0  0  0  0  0  0  0  0  0  0
   -4.1044    3.0917    0.5573 O   0  0  0  0  0  0  0  0  0  0  0  0
   -5.6464    1.1714   -0.7732 O   0  0  0  0  0  0  0  0  0  0  0  0
   -3.4648    2.5467   -1.8616 O   0  0  0  0  0  0  0  0  0  0  0  0
    6.7997    3.7935    1.2339 H   0  0  0  0  0  0  0  0  0  0  0  0
    5.5072    2.9983    2.1642 H   0  0  0  0  0  0  0  0  0  0  0  0
    6.7284    2.0170    1.3191 H   0  0  0  0  0  0  0  0  0  0  0  0
    4.2294    0.8614    0.9246 H   0  0  0  0  0  0  0  0  0  0  0  0
    3.0756    1.7255   -1.7462 H   0  0  0  0  0  0  0  0  0  0  0  0
    2.5945   -0.8419   -1.4218 H   0  0  0  0  0  0  0  0  0  0  0  0
    2.5696   -0.5300    0.3304 H   0  0  0  0  0  0  0  0  0  0  0  0
    0.6466    1.0063    0.0296 H   0  0  0  0  0  0  0  0  0  0  0  0
    0.6715    0.6944   -1.7226 H   0  0  0  0  0  0  0  0  0  0  0  0
    1.8025   -5.1624    1.8200 H   0  0  0  0  0  0  0  0  0  0  0  0
   -1.1993    1.1762   -1.7825 H   0  0  0  0  0  0  0  0  0  0  0  0
   -3.5484    0.5374   -2.3404 H   0  0  0  0  0  0  0  0  0  0  0  0
   -4.2523   -0.1976   -0.0961 H   0  0  0  0  0  0  0  0  0  0  0  0
   -4.6171    1.4480    1.7014 H   0  0  0  0  0  0  0  0  0  0  0  0
   -2.4022    0.3753    1.5500 H   0  0  0  0  0  0  0  0  0  0  0  0
   -2.1355    3.3551    2.1496 H   0  0  0  0  0  0  0  0  0  0  0  0
   -2.8286    2.1575    3.2694 H   0  0  0  0  0  0  0  0  0  0  0  0
   -0.4939    2.4869    3.6519 H   0  0  0  0  0  0  0  0  0  0  0  0
   -5.0002    3.3414    0.2922 H   0  0  0  0  0  0  0  0  0  0  0  0
   -5.9386    0.6760   -1.5505 H   0  0  0  0  0  0  0  0  0  0  0  0
   -2.8670    2.8176   -2.5719 H   0  0  0  0  0  0  0  0  0  0  0  0
  1  2  1  0  0  0  0
  2  3  2  0  0  0  0
  2  4  1  0  0  0  0
  4  5  2  0  0  0  0
  5  6  1  0  0  0  0
  6  7  1  0  0  0  0
  7  8  1  0  0  0  0
  8  9  2  0  0  0  0
  9 10  1  0  0  0  0
 10 11  1  0  0  0  0
 11 12  2  0  0  0  0
 11 13  2  0  0  0  0
 11 14  1  0  0  0  0
  8 15  1  0  0  0  0
 15 16  1  0  0  0  0
 16 17  1  0  0  0  0
 17 18  1  0  0  0  0
 18 19  1  0  0  0  0
 19 20  1  0  0  0  0
 20 21  1  0  0  0  0
 16 21  1  0  0  0  0
 20 22  1  0  0  0  0
 22 23  1  0  0  0  0
 19 24  1  0  0  0  0
 18 25  1  0  0  0  0
 17 26  1  0  0  0  0
  1 27  1  0  0  0  0
  1 28  1  0  0  0  0
  1 29  1  0  0  0  0
  4 30  1  0  0  0  0
  5 31  1  0  0  0  0
  6 32  1  0  0  0  0
  6 33  1  0  0  0  0
  7 34  1  0  0  0  0
  7 35  1  0  0  0  0
 14 36  1  0  0  0  0
 16 37  1  0  0  0  0
 17 38  1  0  0  0  0
 18 39  1  0  0  0  0
 19 40  1  0  0  0  0
 20 41  1  0  0  0  0
 22 42  1  0  0  0  0
 22 43  1  0  0  0  0
 23 44  1  0  0  0  0
 24 45  1  0  0  0  0
 25 46  1  0  0  0  0
 26 47  1  0  0  0  0
M  END
$$$$
