C31H52O
APtclcactv06231803053D 0   0.00000     0.00000
 
 84 88  0  0  0  0  0  0  0  0999 V2000
    3.4317   -2.0704    2.1683 C   0  0  0  0  0  0  0  0  0  0  0  0
    2.6175   -1.3696    1.0789 C   0  0  0  0  0  0  0  0  0  0  0  0
    3.5433   -0.4893    0.2370 C   0  0  0  0  0  0  0  0  0  0  0  0
    4.1691    0.5881    1.1250 C   0  0  0  0  0  0  0  0  0  0  0  0
    5.0810    1.4552    0.2958 C   0  0  0  0  0  0  0  0  0  0  0  0
    4.6344    2.5766   -0.2131 C   0  0  0  0  0  0  0  0  0  0  0  0
    3.2376    3.0447    0.1046 C   0  0  0  0  0  0  0  0  0  0  0  0
    5.5173    3.3986   -1.1164 C   0  0  0  0  0  0  0  0  0  0  0  0
    6.5068    1.0322    0.0520 C   0  0  0  0  0  0  0  0  0  0  0  0
    1.9602   -2.4125    0.1871 C   0  0  0  0  0  0  0  0  0  0  0  0
    1.2207   -3.4912    1.0161 C   0  0  0  0  0  0  0  0  0  0  0  0
   -0.2306   -3.5420    0.4597 C   0  0  0  0  0  0  0  0  0  0  0  0
   -0.4336   -2.0942   -0.0206 C   0  0  0  0  0  0  0  0  0  0  0  0
    0.9046   -1.8239   -0.7478 C   0  0  0  0  0  0  0  0  0  0  0  0
    0.9947   -0.3538   -1.0823 C   0  0  0  0  0  0  0  0  0  0  0  0
   -0.1454    0.0095   -2.0416 C   0  0  0  0  0  0  0  0  0  0  0  0
   -1.5147   -0.4681   -1.5349 C   0  0  0  0  0  0  0  0  0  0  0  0
   -1.5850   -1.8882   -0.9861 C   0  0  0  0  0  0  0  0  0  0  0  0
   -2.9104   -2.2389   -0.3600 C   0  0  0  0  0  0  0  0  0  0  0  0
   -3.5809   -1.1891    0.4855 C   0  0  0  0  0  0  0  0  0  0  0  0
   -3.5524    0.2068   -0.0215 C   0  0  0  0  0  0  0  0  0  0  0  0
   -2.4969    0.5905   -1.0178 C   0  0  0  0  0  0  0  0  0  0  0  0
   -2.6866   -0.0117   -2.4277 C   0  0  0  0  0  0  0  0  0  0  0  0
   -1.9180    2.0054   -0.9646 C   0  0  0  0  0  0  0  0  0  0  0  0
   -2.8478    3.0266   -0.3620 C   0  0  0  0  0  0  0  0  0  0  0  0
   -3.4874    2.5569    0.9238 C   0  0  0  0  0  0  0  0  0  0  0  0
   -4.2533    1.2624    0.7562 C   0  0  0  0  0  0  0  0  0  0  0  0
   -5.5736    1.5767    0.0435 C   0  0  0  0  0  0  0  0  0  0  0  0
   -4.5926    0.7402    2.1538 C   0  0  0  0  0  0  0  0  0  0  0  0
   -2.4664    2.3656    1.9067 O   0  0  0  0  0  0  0  0  0  0  0  0
    0.9864   -2.6333   -2.0577 C   0  0  0  0  0  0  0  0  0  0  0  0
   -0.5943   -1.1823    1.2028 C   0  0  0  0  0  0  0  0  0  0  0  0
    3.9026   -1.3232    2.8072 H   0  0  0  0  0  0  0  0  0  0  0  0
    2.7721   -2.6976    2.7681 H   0  0  0  0  0  0  0  0  0  0  0  0
    4.2004   -2.6895    1.7059 H   0  0  0  0  0  0  0  0  0  0  0  0
    1.8488   -0.7505    1.5413 H   0  0  0  0  0  0  0  0  0  0  0  0
    4.3311   -1.1034   -0.1992 H   0  0  0  0  0  0  0  0  0  0  0  0
    2.9691   -0.0155   -0.5592 H   0  0  0  0  0  0  0  0  0  0  0  0
    3.3813    1.2022    1.5612 H   0  0  0  0  0  0  0  0  0  0  0  0
    4.7433    0.1142    1.9212 H   0  0  0  0  0  0  0  0  0  0  0  0
    3.2582    3.6701    0.9971 H   0  0  0  0  0  0  0  0  0  0  0  0
    2.8480    3.6213   -0.7342 H   0  0  0  0  0  0  0  0  0  0  0  0
    2.5963    2.1811    0.2809 H   0  0  0  0  0  0  0  0  0  0  0  0
    5.7339    2.8350   -2.0238 H   0  0  0  0  0  0  0  0  0  0  0  0
    5.0071    4.3257   -1.3776 H   0  0  0  0  0  0  0  0  0  0  0  0
    6.4495    3.6297   -0.6010 H   0  0  0  0  0  0  0  0  0  0  0  0
    6.5459    0.3661   -0.8099 H   0  0  0  0  0  0  0  0  0  0  0  0
    7.1190    1.9131   -0.1415 H   0  0  0  0  0  0  0  0  0  0  0  0
    6.8867    0.5116    0.9311 H   0  0  0  0  0  0  0  0  0  0  0  0
    2.7338   -2.9044   -0.4220 H   0  0  0  0  0  0  0  0  0  0  0  0
    1.7015   -4.4601    0.8815 H   0  0  0  0  0  0  0  0  0  0  0  0
    1.2123   -3.2225    2.0701 H   0  0  0  0  0  0  0  0  0  0  0  0
   -0.3206   -4.2524   -0.3531 H   0  0  0  0  0  0  0  0  0  0  0  0
   -0.9354   -3.7760    1.2595 H   0  0  0  0  0  0  0  0  0  0  0  0
    0.9505    0.2818   -0.2022 H   0  0  0  0  0  0  0  0  0  0  0  0
    1.9520   -0.1588   -1.5902 H   0  0  0  0  0  0  0  0  0  0  0  0
   -0.1707    1.0999   -2.1486 H   0  0  0  0  0  0  0  0  0  0  0  0
    0.0433   -0.4070   -3.0294 H   0  0  0  0  0  0  0  0  0  0  0  0
   -1.4674   -2.5765   -1.8396 H   0  0  0  0  0  0  0  0  0  0  0  0
   -3.6029   -2.5212   -1.1699 H   0  0  0  0  0  0  0  0  0  0  0  0
   -2.7773   -3.1450    0.2482 H   0  0  0  0  0  0  0  0  0  0  0  0
   -4.6415   -1.4868    0.5860 H   0  0  0  0  0  0  0  0  0  0  0  0
   -3.1601   -1.2360    1.4930 H   0  0  0  0  0  0  0  0  0  0  0  0
   -4.3590    0.0706   -0.7660 H   0  0  0  0  0  0  0  0  0  0  0  0
   -2.4461    0.6215   -3.2800 H   0  0  0  0  0  0  0  0  0  0  0  0
   -3.5078   -0.7119   -2.5693 H   0  0  0  0  0  0  0  0  0  0  0  0
   -0.9958    1.9837   -0.3828 H   0  0  0  0  0  0  0  0  0  0  0  0
   -1.6748    2.3187   -1.9824 H   0  0  0  0  0  0  0  0  0  0  0  0
   -2.2766    3.9352   -0.1552 H   0  0  0  0  0  0  0  0  0  0  0  0
   -3.6242    3.2700   -1.0855 H   0  0  0  0  0  0  0  0  0  0  0  0
   -4.1726    3.3274    1.2795 H   0  0  0  0  0  0  0  0  0  0  0  0
   -5.3643    2.0172   -0.9313 H   0  0  0  0  0  0  0  0  0  0  0  0
   -6.1433    0.6568   -0.0883 H   0  0  0  0  0  0  0  0  0  0  0  0
   -6.1519    2.2794    0.6433 H   0  0  0  0  0  0  0  0  0  0  0  0
   -5.2015    1.4762    2.6788 H   0  0  0  0  0  0  0  0  0  0  0  0
   -5.1465   -0.1947    2.0678 H   0  0  0  0  0  0  0  0  0  0  0  0
   -3.6717    0.5669    2.7104 H   0  0  0  0  0  0  0  0  0  0  0  0
   -1.9606    3.1645    2.1090 H   0  0  0  0  0  0  0  0  0  0  0  0
    0.1648   -2.3464   -2.7140 H   0  0  0  0  0  0  0  0  0  0  0  0
    1.9356   -2.4282   -2.5528 H   0  0  0  0  0  0  0  0  0  0  0  0
    0.9168   -3.6974   -1.8322 H   0  0  0  0  0  0  0  0  0  0  0  0
    0.3108   -1.2244    1.8087 H   0  0  0  0  0  0  0  0  0  0  0  0
   -0.7630   -0.1574    0.8724 H   0  0  0  0  0  0  0  0  0  0  0  0
   -1.4449   -1.5173    1.7964 H   0  0  0  0  0  0  0  0  0  0  0  0
  1  2  1  0  0  0  0
  2  3  1  0  0  0  0
  3  4  1  0  0  0  0
  4  5  1  0  0  0  0
  5  6  2  0  0  0  0
  6  7  1  0  0  0  0
  6  8  1  0  0  0  0
  5  9  1  0  0  0  0
  2 10  1  0  0  0  0
 10 11  1  0  0  0  0
 11 12  1  0  0  0  0
 12 13  1  0  0  0  0
 13 14  1  0  0  0  0
 10 14  1  0  0  0  0
 14 15  1  0  0  0  0
 15 16  1  0  0  0  0
 16 17  1  0  0  0  0
 17 18  1  0  0  0  0
 13 18  1  0  0  0  0
 18 19  1  0  0  0  0
 19 20  1  0  0  0  0
 20 21  1  0  0  0  0
 21 22  1  0  0  0  0
 17 22  1  0  0  0  0
 22 23  1  0  0  0  0
 17 23  1  0  0  0  0
 22 24  1  0  0  0  0
 24 25  1  0  0  0  0
 25 26  1  0  0  0  0
 26 27  1  0  0  0  0
 21 27  1  0  0  0  0
 27 28  1  0  0  0  0
 27 29  1  0  0  0  0
 26 30  1  0  0  0  0
 14 31  1  0  0  0  0
 13 32  1  0  0  0  0
  1 33  1  0  0  0  0
  1 34  1  0  0  0  0
  1 35  1  0  0  0  0
  2 36  1  0  0  0  0
  3 37  1  0  0  0  0
  3 38  1  0  0  0  0
  4 39  1  0  0  0  0
  4 40  1  0  0  0  0
  7 41  1  0  0  0  0
  7 42  1  0  0  0  0
  7 43  1  0  0  0  0
  8 44  1  0  0  0  0
  8 45  1  0  0  0  0
  8 46  1  0  0  0  0
  9 47  1  0  0  0  0
  9 48  1  0  0  0  0
  9 49  1  0  0  0  0
 10 50  1  0  0  0  0
 11 51  1  0  0  0  0
 11 52  1  0  0  0  0
 12 53  1  0  0  0  0
 12 54  1  0  0  0  0
 15 55  1  0  0  0  0
 15 56  1  0  0  0  0
 16 57  1  0  0  0  0
 16 58  1  0  0  0  0
 18 59  1  0  0  0  0
 19 60  1  0  0  0  0
 19 61  1  0  0  0  0
 20 62  1  0  0  0  0
 20 63  1  0  0  0  0
 21 64  1  0  0  0  0
 23 65  1  0  0  0  0
 23 66  1  0  0  0  0
 24 67  1  0  0  0  0
 24 68  1  0  0  0  0
 25 69  1  0  0  0  0
 25 70  1  0  0  0  0
 26 71  1  0  0  0  0
 28 72  1  0  0  0  0
 28 73  1  0  0  0  0
 28 74  1  0  0  0  0
 29 75  1  0  0  0  0
 29 76  1  0  0  0  0
 29 77  1  0  0  0  0
 30 78  1  0  0  0  0
 31 79  1  0  0  0  0
 31 80  1  0  0  0  0
 31 81  1  0  0  0  0
 32 82  1  0  0  0  0
 32 83  1  0  0  0  0
 32 84  1  0  0  0  0
M  END
$$$$
