C15H18O9
APtclcactv06281816473D 0   0.00000     0.00000
 
 42 43  0  0  0  0  0  0  0  0999 V2000
   -3.6320   -1.1060   -0.5200 C   0  0  0  0  0  0  0  0  0  0  0  0
   -4.8785   -1.4502   -0.9942 C   0  0  0  0  0  0  0  0  0  0  0  0
   -5.9854   -0.6746   -0.6752 C   0  0  0  0  0  0  0  0  0  0  0  0
   -5.8412    0.4572    0.1265 C   0  0  0  0  0  0  0  0  0  0  0  0
   -4.5953    0.8098    0.6063 C   0  0  0  0  0  0  0  0  0  0  0  0
   -3.4790    0.0284    0.2857 C   0  0  0  0  0  0  0  0  0  0  0  0
   -2.1504    0.3979    0.7935 C   0  0  0  0  0  0  0  0  0  0  0  0
   -1.0744   -0.3577    0.4828 C   0  0  0  0  0  0  0  0  0  0  0  0
    0.2074   -0.0012    0.9727 C   0  0  0  0  0  0  0  0  0  0  0  0
    0.3383    0.9850    1.6728 O   0  0  0  0  0  0  0  0  0  0  0  0
    1.2821   -0.7559    0.6624 O   0  0  0  0  0  0  0  0  0  0  0  0
    2.5425   -0.3379    1.1903 C   0  0  0  0  0  0  0  0  0  0  0  0
    3.6122   -1.3755    0.8398 C   0  0  0  0  0  0  0  0  0  0  0  0
    3.7510   -1.4597   -0.6834 C   0  0  0  0  0  0  0  0  0  0  0  0
    4.0875   -0.0697   -1.2320 C   0  0  0  0  0  0  0  0  0  0  0  0
    2.9995    0.9175   -0.8014 C   0  0  0  0  0  0  0  0  0  0  0  0
    2.9014    0.9242    0.6242 O   0  0  0  0  0  0  0  0  0  0  0  0
    3.3592    2.3204   -1.2947 C   0  0  0  0  0  0  0  0  0  0  0  0
    2.2898    3.2195   -0.9948 O   0  0  0  0  0  0  0  0  0  0  0  0
    5.3499    0.3552   -0.7143 O   0  0  0  0  0  0  0  0  0  0  0  0
    4.7985   -2.3723   -1.0182 O   0  0  0  0  0  0  0  0  0  0  0  0
    4.8619   -0.9852    1.4123 O   0  0  0  0  0  0  0  0  0  0  0  0
   -6.9278    1.2143    0.4356 O   0  0  0  0  0  0  0  0  0  0  0  0
   -7.2120   -1.0191   -1.1458 O   0  0  0  0  0  0  0  0  0  0  0  0
   -2.7737   -1.7136   -0.7661 H   0  0  0  0  0  0  0  0  0  0  0  0
   -4.9954   -2.3254   -1.6161 H   0  0  0  0  0  0  0  0  0  0  0  0
   -4.4824    1.6864    1.2270 H   0  0  0  0  0  0  0  0  0  0  0  0
   -2.0342    1.2734    1.4150 H   0  0  0  0  0  0  0  0  0  0  0  0
   -1.1907   -1.2333   -0.1387 H   0  0  0  0  0  0  0  0  0  0  0  0
    2.4694   -0.2430    2.2737 H   0  0  0  0  0  0  0  0  0  0  0  0
    3.3184   -2.3487    1.2331 H   0  0  0  0  0  0  0  0  0  0  0  0
    2.8123   -1.8052   -1.1165 H   0  0  0  0  0  0  0  0  0  0  0  0
    4.1337   -0.1090   -2.3203 H   0  0  0  0  0  0  0  0  0  0  0  0
    2.0441    0.6151   -1.2301 H   0  0  0  0  0  0  0  0  0  0  0  0
    4.2683    2.6584   -0.7973 H   0  0  0  0  0  0  0  0  0  0  0  0
    3.5221    2.2960   -2.3722 H   0  0  0  0  0  0  0  0  0  0  0  0
    2.4494    4.1296   -1.2799 H   0  0  0  0  0  0  0  0  0  0  0  0
    6.0860   -0.2279   -0.9449 H   0  0  0  0  0  0  0  0  0  0  0  0
    4.6542   -3.2723   -0.6954 H   0  0  0  0  0  0  0  0  0  0  0  0
    4.8458   -0.9071    2.3760 H   0  0  0  0  0  0  0  0  0  0  0  0
   -7.3804    0.9407    1.2452 H   0  0  0  0  0  0  0  0  0  0  0  0
   -7.7050   -1.6118   -0.5620 H   0  0  0  0  0  0  0  0  0  0  0  0
  1  2  2  0  0  0  0
  2  3  1  0  0  0  0
  3  4  2  0  0  0  0
  4  5  1  0  0  0  0
  5  6  2  0  0  0  0
  1  6  1  0  0  0  0
  6  7  1  0  0  0  0
  7  8  2  0  0  0  0
  8  9  1  0  0  0  0
  9 10  2  0  0  0  0
  9 11  1  0  0  0  0
 11 12  1  0  0  0  0
 12 13  1  0  0  0  0
 13 14  1  0  0  0  0
 14 15  1  0  0  0  0
 15 16  1  0  0  0  0
 16 17  1  0  0  0  0
 12 17  1  0  0  0  0
 16 18  1  0  0  0  0
 18 19  1  0  0  0  0
 15 20  1  0  0  0  0
 14 21  1  0  0  0  0
 13 22  1  0  0  0  0
  4 23  1  0  0  0  0
  3 24  1  0  0  0  0
  1 25  1  0  0  0  0
  2 26  1  0  0  0  0
  5 27  1  0  0  0  0
  7 28  1  0  0  0  0
  8 29  1  0  0  0  0
 12 30  1  0  0  0  0
 13 31  1  0  0  0  0
 14 32  1  0  0  0  0
 15 33  1  0  0  0  0
 16 34  1  0  0  0  0
 18 35  1  0  0  0  0
 18 36  1  0  0  0  0
 19 37  1  0  0  0  0
 20 38  1  0  0  0  0
 21 39  1  0  0  0  0
 22 40  1  0  0  0  0
 23 41  1  0  0  0  0
 24 42  1  0  0  0  0
M  END
$$$$
