C11H20O2
APtclcactv06211806233D 0   0.00000     0.00000
 
 33 32  0  0  0  0  0  0  0  0999 V2000
    0.8207    1.7668    0.4455 C   0  0  0  0  0  0  0  0  0  0  0  0
    0.5525    0.3090    0.0661 C   0  0  0  0  0  0  0  0  0  0  0  0
   -0.7871    0.2108   -0.6665 C   0  0  0  0  0  0  0  0  0  0  0  0
   -1.9196    0.5957    0.2876 C   0  0  0  0  0  0  0  0  0  0  0  0
   -3.2390    0.4989   -0.4340 C   0  0  0  0  0  0  0  0  0  0  0  0
   -4.1769   -0.2954    0.0194 C   0  0  0  0  0  0  0  0  0  0  0  0
   -3.8922   -1.2102    1.1827 C   0  0  0  0  0  0  0  0  0  0  0  0
   -5.5404   -0.2945   -0.6222 C   0  0  0  0  0  0  0  0  0  0  0  0
    1.6717   -0.1943   -0.8477 C   0  0  0  0  0  0  0  0  0  0  0  0
    2.9719   -0.2132   -0.0860 C   0  0  0  0  0  0  0  0  0  0  0  0
    3.0004    0.1397    1.0693 O   0  0  0  0  0  0  0  0  0  0  0  0
    4.0982   -0.6221   -0.6909 O   0  0  0  0  0  0  0  0  0  0  0  0
    5.3134   -0.6141    0.1037 C   0  0  0  0  0  0  0  0  0  0  0  0
    0.8546    2.3768   -0.4572 H   0  0  0  0  0  0  0  0  0  0  0  0
    0.0233    2.1254    1.0965 H   0  0  0  0  0  0  0  0  0  0  0  0
    1.7750    1.8368    0.9674 H   0  0  0  0  0  0  0  0  0  0  0  0
    0.5185   -0.3009    0.9688 H   0  0  0  0  0  0  0  0  0  0  0  0
   -0.7850    0.8887   -1.5200 H   0  0  0  0  0  0  0  0  0  0  0  0
   -0.9368   -0.8112   -1.0145 H   0  0  0  0  0  0  0  0  0  0  0  0
   -1.9217   -0.0822    1.1412 H   0  0  0  0  0  0  0  0  0  0  0  0
   -1.7699    1.6177    0.6357 H   0  0  0  0  0  0  0  0  0  0  0  0
   -3.4115    1.0844   -1.3250 H   0  0  0  0  0  0  0  0  0  0  0  0
   -4.0411   -0.6677    2.1164 H   0  0  0  0  0  0  0  0  0  0  0  0
   -4.5682   -2.0645    1.1471 H   0  0  0  0  0  0  0  0  0  0  0  0
   -2.8613   -1.5599    1.1261 H   0  0  0  0  0  0  0  0  0  0  0  0
   -5.5631   -1.0276   -1.4285 H   0  0  0  0  0  0  0  0  0  0  0  0
   -6.2930   -0.5510    0.1234 H   0  0  0  0  0  0  0  0  0  0  0  0
   -5.7515    0.6959   -1.0256 H   0  0  0  0  0  0  0  0  0  0  0  0
    1.4361   -1.2022   -1.1894 H   0  0  0  0  0  0  0  0  0  0  0  0
    1.7642    0.4687   -1.7079 H   0  0  0  0  0  0  0  0  0  0  0  0
    5.5168    0.4004    0.4465 H   0  0  0  0  0  0  0  0  0  0  0  0
    5.1887   -1.2705    0.9650 H   0  0  0  0  0  0  0  0  0  0  0  0
    6.1471   -0.9663   -0.5038 H   0  0  0  0  0  0  0  0  0  0  0  0
  1  2  1  0  0  0  0
  2  3  1  0  0  0  0
  3  4  1  0  0  0  0
  4  5  1  0  0  0  0
  5  6  2  0  0  0  0
  6  7  1  0  0  0  0
  6  8  1  0  0  0  0
  2  9  1  0  0  0  0
  9 10  1  0  0  0  0
 10 11  2  0  0  0  0
 10 12  1  0  0  0  0
 12 13  1  0  0  0  0
  1 14  1  0  0  0  0
  1 15  1  0  0  0  0
  1 16  1  0  0  0  0
  2 17  1  0  0  0  0
  3 18  1  0  0  0  0
  3 19  1  0  0  0  0
  4 20  1  0  0  0  0
  4 21  1  0  0  0  0
  5 22  1  0  0  0  0
  7 23  1  0  0  0  0
  7 24  1  0  0  0  0
  7 25  1  0  0  0  0
  8 26  1  0  0  0  0
  8 27  1  0  0  0  0
  8 28  1  0  0  0  0
  9 29  1  0  0  0  0
  9 30  1  0  0  0  0
 13 31  1  0  0  0  0
 13 32  1  0  0  0  0
 13 33  1  0  0  0  0
M  END
$$$$
