C17H18O7
APtclcactv06231803053D 0   0.00000     0.00000
 
 42 44  0  0  0  0  0  0  0  0999 V2000
    4.1627    1.4313   -1.2720 C   0  0  0  0  0  0  0  0  0  0  0  0
    4.4499    0.1441   -0.4966 C   0  0  0  0  0  0  0  0  0  0  0  0
    5.8217    0.2474    0.1731 C   0  0  0  0  0  0  0  0  0  0  0  0
    3.3743   -0.0580    0.5726 C   0  0  0  0  0  0  0  0  0  0  0  0
    2.0025   -0.1613   -0.0970 C   0  0  0  0  0  0  0  0  0  0  0  0
    0.9871   -0.2331    0.9058 O   0  0  0  0  0  0  0  0  0  0  0  0
   -0.3010   -0.3295    0.4754 C   0  0  0  0  0  0  0  0  0  0  0  0
   -0.8688   -1.5820    0.2599 C   0  0  0  0  0  0  0  0  0  0  0  0
   -2.1999   -1.6820   -0.1844 C   0  0  0  0  0  0  0  0  0  0  0  0
   -2.9574   -0.5341   -0.4113 C   0  0  0  0  0  0  0  0  0  0  0  0
   -2.3785    0.7223   -0.1920 C   0  0  0  0  0  0  0  0  0  0  0  0
   -1.0449    0.8195    0.2587 C   0  0  0  0  0  0  0  0  0  0  0  0
   -0.4966    2.0391    0.4676 O   0  0  0  0  0  0  0  0  0  0  0  0
   -1.1930    3.1665    0.2557 C   0  0  0  0  0  0  0  0  0  0  0  0
   -0.6566    4.2412    0.4577 O   0  0  0  0  0  0  0  0  0  0  0  0
   -2.5280    3.1403   -0.1945 C   0  0  0  0  0  0  0  0  0  0  0  0
   -3.1429    1.9492   -0.4189 C   0  0  0  0  0  0  0  0  0  0  0  0
   -4.2413   -0.6327   -0.8404 O   0  0  0  0  0  0  0  0  0  0  0  0
   -5.2566   -0.7061    0.1625 C   0  0  0  0  0  0  0  0  0  0  0  0
   -2.4672   -3.1219   -0.3042 C   0  0  0  0  0  0  0  0  0  0  0  0
   -1.3375   -3.7424    0.0576 C   0  0  0  0  0  0  0  0  0  0  0  0
   -0.3969   -2.8397    0.3895 O   0  0  0  0  0  0  0  0  0  0  0  0
    3.6426   -1.2603    1.2969 O   0  0  0  0  0  0  0  0  0  0  0  0
    4.4415   -0.9660   -1.3964 O   0  0  0  0  0  0  0  0  0  0  0  0
    4.9289    1.5753   -2.0338 H   0  0  0  0  0  0  0  0  0  0  0  0
    3.1854    1.3577   -1.7491 H   0  0  0  0  0  0  0  0  0  0  0  0
    4.1690    2.2781   -0.5857 H   0  0  0  0  0  0  0  0  0  0  0  0
    5.8280    1.0942    0.8595 H   0  0  0  0  0  0  0  0  0  0  0  0
    6.0263   -0.6697    0.7256 H   0  0  0  0  0  0  0  0  0  0  0  0
    6.5879    0.3914   -0.5886 H   0  0  0  0  0  0  0  0  0  0  0  0
    3.3807    0.7888    1.2590 H   0  0  0  0  0  0  0  0  0  0  0  0
    1.8357    0.7168   -0.7209 H   0  0  0  0  0  0  0  0  0  0  0  0
    1.9667   -1.0583   -0.7152 H   0  0  0  0  0  0  0  0  0  0  0  0
   -3.0628    4.0644   -0.3564 H   0  0  0  0  0  0  0  0  0  0  0  0
   -4.1654    1.9095   -0.7643 H   0  0  0  0  0  0  0  0  0  0  0  0
   -5.0881   -1.5838    0.7865 H   0  0  0  0  0  0  0  0  0  0  0  0
   -5.2224    0.1911    0.7805 H   0  0  0  0  0  0  0  0  0  0  0  0
   -6.2338   -0.7816   -0.3146 H   0  0  0  0  0  0  0  0  0  0  0  0
   -3.3896   -3.5862   -0.6203 H   0  0  0  0  0  0  0  0  0  0  0  0
   -1.2009   -4.8135    0.0799 H   0  0  0  0  0  0  0  0  0  0  0  0
    3.6523   -2.0563    0.7480 H   0  0  0  0  0  0  0  0  0  0  0  0
    4.6169   -1.8173   -0.9725 H   0  0  0  0  0  0  0  0  0  0  0  0
  1  2  1  0  0  0  0
  2  3  1  0  0  0  0
  2  4  1  0  0  0  0
  4  5  1  0  0  0  0
  5  6  1  0  0  0  0
  6  7  1  0  0  0  0
  7  8  2  0  0  0  0
  8  9  1  0  0  0  0
  9 10  2  0  0  0  0
 10 11  1  0  0  0  0
 11 12  2  0  0  0  0
  7 12  1  0  0  0  0
 12 13  1  0  0  0  0
 13 14  1  0  0  0  0
 14 15  2  0  0  0  0
 14 16  1  0  0  0  0
 16 17  2  0  0  0  0
 11 17  1  0  0  0  0
 10 18  1  0  0  0  0
 18 19  1  0  0  0  0
  9 20  1  0  0  0  0
 20 21  2  0  0  0  0
 21 22  1  0  0  0  0
  8 22  1  0  0  0  0
  4 23  1  0  0  0  0
  2 24  1  0  0  0  0
  1 25  1  0  0  0  0
  1 26  1  0  0  0  0
  1 27  1  0  0  0  0
  3 28  1  0  0  0  0
  3 29  1  0  0  0  0
  3 30  1  0  0  0  0
  4 31  1  0  0  0  0
  5 32  1  0  0  0  0
  5 33  1  0  0  0  0
 16 34  1  0  0  0  0
 17 35  1  0  0  0  0
 19 36  1  0  0  0  0
 19 37  1  0  0  0  0
 19 38  1  0  0  0  0
 20 39  1  0  0  0  0
 21 40  1  0  0  0  0
 23 41  1  0  0  0  0
 24 42  1  0  0  0  0
M  END
$$$$
