C4H8S2
APtclcactv06281817093D 0   0.00000     0.00000
 
 14 13  0  0  0  0  0  0  0  0999 V2000
    3.5112    0.7396    0.1927 C   0  0  0  0  0  0  0  0  0  0  0  0
    2.3710   -0.1578   -0.2145 C   0  0  0  0  0  0  0  0  0  0  0  0
    1.1392    0.1226    0.1721 C   0  0  0  0  0  0  0  0  0  0  0  0
   -0.1939   -0.9266   -0.3041 S   0  0  0  0  0  0  0  0  0  0  0  0
   -1.8207   -0.0251    0.5580 S   0  0  0  0  0  0  0  0  0  0  0  0
   -2.2909    1.2266   -0.6679 C   0  0  0  0  0  0  0  0  0  0  0  0
    3.5775    0.7720    1.2802 H   0  0  0  0  0  0  0  0  0  0  0  0
    4.4436    0.3509   -0.2167 H   0  0  0  0  0  0  0  0  0  0  0  0
    3.3372    1.7449   -0.1908 H   0  0  0  0  0  0  0  0  0  0  0  0
    2.5609   -1.0300   -0.8225 H   0  0  0  0  0  0  0  0  0  0  0  0
    0.9494    0.9948    0.7800 H   0  0  0  0  0  0  0  0  0  0  0  0
   -2.5338    0.7378   -1.6114 H   0  0  0  0  0  0  0  0  0  0  0  0
   -3.1606    1.7774   -0.3096 H   0  0  0  0  0  0  0  0  0  0  0  0
   -1.4609    1.9166   -0.8193 H   0  0  0  0  0  0  0  0  0  0  0  0
  1  2  1  0  0  0  0
  2  3  2  0  0  0  0
  3  4  1  0  0  0  0
  4  5  1  0  0  0  0
  5  6  1  0  0  0  0
  1  7  1  0  0  0  0
  1  8  1  0  0  0  0
  1  9  1  0  0  0  0
  2 10  1  0  0  0  0
  3 11  1  0  0  0  0
  6 12  1  0  0  0  0
  6 13  1  0  0  0  0
  6 14  1  0  0  0  0
M  END
$$$$
