C5H10O2S
APtclcactv06211806233D 0   0.00000     0.00000
 
 18 17  0  0  0  0  0  0  0  0999 V2000
    3.9268   -0.0893    0.0000 C   0  0  0  0  0  0  0  0  0  0  0  0
    2.6929    0.6762    0.0000 O   0  0  0  0  0  0  0  0  0  0  0  0
    1.5446   -0.0189   -0.0000 C   0  0  0  0  0  0  0  0  0  0  0  0
    1.5697   -1.2269   -0.0000 O   0  0  0  0  0  0  0  0  0  0  0  0
    0.2242    0.7074    0.0000 C   0  0  0  0  0  0  0  0  0  0  0  0
   -0.9179   -0.3107    0.0000 C   0  0  0  0  0  0  0  0  0  0  0  0
   -2.5073    0.5636   -0.0000 S   0  0  0  0  0  0  0  0  0  0  0  0
   -3.7167   -0.7884    0.0000 C   0  0  0  0  0  0  0  0  0  0  0  0
    3.9647   -0.7174    0.8900 H   0  0  0  0  0  0  0  0  0  0  0  0
    3.9647   -0.7174   -0.8900 H   0  0  0  0  0  0  0  0  0  0  0  0
    4.7773    0.5925    0.0000 H   0  0  0  0  0  0  0  0  0  0  0  0
    0.1535    1.3327    0.8900 H   0  0  0  0  0  0  0  0  0  0  0  0
    0.1535    1.3327   -0.8900 H   0  0  0  0  0  0  0  0  0  0  0  0
   -0.8472   -0.9360   -0.8900 H   0  0  0  0  0  0  0  0  0  0  0  0
   -0.8472   -0.9360    0.8900 H   0  0  0  0  0  0  0  0  0  0  0  0
   -3.5760   -1.4018    0.8900 H   0  0  0  0  0  0  0  0  0  0  0  0
   -4.7249   -0.3741    0.0000 H   0  0  0  0  0  0  0  0  0  0  0  0
   -3.5760   -1.4018   -0.8900 H   0  0  0  0  0  0  0  0  0  0  0  0
  1  2  1  0  0  0  0
  2  3  1  0  0  0  0
  3  4  2  0  0  0  0
  3  5  1  0  0  0  0
  5  6  1  0  0  0  0
  6  7  1  0  0  0  0
  7  8  1  0  0  0  0
  1  9  1  0  0  0  0
  1 10  1  0  0  0  0
  1 11  1  0  0  0  0
  5 12  1  0  0  0  0
  5 13  1  0  0  0  0
  6 14  1  0  0  0  0
  6 15  1  0  0  0  0
  8 16  1  0  0  0  0
  8 17  1  0  0  0  0
  8 18  1  0  0  0  0
M  END
$$$$
