C6H9NS
APtclcactv06211806233D 0   0.00000     0.00000
 
 17 17  0  0  0  0  0  0  0  0999 V2000
    1.9687   -1.7659    0.0014 C   0  0  0  0  0  0  0  0  0  0  0  0
    0.8060   -0.8071    0.0010 C   0  0  0  0  0  0  0  0  0  0  0  0
    0.9633    0.5200    0.0002 C   0  0  0  0  0  0  0  0  0  0  0  0
   -0.6377    1.2557   -0.0000 S   0  0  0  0  0  0  0  0  0  0  0  0
   -1.3594   -0.2943    0.0009 C   0  0  0  0  0  0  0  0  0  0  0  0
   -0.4491   -1.2087   -0.0042 N   0  0  0  0  0  0  0  0  0  0  0  0
   -2.8437   -0.5547    0.0012 C   0  0  0  0  0  0  0  0  0  0  0  0
    2.2777    1.2570   -0.0004 C   0  0  0  0  0  0  0  0  0  0  0  0
    2.2492   -1.9964    1.0292 H   0  0  0  0  0  0  0  0  0  0  0  0
    1.6828   -2.6840   -0.5118 H   0  0  0  0  0  0  0  0  0  0  0  0
    2.8152   -1.3106   -0.5127 H   0  0  0  0  0  0  0  0  0  0  0  0
   -3.2016   -0.6181   -1.0263 H   0  0  0  0  0  0  0  0  0  0  0  0
   -3.0477   -1.4938    0.5157 H   0  0  0  0  0  0  0  0  0  0  0  0
   -3.3553    0.2594    0.5146 H   0  0  0  0  0  0  0  0  0  0  0  0
    2.5945    1.4341   -1.0282 H   0  0  0  0  0  0  0  0  0  0  0  0
    2.1594    2.2113    0.5129 H   0  0  0  0  0  0  0  0  0  0  0  0
    3.0300    0.6587    0.5137 H   0  0  0  0  0  0  0  0  0  0  0  0
  1  2  1  0  0  0  0
  2  3  2  0  0  0  0
  3  4  1  0  0  0  0
  4  5  1  0  0  0  0
  5  6  2  0  0  0  0
  2  6  1  0  0  0  0
  5  7  1  0  0  0  0
  3  8  1  0  0  0  0
  1  9  1  0  0  0  0
  1 10  1  0  0  0  0
  1 11  1  0  0  0  0
  7 12  1  0  0  0  0
  7 13  1  0  0  0  0
  7 14  1  0  0  0  0
  8 15  1  0  0  0  0
  8 16  1  0  0  0  0
  8 17  1  0  0  0  0
M  END
$$$$
