C8H12N2
APtclcactv06211806233D 0   0.00000     0.00000
 
 22 22  0  0  0  0  0  0  0  0999 V2000
    3.5360   -0.2039   -0.1422 C   0  0  0  0  0  0  0  0  0  0  0  0
    2.0376   -0.0794   -0.0411 C   0  0  0  0  0  0  0  0  0  0  0  0
    1.4667    1.1273    0.3223 C   0  0  0  0  0  0  0  0  0  0  0  0
    0.1526    1.2366    0.4105 N   0  0  0  0  0  0  0  0  0  0  0  0
   -0.6159    0.1936    0.1516 C   0  0  0  0  0  0  0  0  0  0  0  0
   -0.0449   -1.0134   -0.2119 C   0  0  0  0  0  0  0  0  0  0  0  0
    1.2687   -1.1213   -0.3049 N   0  0  0  0  0  0  0  0  0  0  0  0
   -2.1144    0.3182    0.2527 C   0  0  0  0  0  0  0  0  0  0  0  0
   -2.6947    0.6277   -1.1287 C   0  0  0  0  0  0  0  0  0  0  0  0
   -2.7017   -0.9966    0.7697 C   0  0  0  0  0  0  0  0  0  0  0  0
    3.9409   -0.5110    0.8221 H   0  0  0  0  0  0  0  0  0  0  0  0
    3.7886   -0.9492   -0.8963 H   0  0  0  0  0  0  0  0  0  0  0  0
    3.9623    0.7585   -0.4254 H   0  0  0  0  0  0  0  0  0  0  0  0
    2.0950    1.9798    0.5342 H   0  0  0  0  0  0  0  0  0  0  0  0
   -0.6731   -1.8661   -0.4234 H   0  0  0  0  0  0  0  0  0  0  0  0
   -2.3663    1.1244    0.9416 H   0  0  0  0  0  0  0  0  0  0  0  0
   -2.4428   -0.1786   -1.8176 H   0  0  0  0  0  0  0  0  0  0  0  0
   -3.7786    0.7178   -1.0556 H   0  0  0  0  0  0  0  0  0  0  0  0
   -2.2763    1.5644   -1.4970 H   0  0  0  0  0  0  0  0  0  0  0  0
   -2.2883   -1.2171    1.7539 H   0  0  0  0  0  0  0  0  0  0  0  0
   -3.7855   -0.9065    0.8429 H   0  0  0  0  0  0  0  0  0  0  0  0
   -2.4498   -1.8028    0.0808 H   0  0  0  0  0  0  0  0  0  0  0  0
  1  2  1  0  0  0  0
  2  3  2  0  0  0  0
  3  4  1  0  0  0  0
  4  5  2  0  0  0  0
  5  6  1  0  0  0  0
  6  7  2  0  0  0  0
  2  7  1  0  0  0  0
  5  8  1  0  0  0  0
  8  9  1  0  0  0  0
  8 10  1  0  0  0  0
  1 11  1  0  0  0  0
  1 12  1  0  0  0  0
  1 13  1  0  0  0  0
  3 14  1  0  0  0  0
  6 15  1  0  0  0  0
  8 16  1  0  0  0  0
  9 17  1  0  0  0  0
  9 18  1  0  0  0  0
  9 19  1  0  0  0  0
 10 20  1  0  0  0  0
 10 21  1  0  0  0  0
 10 22  1  0  0  0  0
M  END
$$$$
