C13H18O4
APtclcactv06231803053D 0   0.00000     0.00000
 
 35 35  0  0  0  0  0  0  0  0999 V2000
    1.4244    3.6211   -0.4473 C   0  0  0  0  0  0  0  0  0  0  0  0
    1.9555    2.2983   -0.3467 O   0  0  0  0  0  0  0  0  0  0  0  0
    1.0603    1.2739   -0.3164 C   0  0  0  0  0  0  0  0  0  0  0  0
    1.5088   -0.0384   -0.2194 C   0  0  0  0  0  0  0  0  0  0  0  0
    0.5930   -1.0820   -0.1887 C   0  0  0  0  0  0  0  0  0  0  0  0
   -0.7688   -0.8106   -0.2551 C   0  0  0  0  0  0  0  0  0  0  0  0
   -1.2103    0.4996   -0.3517 C   0  0  0  0  0  0  0  0  0  0  0  0
   -0.2987    1.5391   -0.3765 C   0  0  0  0  0  0  0  0  0  0  0  0
   -2.6869    0.7923   -0.4235 C   0  0  0  0  0  0  0  0  0  0  0  0
   -3.2758    0.7478    0.9629 C   0  0  0  0  0  0  0  0  0  0  0  0
   -3.9083    1.7912    1.4397 C   0  0  0  0  0  0  0  0  0  0  0  0
   -1.6682   -1.8312   -0.2257 O   0  0  0  0  0  0  0  0  0  0  0  0
   -1.9657   -2.4698   -1.4690 C   0  0  0  0  0  0  0  0  0  0  0  0
    1.0280   -2.3681   -0.0944 O   0  0  0  0  0  0  0  0  0  0  0  0
    1.0644   -2.9464    1.2119 C   0  0  0  0  0  0  0  0  0  0  0  0
    2.8428   -0.3000   -0.1552 O   0  0  0  0  0  0  0  0  0  0  0  0
    3.4585   -0.2191    1.1319 C   0  0  0  0  0  0  0  0  0  0  0  0
    0.8450    3.7111   -1.3662 H   0  0  0  0  0  0  0  0  0  0  0  0
    0.7803    3.8202    0.4093 H   0  0  0  0  0  0  0  0  0  0  0  0
    2.2427    4.3410   -0.4617 H   0  0  0  0  0  0  0  0  0  0  0  0
   -0.6460    2.5590   -0.4514 H   0  0  0  0  0  0  0  0  0  0  0  0
   -2.8405    1.7828   -0.8519 H   0  0  0  0  0  0  0  0  0  0  0  0
   -3.1752    0.0458   -1.0499 H   0  0  0  0  0  0  0  0  0  0  0  0
   -3.1765   -0.1443    1.5634 H   0  0  0  0  0  0  0  0  0  0  0  0
   -4.3304    1.7593    2.4333 H   0  0  0  0  0  0  0  0  0  0  0  0
   -4.0077    2.6834    0.8392 H   0  0  0  0  0  0  0  0  0  0  0  0
   -2.2920   -1.7226   -2.1923 H   0  0  0  0  0  0  0  0  0  0  0  0
   -1.0730   -2.9716   -1.8425 H   0  0  0  0  0  0  0  0  0  0  0  0
   -2.7590   -3.2025   -1.3205 H   0  0  0  0  0  0  0  0  0  0  0  0
    1.5148   -3.9376    1.1580 H   0  0  0  0  0  0  0  0  0  0  0  0
    1.6565   -2.3137    1.8730 H   0  0  0  0  0  0  0  0  0  0  0  0
    0.0496   -3.0292    1.6010 H   0  0  0  0  0  0  0  0  0  0  0  0
    3.2614    0.7602    1.5681 H   0  0  0  0  0  0  0  0  0  0  0  0
    3.0494   -0.9944    1.7797 H   0  0  0  0  0  0  0  0  0  0  0  0
    4.5343   -0.3614    1.0296 H   0  0  0  0  0  0  0  0  0  0  0  0
  1  2  1  0  0  0  0
  2  3  1  0  0  0  0
  3  4  2  0  0  0  0
  4  5  1  0  0  0  0
  5  6  2  0  0  0  0
  6  7  1  0  0  0  0
  7  8  2  0  0  0  0
  3  8  1  0  0  0  0
  7  9  1  0  0  0  0
  9 10  1  0  0  0  0
 10 11  2  0  0  0  0
  6 12  1  0  0  0  0
 12 13  1  0  0  0  0
  5 14  1  0  0  0  0
 14 15  1  0  0  0  0
  4 16  1  0  0  0  0
 16 17  1  0  0  0  0
  1 18  1  0  0  0  0
  1 19  1  0  0  0  0
  1 20  1  0  0  0  0
  8 21  1  0  0  0  0
  9 22  1  0  0  0  0
  9 23  1  0  0  0  0
 10 24  1  0  0  0  0
 11 25  1  0  0  0  0
 11 26  1  0  0  0  0
 13 27  1  0  0  0  0
 13 28  1  0  0  0  0
 13 29  1  0  0  0  0
 15 30  1  0  0  0  0
 15 31  1  0  0  0  0
 15 32  1  0  0  0  0
 17 33  1  0  0  0  0
 17 34  1  0  0  0  0
 17 35  1  0  0  0  0
M  END
$$$$
