C7H11NS
APtclcactv06211806233D 0   0.00000     0.00000
 
 20 20  0  0  0  0  0  0  0  0999 V2000
    3.1659   -1.0733    0.0023 C   0  0  0  0  0  0  0  0  0  0  0  0
    1.8415   -0.3542    0.0013 C   0  0  0  0  0  0  0  0  0  0  0  0
    1.7425    0.9785   -0.0005 C   0  0  0  0  0  0  0  0  0  0  0  0
    0.0305    1.3951   -0.0012 S   0  0  0  0  0  0  0  0  0  0  0  0
   -0.3820   -0.2642    0.0010 C   0  0  0  0  0  0  0  0  0  0  0  0
    0.6862   -0.9881   -0.0036 N   0  0  0  0  0  0  0  0  0  0  0  0
   -1.7893   -0.8033    0.0015 C   0  0  0  0  0  0  0  0  0  0  0  0
   -2.5238   -0.3100    1.2497 C   0  0  0  0  0  0  0  0  0  0  0  0
   -2.5232   -0.3143   -1.2487 C   0  0  0  0  0  0  0  0  0  0  0  0
    3.4849   -1.2457    1.0303 H   0  0  0  0  0  0  0  0  0  0  0  0
    3.0607   -2.0293   -0.5106 H   0  0  0  0  0  0  0  0  0  0  0  0
    3.9100   -0.4651   -0.5119 H   0  0  0  0  0  0  0  0  0  0  0  0
    2.5663    1.6768   -0.0014 H   0  0  0  0  0  0  0  0  0  0  0  0
   -1.7610   -1.8929    0.0035 H   0  0  0  0  0  0  0  0  0  0  0  0
   -2.5521    0.7797    1.2478 H   0  0  0  0  0  0  0  0  0  0  0  0
   -3.5417   -0.6998    1.2502 H   0  0  0  0  0  0  0  0  0  0  0  0
   -2.0009   -0.6583    2.1405 H   0  0  0  0  0  0  0  0  0  0  0  0
   -1.9999   -0.6658   -2.1380 H   0  0  0  0  0  0  0  0  0  0  0  0
   -3.5411   -0.7042   -1.2483 H   0  0  0  0  0  0  0  0  0  0  0  0
   -2.5515    0.7753   -1.2506 H   0  0  0  0  0  0  0  0  0  0  0  0
  1  2  1  0  0  0  0
  2  3  2  0  0  0  0
  3  4  1  0  0  0  0
  4  5  1  0  0  0  0
  5  6  2  0  0  0  0
  2  6  1  0  0  0  0
  5  7  1  0  0  0  0
  7  8  1  0  0  0  0
  7  9  1  0  0  0  0
  1 10  1  0  0  0  0
  1 11  1  0  0  0  0
  1 12  1  0  0  0  0
  3 13  1  0  0  0  0
  7 14  1  0  0  0  0
  8 15  1  0  0  0  0
  8 16  1  0  0  0  0
  8 17  1  0  0  0  0
  9 18  1  0  0  0  0
  9 19  1  0  0  0  0
  9 20  1  0  0  0  0
M  END
$$$$
