C15H14O4
APtclcactv06231803053D 0   0.00000     0.00000
 
 33 35  0  0  0  0  0  0  0  0999 V2000
   -2.8463    1.1306    1.6602 C   0  0  0  0  0  0  0  0  0  0  0  0
   -2.8020    1.2641    0.1367 C   0  0  0  0  0  0  0  0  0  0  0  0
   -1.8360    2.3570   -0.2385 C   0  0  0  0  0  0  0  0  0  0  0  0
   -0.5491    2.0708   -0.4269 C   0  0  0  0  0  0  0  0  0  0  0  0
   -0.1186    0.6653   -0.2689 C   0  0  0  0  0  0  0  0  0  0  0  0
    1.2299    0.3330   -0.1132 C   0  0  0  0  0  0  0  0  0  0  0  0
    1.5846   -1.0194    0.0337 C   0  0  0  0  0  0  0  0  0  0  0  0
    0.5983   -2.0146    0.0243 C   0  0  0  0  0  0  0  0  0  0  0  0
   -0.7296   -1.6734   -0.1310 C   0  0  0  0  0  0  0  0  0  0  0  0
   -1.0948   -0.3370   -0.2785 C   0  0  0  0  0  0  0  0  0  0  0  0
   -2.3958    0.0196   -0.4337 O   0  0  0  0  0  0  0  0  0  0  0  0
   -1.6834   -2.6432   -0.1403 O   0  0  0  0  0  0  0  0  0  0  0  0
   -1.2386   -3.9922    0.0157 C   0  0  0  0  0  0  0  0  0  0  0  0
    2.9981   -1.3691    0.1957 C   0  0  0  0  0  0  0  0  0  0  0  0
    3.9047   -0.3565    0.1959 C   0  0  0  0  0  0  0  0  0  0  0  0
    3.4631    0.9720    0.0434 C   0  0  0  0  0  0  0  0  0  0  0  0
    4.2907    1.8658    0.0458 O   0  0  0  0  0  0  0  0  0  0  0  0
    2.1743    1.2935   -0.1045 O   0  0  0  0  0  0  0  0  0  0  0  0
   -4.1967    1.6239   -0.3793 C   0  0  0  0  0  0  0  0  0  0  0  0
   -3.1738    2.0735    2.0982 H   0  0  0  0  0  0  0  0  0  0  0  0
   -3.5446    0.3402    1.9355 H   0  0  0  0  0  0  0  0  0  0  0  0
   -1.8522    0.8830    2.0324 H   0  0  0  0  0  0  0  0  0  0  0  0
   -2.1867    3.3718   -0.3550 H   0  0  0  0  0  0  0  0  0  0  0  0
    0.1594    2.8430   -0.6879 H   0  0  0  0  0  0  0  0  0  0  0  0
    0.8783   -3.0514    0.1386 H   0  0  0  0  0  0  0  0  0  0  0  0
   -0.7238   -4.0969    0.9708 H   0  0  0  0  0  0  0  0  0  0  0  0
   -2.0972   -4.6632   -0.0096 H   0  0  0  0  0  0  0  0  0  0  0  0
   -0.5554   -4.2456   -0.7950 H   0  0  0  0  0  0  0  0  0  0  0  0
    3.3091   -2.3969    0.3115 H   0  0  0  0  0  0  0  0  0  0  0  0
    4.9570   -0.5693    0.3126 H   0  0  0  0  0  0  0  0  0  0  0  0
   -4.5143    2.5690    0.0610 H   0  0  0  0  0  0  0  0  0  0  0  0
   -4.1689    1.7198   -1.4647 H   0  0  0  0  0  0  0  0  0  0  0  0
   -4.9004    0.8391   -0.1018 H   0  0  0  0  0  0  0  0  0  0  0  0
  1  2  1  0  0  0  0
  2  3  1  0  0  0  0
  3  4  2  0  0  0  0
  4  5  1  0  0  0  0
  5  6  2  0  0  0  0
  6  7  1  0  0  0  0
  7  8  2  0  0  0  0
  8  9  1  0  0  0  0
  9 10  2  0  0  0  0
  5 10  1  0  0  0  0
 10 11  1  0  0  0  0
  2 11  1  0  0  0  0
  9 12  1  0  0  0  0
 12 13  1  0  0  0  0
  7 14  1  0  0  0  0
 14 15  2  0  0  0  0
 15 16  1  0  0  0  0
 16 17  2  0  0  0  0
 16 18  1  0  0  0  0
  6 18  1  0  0  0  0
  2 19  1  0  0  0  0
  1 20  1  0  0  0  0
  1 21  1  0  0  0  0
  1 22  1  0  0  0  0
  3 23  1  0  0  0  0
  4 24  1  0  0  0  0
  8 25  1  0  0  0  0
 13 26  1  0  0  0  0
 13 27  1  0  0  0  0
 13 28  1  0  0  0  0
 14 29  1  0  0  0  0
 15 30  1  0  0  0  0
 19 31  1  0  0  0  0
 19 32  1  0  0  0  0
 19 33  1  0  0  0  0
M  END
$$$$
