C32H50O4
APtclcactv06231803063D 0   0.00000     0.00000
 
 86 90  0  0  0  0  0  0  0  0999 V2000
    6.2020    2.7990   -1.1307 C   0  0  0  0  0  0  0  0  0  0  0  0
    5.4491    1.4736   -1.2955 C   0  0  0  0  0  0  0  0  0  0  0  0
    6.2489    0.3527   -0.6413 C   0  0  0  0  0  0  0  0  0  0  0  0
    5.4944   -0.9701   -0.7228 C   0  0  0  0  0  0  0  0  0  0  0  0
    4.1424   -0.8481    0.0082 C   0  0  0  0  0  0  0  0  0  0  0  0
    3.4261   -2.1882   -0.1057 C   0  0  0  0  0  0  0  0  0  0  0  0
    1.9346   -2.1099   -0.3492 C   0  0  0  0  0  0  0  0  0  0  0  0
    1.2638   -0.9175    0.3072 C   0  0  0  0  0  0  0  0  0  0  0  0
    1.9220    0.3500   -0.1527 C   0  0  0  0  0  0  0  0  0  0  0  0
    1.2866    1.4937   -0.2655 C   0  0  0  0  0  0  0  0  0  0  0  0
   -0.2146    1.5313    0.0041 C   0  0  0  0  0  0  0  0  0  0  0  0
   -0.7127    0.2566   -0.6757 C   0  0  0  0  0  0  0  0  0  0  0  0
   -0.2528   -0.9507    0.1027 C   0  0  0  0  0  0  0  0  0  0  0  0
   -0.7312   -2.2405   -0.5273 C   0  0  0  0  0  0  0  0  0  0  0  0
   -2.2246   -2.2347   -0.8650 C   0  0  0  0  0  0  0  0  0  0  0  0
   -2.9162   -0.9304   -0.5136 C   0  0  0  0  0  0  0  0  0  0  0  0
   -2.1744    0.2669   -1.0800 C   0  0  0  0  0  0  0  0  0  0  0  0
   -2.8553    1.5599   -0.6245 C   0  0  0  0  0  0  0  0  0  0  0  0
   -4.3143    1.5604   -1.0775 C   0  0  0  0  0  0  0  0  0  0  0  0
   -5.0661    0.3824   -0.4757 C   0  0  0  0  0  0  0  0  0  0  0  0
   -4.4097   -0.9589   -0.8056 C   0  0  0  0  0  0  0  0  0  0  0  0
   -4.7516   -1.3841   -2.2279 C   0  0  0  0  0  0  0  0  0  0  0  0
   -5.0523   -2.0010    0.1461 C   0  0  0  0  0  0  0  0  0  0  0  0
   -5.1334    0.5377    0.9702 O   0  0  0  0  0  0  0  0  0  0  0  0
   -6.1905    1.2020    1.4632 C   0  0  0  0  0  0  0  0  0  0  0  0
   -7.0318    1.6396    0.7145 O   0  0  0  0  0  0  0  0  0  0  0  0
   -6.3279    1.4020    2.9506 C   0  0  0  0  0  0  0  0  0  0  0  0
   -2.1779    0.2457   -2.6225 C   0  0  0  0  0  0  0  0  0  0  0  0
   -0.7681   -0.8990    1.5442 C   0  0  0  0  0  0  0  0  0  0  0  0
    3.3523    0.2691   -0.6332 C   0  0  0  0  0  0  0  0  0  0  0  0
    4.0562    1.6073   -0.6754 C   0  0  0  0  0  0  0  0  0  0  0  0
    4.1442    2.3242    0.6652 C   0  0  0  0  0  0  0  0  0  0  0  0
    1.4221   -1.0327    1.8275 C   0  0  0  0  0  0  0  0  0  0  0  0
    4.4573   -0.6150    1.4618 C   0  0  0  0  0  0  0  0  0  0  0  0
    3.9166    0.2845    2.0604 O   0  0  0  0  0  0  0  0  0  0  0  0
    5.3388   -1.4065    2.0929 O   0  0  0  0  0  0  0  0  0  0  0  0
    7.1795    2.7233   -1.6070 H   0  0  0  0  0  0  0  0  0  0  0  0
    5.6313    3.6016   -1.5980 H   0  0  0  0  0  0  0  0  0  0  0  0
    6.3304    3.0145   -0.0700 H   0  0  0  0  0  0  0  0  0  0  0  0
    5.3420    1.2627   -2.3642 H   0  0  0  0  0  0  0  0  0  0  0  0
    7.2013    0.2416   -1.1841 H   0  0  0  0  0  0  0  0  0  0  0  0
    6.4924    0.6044    0.3868 H   0  0  0  0  0  0  0  0  0  0  0  0
    5.3091   -1.2246   -1.7666 H   0  0  0  0  0  0  0  0  0  0  0  0
    6.0783   -1.7583   -0.2517 H   0  0  0  0  0  0  0  0  0  0  0  0
    3.8849   -2.7467   -0.9280 H   0  0  0  0  0  0  0  0  0  0  0  0
    3.6076   -2.7515    0.8138 H   0  0  0  0  0  0  0  0  0  0  0  0
    1.7576   -2.0710   -1.4307 H   0  0  0  0  0  0  0  0  0  0  0  0
    1.4736   -3.0319    0.0257 H   0  0  0  0  0  0  0  0  0  0  0  0
    1.7915    2.3971   -0.5615 H   0  0  0  0  0  0  0  0  0  0  0  0
   -0.4154    1.5618    1.0610 H   0  0  0  0  0  0  0  0  0  0  0  0
   -0.6336    2.4110   -0.4881 H   0  0  0  0  0  0  0  0  0  0  0  0
   -0.1498    0.2134   -1.6479 H   0  0  0  0  0  0  0  0  0  0  0  0
   -0.1675   -2.4323   -1.4496 H   0  0  0  0  0  0  0  0  0  0  0  0
   -0.5330   -3.0765    0.1585 H   0  0  0  0  0  0  0  0  0  0  0  0
   -2.3343   -2.4506   -1.9329 H   0  0  0  0  0  0  0  0  0  0  0  0
   -2.6936   -3.0644   -0.3202 H   0  0  0  0  0  0  0  0  0  0  0  0
   -2.9053   -0.8314    0.5968 H   0  0  0  0  0  0  0  0  0  0  0  0
   -2.8066    1.6333    0.4614 H   0  0  0  0  0  0  0  0  0  0  0  0
   -2.3446    2.4138   -1.0709 H   0  0  0  0  0  0  0  0  0  0  0  0
   -4.7836    2.4918   -0.7261 H   0  0  0  0  0  0  0  0  0  0  0  0
   -4.3878    1.5483   -2.1619 H   0  0  0  0  0  0  0  0  0  0  0  0
   -6.0906    0.3753   -0.8661 H   0  0  0  0  0  0  0  0  0  0  0  0
   -4.4809   -0.5870   -2.9204 H   0  0  0  0  0  0  0  0  0  0  0  0
   -4.1974   -2.2882   -2.4800 H   0  0  0  0  0  0  0  0  0  0  0  0
   -5.8211   -1.5812   -2.3011 H   0  0  0  0  0  0  0  0  0  0  0  0
   -6.1277   -2.0375   -0.0279 H   0  0  0  0  0  0  0  0  0  0  0  0
   -4.6197   -2.9831   -0.0452 H   0  0  0  0  0  0  0  0  0  0  0  0
   -4.8611   -1.7150    1.1804 H   0  0  0  0  0  0  0  0  0  0  0  0
   -5.8392    2.3328    3.2387 H   0  0  0  0  0  0  0  0  0  0  0  0
   -7.3843    1.4494    3.2147 H   0  0  0  0  0  0  0  0  0  0  0  0
   -5.8595    0.5685    3.4741 H   0  0  0  0  0  0  0  0  0  0  0  0
   -3.1912    0.4166   -2.9859 H   0  0  0  0  0  0  0  0  0  0  0  0
   -1.5202    1.0296   -2.9981 H   0  0  0  0  0  0  0  0  0  0  0  0
   -1.8247   -0.7239   -2.9733 H   0  0  0  0  0  0  0  0  0  0  0  0
   -1.8554   -0.9759    1.5443 H   0  0  0  0  0  0  0  0  0  0  0  0
   -0.3452   -1.7283    2.1112 H   0  0  0  0  0  0  0  0  0  0  0  0
   -0.4705    0.0440    2.0028 H   0  0  0  0  0  0  0  0  0  0  0  0
    3.2585   -0.0368   -1.7229 H   0  0  0  0  0  0  0  0  0  0  0  0
    3.4805    2.2696   -1.3579 H   0  0  0  0  0  0  0  0  0  0  0  0
    4.8788    1.8247    1.2968 H   0  0  0  0  0  0  0  0  0  0  0  0
    4.4467    3.3590    0.5047 H   0  0  0  0  0  0  0  0  0  0  0  0
    3.1700    2.3020    1.1536 H   0  0  0  0  0  0  0  0  0  0  0  0
    2.4770   -0.9521    2.0901 H   0  0  0  0  0  0  0  0  0  0  0  0
    0.8647   -0.2314    2.3126 H   0  0  0  0  0  0  0  0  0  0  0  0
    1.0373   -1.9965    2.1609 H   0  0  0  0  0  0  0  0  0  0  0  0
    5.5085   -1.2180    3.0260 H   0  0  0  0  0  0  0  0  0  0  0  0
  1  2  1  0  0  0  0
  2  3  1  0  0  0  0
  3  4  1  0  0  0  0
  4  5  1  0  0  0  0
  5  6  1  0  0  0  0
  6  7  1  0  0  0  0
  7  8  1  0  0  0  0
  8  9  1  0  0  0  0
  9 10  2  0  0  0  0
 10 11  1  0  0  0  0
 11 12  1  0  0  0  0
 12 13  1  0  0  0  0
  8 13  1  0  0  0  0
 13 14  1  0  0  0  0
 14 15  1  0  0  0  0
 15 16  1  0  0  0  0
 16 17  1  0  0  0  0
 12 17  1  0  0  0  0
 17 18  1  0  0  0  0
 18 19  1  0  0  0  0
 19 20  1  0  0  0  0
 20 21  1  0  0  0  0
 16 21  1  0  0  0  0
 21 22  1  0  0  0  0
 21 23  1  0  0  0  0
 20 24  1  0  0  0  0
 24 25  1  0  0  0  0
 25 26  2  0  0  0  0
 25 27  1  0  0  0  0
 17 28  1  0  0  0  0
 13 29  1  0  0  0  0
  9 30  1  0  0  0  0
  5 30  1  0  0  0  0
 30 31  1  0  0  0  0
  2 31  1  0  0  0  0
 31 32  1  0  0  0  0
  8 33  1  0  0  0  0
  5 34  1  0  0  0  0
 34 35  2  0  0  0  0
 34 36  1  0  0  0  0
  1 37  1  0  0  0  0
  1 38  1  0  0  0  0
  1 39  1  0  0  0  0
  2 40  1  0  0  0  0
  3 41  1  0  0  0  0
  3 42  1  0  0  0  0
  4 43  1  0  0  0  0
  4 44  1  0  0  0  0
  6 45  1  0  0  0  0
  6 46  1  0  0  0  0
  7 47  1  0  0  0  0
  7 48  1  0  0  0  0
 10 49  1  0  0  0  0
 11 50  1  0  0  0  0
 11 51  1  0  0  0  0
 12 52  1  0  0  0  0
 14 53  1  0  0  0  0
 14 54  1  0  0  0  0
 15 55  1  0  0  0  0
 15 56  1  0  0  0  0
 16 57  1  0  0  0  0
 18 58  1  0  0  0  0
 18 59  1  0  0  0  0
 19 60  1  0  0  0  0
 19 61  1  0  0  0  0
 20 62  1  0  0  0  0
 22 63  1  0  0  0  0
 22 64  1  0  0  0  0
 22 65  1  0  0  0  0
 23 66  1  0  0  0  0
 23 67  1  0  0  0  0
 23 68  1  0  0  0  0
 27 69  1  0  0  0  0
 27 70  1  0  0  0  0
 27 71  1  0  0  0  0
 28 72  1  0  0  0  0
 28 73  1  0  0  0  0
 28 74  1  0  0  0  0
 29 75  1  0  0  0  0
 29 76  1  0  0  0  0
 29 77  1  0  0  0  0
 30 78  1  0  0  0  0
 31 79  1  0  0  0  0
 32 80  1  0  0  0  0
 32 81  1  0  0  0  0
 32 82  1  0  0  0  0
 33 83  1  0  0  0  0
 33 84  1  0  0  0  0
 33 85  1  0  0  0  0
 36 86  1  0  0  0  0
M  END
$$$$
