C4H8S3
APtclcactv06211806233D 0   0.00000     0.00000
 
 15 14  0  0  0  0  0  0  0  0999 V2000
    3.3889   -0.4973   -0.2302 C   0  0  0  0  0  0  0  0  0  0  0  0
    2.1125    0.4431    0.6511 S   0  0  0  0  0  0  0  0  0  0  0  0
    0.5910    0.5511   -0.7185 S   0  0  0  0  0  0  0  0  0  0  0  0
   -0.6068   -1.0307   -0.2028 S   0  0  0  0  0  0  0  0  0  0  0  0
   -1.8494   -0.2670    0.8757 C   0  0  0  0  0  0  0  0  0  0  0  0
   -2.7527    0.6164    0.0543 C   0  0  0  0  0  0  0  0  0  0  0  0
   -4.0224    0.3193   -0.0707 C   0  0  0  0  0  0  0  0  0  0  0  0
    3.6764    0.0394   -1.1343 H   0  0  0  0  0  0  0  0  0  0  0  0
    4.2604   -0.6182    0.4132 H   0  0  0  0  0  0  0  0  0  0  0  0
    2.9970   -1.4782   -0.4991 H   0  0  0  0  0  0  0  0  0  0  0  0
   -2.4417   -1.0459    1.3559 H   0  0  0  0  0  0  0  0  0  0  0  0
   -1.3505    0.3318    1.6377 H   0  0  0  0  0  0  0  0  0  0  0  0
   -2.3533    1.4945   -0.4313 H   0  0  0  0  0  0  0  0  0  0  0  0
   -4.6698    0.9524   -0.6593 H   0  0  0  0  0  0  0  0  0  0  0  0
   -4.4219   -0.5588    0.4150 H   0  0  0  0  0  0  0  0  0  0  0  0
  1  2  1  0  0  0  0
  2  3  1  0  0  0  0
  3  4  1  0  0  0  0
  4  5  1  0  0  0  0
  5  6  1  0  0  0  0
  6  7  2  0  0  0  0
  1  8  1  0  0  0  0
  1  9  1  0  0  0  0
  1 10  1  0  0  0  0
  5 11  1  0  0  0  0
  5 12  1  0  0  0  0
  6 13  1  0  0  0  0
  7 14  1  0  0  0  0
  7 15  1  0  0  0  0
M  END
$$$$
