C10H14O2
APtclcactv06211806233D 0   0.00000     0.00000
 
 26 27  0  0  0  0  0  0  0  0999 V2000
   -2.8894    1.6194   -0.0724 C   0  0  0  0  0  0  0  0  0  0  0  0
   -2.1535    0.3045   -0.0969 C   0  0  0  0  0  0  0  0  0  0  0  0
   -0.8640    0.2551    0.2438 C   0  0  0  0  0  0  0  0  0  0  0  0
   -0.1063    1.5210    0.5167 C   0  0  0  0  0  0  0  0  0  0  0  0
    1.2310    1.5574   -0.1913 C   0  0  0  0  0  0  0  0  0  0  0  0
    2.0076    0.2549   -0.1170 C   0  0  0  0  0  0  0  0  0  0  0  0
    1.2980   -1.0821    0.0658 C   0  0  0  0  0  0  0  0  0  0  0  0
   -0.1810   -1.0363    0.3596 C   0  0  0  0  0  0  0  0  0  0  0  0
   -0.7861   -2.0396    0.6748 O   0  0  0  0  0  0  0  0  0  0  0  0
    1.7901   -0.6673   -1.1988 O   0  0  0  0  0  0  0  0  0  0  0  0
    3.4376    0.3710    0.4146 C   0  0  0  0  0  0  0  0  0  0  0  0
   -2.8735   -0.9545   -0.5060 C   0  0  0  0  0  0  0  0  0  0  0  0
   -2.8018    2.1029   -1.0454 H   0  0  0  0  0  0  0  0  0  0  0  0
   -3.9413    1.4429    0.1522 H   0  0  0  0  0  0  0  0  0  0  0  0
   -2.4574    2.2634    0.6936 H   0  0  0  0  0  0  0  0  0  0  0  0
   -0.7049    2.3692    0.1844 H   0  0  0  0  0  0  0  0  0  0  0  0
    0.0602    1.6081    1.5904 H   0  0  0  0  0  0  0  0  0  0  0  0
    1.0617    1.8011   -1.2401 H   0  0  0  0  0  0  0  0  0  0  0  0
    1.8366    2.3481    0.2517 H   0  0  0  0  0  0  0  0  0  0  0  0
    1.8491   -1.8753    0.5712 H   0  0  0  0  0  0  0  0  0  0  0  0
    3.4251    0.3268    1.5036 H   0  0  0  0  0  0  0  0  0  0  0  0
    4.0381   -0.4509    0.0245 H   0  0  0  0  0  0  0  0  0  0  0  0
    3.8684    1.3196    0.0943 H   0  0  0  0  0  0  0  0  0  0  0  0
   -3.8822   -0.7054   -0.8355 H   0  0  0  0  0  0  0  0  0  0  0  0
   -2.3326   -1.4335   -1.3221 H   0  0  0  0  0  0  0  0  0  0  0  0
   -2.9266   -1.6352    0.3437 H   0  0  0  0  0  0  0  0  0  0  0  0
  1  2  1  0  0  0  0
  2  3  2  0  0  0  0
  3  4  1  0  0  0  0
  4  5  1  0  0  0  0
  5  6  1  0  0  0  0
  6  7  1  0  0  0  0
  7  8  1  0  0  0  0
  3  8  1  0  0  0  0
  8  9  2  0  0  0  0
  7 10  1  0  0  0  0
  6 10  1  0  0  0  0
  6 11  1  0  0  0  0
  2 12  1  0  0  0  0
  1 13  1  0  0  0  0
  1 14  1  0  0  0  0
  1 15  1  0  0  0  0
  4 16  1  0  0  0  0
  4 17  1  0  0  0  0
  5 18  1  0  0  0  0
  5 19  1  0  0  0  0
  7 20  1  0  0  0  0
 11 21  1  0  0  0  0
 11 22  1  0  0  0  0
 11 23  1  0  0  0  0
 12 24  1  0  0  0  0
 12 25  1  0  0  0  0
 12 26  1  0  0  0  0
M  END
$$$$
