C13H22O
APtclcactv06211806233D 0   0.00000     0.00000
 
 36 37  0  0  0  0  0  0  0  0999 V2000
    3.4782   -0.7047    0.5878 C   0  0  0  0  0  0  0  0  0  0  0  0
    2.2840    0.2013    0.2815 C   0  0  0  0  0  0  0  0  0  0  0  0
    2.0879    0.3120   -1.2433 C   0  0  0  0  0  0  0  0  0  0  0  0
    0.6480   -0.2073   -1.4800 C   0  0  0  0  0  0  0  0  0  0  0  0
    0.0146   -0.0508   -0.0795 C   0  0  0  0  0  0  0  0  0  0  0  0
    1.0829   -0.3716    0.8280 O   0  0  0  0  0  0  0  0  0  0  0  0
   -0.4482    1.3566    0.1242 C   0  0  0  0  0  0  0  0  0  0  0  0
   -1.6943    1.7151    0.1020 C   0  0  0  0  0  0  0  0  0  0  0  0
   -2.8336    0.7641   -0.1196 C   0  0  0  0  0  0  0  0  0  0  0  0
   -2.3275   -0.5390   -0.7412 C   0  0  0  0  0  0  0  0  0  0  0  0
   -1.1340   -1.0404    0.0831 C   0  0  0  0  0  0  0  0  0  0  0  0
   -0.7015   -2.4179   -0.4234 C   0  0  0  0  0  0  0  0  0  0  0  0
   -1.5296   -1.1311    1.5583 C   0  0  0  0  0  0  0  0  0  0  0  0
    0.5926    2.4184    0.3695 C   0  0  0  0  0  0  0  0  0  0  0  0
    4.3780   -0.2839    0.1390 H   0  0  0  0  0  0  0  0  0  0  0  0
    3.6110   -0.7785    1.6672 H   0  0  0  0  0  0  0  0  0  0  0  0
    3.2966   -1.6972    0.1754 H   0  0  0  0  0  0  0  0  0  0  0  0
    2.4514    1.1910    0.7064 H   0  0  0  0  0  0  0  0  0  0  0  0
    2.1769    1.3497   -1.5649 H   0  0  0  0  0  0  0  0  0  0  0  0
    2.8102   -0.3140   -1.7672 H   0  0  0  0  0  0  0  0  0  0  0  0
    0.1278    0.4088   -2.2134 H   0  0  0  0  0  0  0  0  0  0  0  0
    0.6572   -1.2528   -1.7884 H   0  0  0  0  0  0  0  0  0  0  0  0
   -1.9255    2.7593    0.2523 H   0  0  0  0  0  0  0  0  0  0  0  0
   -3.3122    0.5461    0.8351 H   0  0  0  0  0  0  0  0  0  0  0  0
   -3.5618    1.2234   -0.7881 H   0  0  0  0  0  0  0  0  0  0  0  0
   -3.1222   -1.2848   -0.7259 H   0  0  0  0  0  0  0  0  0  0  0  0
   -2.0125   -0.3564   -1.7686 H   0  0  0  0  0  0  0  0  0  0  0  0
   -0.5504   -2.3773   -1.5021 H   0  0  0  0  0  0  0  0  0  0  0  0
    0.2297   -2.7081    0.0633 H   0  0  0  0  0  0  0  0  0  0  0  0
   -1.4757   -3.1495   -0.1922 H   0  0  0  0  0  0  0  0  0  0  0  0
   -2.3629   -1.8250    1.6690 H   0  0  0  0  0  0  0  0  0  0  0  0
   -0.6802   -1.4874    2.1411 H   0  0  0  0  0  0  0  0  0  0  0  0
   -1.8276   -0.1455    1.9158 H   0  0  0  0  0  0  0  0  0  0  0  0
    1.3084    2.4224   -0.4526 H   0  0  0  0  0  0  0  0  0  0  0  0
    0.1089    3.3931    0.4348 H   0  0  0  0  0  0  0  0  0  0  0  0
    1.1133    2.2079    1.3036 H   0  0  0  0  0  0  0  0  0  0  0  0
  1  2  1  0  0  0  0
  2  3  1  0  0  0  0
  3  4  1  0  0  0  0
  4  5  1  0  0  0  0
  5  6  1  0  0  0  0
  2  6  1  0  0  0  0
  5  7  1  0  0  0  0
  7  8  2  0  0  0  0
  8  9  1  0  0  0  0
  9 10  1  0  0  0  0
 10 11  1  0  0  0  0
  5 11  1  0  0  0  0
 11 12  1  0  0  0  0
 11 13  1  0  0  0  0
  7 14  1  0  0  0  0
  1 15  1  0  0  0  0
  1 16  1  0  0  0  0
  1 17  1  0  0  0  0
  2 18  1  0  0  0  0
  3 19  1  0  0  0  0
  3 20  1  0  0  0  0
  4 21  1  0  0  0  0
  4 22  1  0  0  0  0
  8 23  1  0  0  0  0
  9 24  1  0  0  0  0
  9 25  1  0  0  0  0
 10 26  1  0  0  0  0
 10 27  1  0  0  0  0
 12 28  1  0  0  0  0
 12 29  1  0  0  0  0
 12 30  1  0  0  0  0
 13 31  1  0  0  0  0
 13 32  1  0  0  0  0
 13 33  1  0  0  0  0
 14 34  1  0  0  0  0
 14 35  1  0  0  0  0
 14 36  1  0  0  0  0
M  END
$$$$
