C16H12O3
APtclcactv06231803063D 0   0.00000     0.00000
 
 31 33  0  0  0  0  0  0  0  0999 V2000
    5.6821   -1.3827   -0.4948 C   0  0  0  0  0  0  0  0  0  0  0  0
    4.2666   -1.5100   -0.6438 O   0  0  0  0  0  0  0  0  0  0  0  0
    3.5030   -0.4848   -0.1823 C   0  0  0  0  0  0  0  0  0  0  0  0
    4.1057    0.6209    0.4021 C   0  0  0  0  0  0  0  0  0  0  0  0
    3.3341    1.6675    0.8733 C   0  0  0  0  0  0  0  0  0  0  0  0
    1.9597    1.6199    0.7657 C   0  0  0  0  0  0  0  0  0  0  0  0
    1.3439    0.5117    0.1792 C   0  0  0  0  0  0  0  0  0  0  0  0
    2.1245   -0.5412   -0.3004 C   0  0  0  0  0  0  0  0  0  0  0  0
   -0.1272    0.4568    0.0622 C   0  0  0  0  0  0  0  0  0  0  0  0
   -0.7989    1.5907   -0.2741 C   0  0  0  0  0  0  0  0  0  0  0  0
   -2.2084    1.5573   -0.3910 C   0  0  0  0  0  0  0  0  0  0  0  0
   -2.8437    2.5544   -0.6911 O   0  0  0  0  0  0  0  0  0  0  0  0
   -2.8796    0.2672   -0.1355 C   0  0  0  0  0  0  0  0  0  0  0  0
   -4.2641    0.1396   -0.2276 C   0  0  0  0  0  0  0  0  0  0  0  0
   -4.8523   -1.0824    0.0181 C   0  0  0  0  0  0  0  0  0  0  0  0
   -4.0727   -2.1787    0.3553 C   0  0  0  0  0  0  0  0  0  0  0  0
   -2.7016   -2.0649    0.4496 C   0  0  0  0  0  0  0  0  0  0  0  0
   -2.0892   -0.8421    0.2053 C   0  0  0  0  0  0  0  0  0  0  0  0
   -0.7488   -0.7109    0.2865 O   0  0  0  0  0  0  0  0  0  0  0  0
    5.9290   -1.2865    0.5625 H   0  0  0  0  0  0  0  0  0  0  0  0
    6.1715   -2.2669   -0.9032 H   0  0  0  0  0  0  0  0  0  0  0  0
    6.0257   -0.4975   -1.0301 H   0  0  0  0  0  0  0  0  0  0  0  0
    5.1814    0.6637    0.4895 H   0  0  0  0  0  0  0  0  0  0  0  0
    3.8091    2.5246    1.3272 H   0  0  0  0  0  0  0  0  0  0  0  0
    1.3602    2.4388    1.1350 H   0  0  0  0  0  0  0  0  0  0  0  0
    1.6545   -1.4008   -0.7549 H   0  0  0  0  0  0  0  0  0  0  0  0
   -0.2602    2.5100   -0.4504 H   0  0  0  0  0  0  0  0  0  0  0  0
   -4.8724    0.9927   -0.4895 H   0  0  0  0  0  0  0  0  0  0  0  0
   -5.9250   -1.1866   -0.0520 H   0  0  0  0  0  0  0  0  0  0  0  0
   -4.5443   -3.1313    0.5464 H   0  0  0  0  0  0  0  0  0  0  0  0
   -2.1046   -2.9254    0.7133 H   0  0  0  0  0  0  0  0  0  0  0  0
  1  2  1  0  0  0  0
  2  3  1  0  0  0  0
  3  4  2  0  0  0  0
  4  5  1  0  0  0  0
  5  6  2  0  0  0  0
  6  7  1  0  0  0  0
  7  8  2  0  0  0  0
  3  8  1  0  0  0  0
  7  9  1  0  0  0  0
  9 10  2  0  0  0  0
 10 11  1  0  0  0  0
 11 12  2  0  0  0  0
 11 13  1  0  0  0  0
 13 14  2  0  0  0  0
 14 15  1  0  0  0  0
 15 16  2  0  0  0  0
 16 17  1  0  0  0  0
 17 18  2  0  0  0  0
 13 18  1  0  0  0  0
 18 19  1  0  0  0  0
  9 19  1  0  0  0  0
  1 20  1  0  0  0  0
  1 21  1  0  0  0  0
  1 22  1  0  0  0  0
  4 23  1  0  0  0  0
  5 24  1  0  0  0  0
  6 25  1  0  0  0  0
  8 26  1  0  0  0  0
 10 27  1  0  0  0  0
 14 28  1  0  0  0  0
 15 29  1  0  0  0  0
 16 30  1  0  0  0  0
 17 31  1  0  0  0  0
M  END
$$$$
