C14H26O
APtclcactv06211806233D 0   0.00000     0.00000
 
 41 40  0  0  0  0  0  0  0  0999 V2000
   -7.3744    2.2867   -0.2413 C   0  0  0  0  0  0  0  0  0  0  0  0
   -6.8734    0.9638    0.3415 C   0  0  0  0  0  0  0  0  0  0  0  0
   -5.5234    0.6092   -0.2850 C   0  0  0  0  0  0  0  0  0  0  0  0
   -5.0223   -0.7137    0.2978 C   0  0  0  0  0  0  0  0  0  0  0  0
   -3.6926   -1.0629   -0.3192 C   0  0  0  0  0  0  0  0  0  0  0  0
   -2.6556   -1.2947    0.4470 C   0  0  0  0  0  0  0  0  0  0  0  0
   -1.3258   -1.6439   -0.1701 C   0  0  0  0  0  0  0  0  0  0  0  0
   -0.2573   -0.6740    0.3382 C   0  0  0  0  0  0  0  0  0  0  0  0
    1.0928   -1.0285   -0.2883 C   0  0  0  0  0  0  0  0  0  0  0  0
    2.1614   -0.0586    0.2200 C   0  0  0  0  0  0  0  0  0  0  0  0
    3.5114   -0.4131   -0.4065 C   0  0  0  0  0  0  0  0  0  0  0  0
    4.5800    0.5568    0.1018 C   0  0  0  0  0  0  0  0  0  0  0  0
    5.9301    0.2023   -0.5247 C   0  0  0  0  0  0  0  0  0  0  0  0
    6.9825    1.1576   -0.0240 C   0  0  0  0  0  0  0  0  0  0  0  0
    7.9834    0.7323    0.5009 O   0  0  0  0  0  0  0  0  0  0  0  0
   -7.4895    2.1878   -1.3207 H   0  0  0  0  0  0  0  0  0  0  0  0
   -8.3363    2.5393    0.2050 H   0  0  0  0  0  0  0  0  0  0  0  0
   -6.6544    3.0756   -0.0235 H   0  0  0  0  0  0  0  0  0  0  0  0
   -6.7583    1.0627    1.4209 H   0  0  0  0  0  0  0  0  0  0  0  0
   -7.5934    0.1749    0.1237 H   0  0  0  0  0  0  0  0  0  0  0  0
   -5.6385    0.5103   -1.3644 H   0  0  0  0  0  0  0  0  0  0  0  0
   -4.8034    1.3981   -0.0671 H   0  0  0  0  0  0  0  0  0  0  0  0
   -4.9073   -0.6148    1.3772 H   0  0  0  0  0  0  0  0  0  0  0  0
   -5.7423   -1.5025    0.0800 H   0  0  0  0  0  0  0  0  0  0  0  0
   -3.5945   -1.1221   -1.3931 H   0  0  0  0  0  0  0  0  0  0  0  0
   -2.7537   -1.2355    1.5209 H   0  0  0  0  0  0  0  0  0  0  0  0
   -1.0532   -2.6623    0.1065 H   0  0  0  0  0  0  0  0  0  0  0  0
   -1.3979   -1.5690   -1.2551 H   0  0  0  0  0  0  0  0  0  0  0  0
   -0.5299    0.3445    0.0616 H   0  0  0  0  0  0  0  0  0  0  0  0
   -0.1852   -0.7489    1.4232 H   0  0  0  0  0  0  0  0  0  0  0  0
    1.3655   -2.0470   -0.0117 H   0  0  0  0  0  0  0  0  0  0  0  0
    1.0207   -0.9536   -1.3733 H   0  0  0  0  0  0  0  0  0  0  0  0
    1.8887    0.9599   -0.0566 H   0  0  0  0  0  0  0  0  0  0  0  0
    2.2334   -0.1335    1.3050 H   0  0  0  0  0  0  0  0  0  0  0  0
    3.7841   -1.4316   -0.1299 H   0  0  0  0  0  0  0  0  0  0  0  0
    3.4394   -0.3382   -1.4915 H   0  0  0  0  0  0  0  0  0  0  0  0
    4.3073    1.5753   -0.1748 H   0  0  0  0  0  0  0  0  0  0  0  0
    4.6521    0.4819    1.1869 H   0  0  0  0  0  0  0  0  0  0  0  0
    6.2027   -0.8162   -0.2481 H   0  0  0  0  0  0  0  0  0  0  0  0
    5.8580    0.2772   -1.6097 H   0  0  0  0  0  0  0  0  0  0  0  0
    6.8416    2.2227   -0.1347 H   0  0  0  0  0  0  0  0  0  0  0  0
  1  2  1  0  0  0  0
  2  3  1  0  0  0  0
  3  4  1  0  0  0  0
  4  5  1  0  0  0  0
  5  6  2  0  0  0  0
  6  7  1  0  0  0  0
  7  8  1  0  0  0  0
  8  9  1  0  0  0  0
  9 10  1  0  0  0  0
 10 11  1  0  0  0  0
 11 12  1  0  0  0  0
 12 13  1  0  0  0  0
 13 14  1  0  0  0  0
 14 15  2  0  0  0  0
  1 16  1  0  0  0  0
  1 17  1  0  0  0  0
  1 18  1  0  0  0  0
  2 19  1  0  0  0  0
  2 20  1  0  0  0  0
  3 21  1  0  0  0  0
  3 22  1  0  0  0  0
  4 23  1  0  0  0  0
  4 24  1  0  0  0  0
  5 25  1  0  0  0  0
  6 26  1  0  0  0  0
  7 27  1  0  0  0  0
  7 28  1  0  0  0  0
  8 29  1  0  0  0  0
  8 30  1  0  0  0  0
  9 31  1  0  0  0  0
  9 32  1  0  0  0  0
 10 33  1  0  0  0  0
 10 34  1  0  0  0  0
 11 35  1  0  0  0  0
 11 36  1  0  0  0  0
 12 37  1  0  0  0  0
 12 38  1  0  0  0  0
 13 39  1  0  0  0  0
 13 40  1  0  0  0  0
 14 41  1  0  0  0  0
M  END
$$$$
