C2H6O2S
APtclcactv06211804373D 0   0.00000     0.00000
 
 11 10  0  0  0  0  0  0  0  0999 V2000
    1.4090   -1.0072   -0.0000 C   0  0  0  0  0  0  0  0  0  0  0  0
   -0.0000    0.1353   -0.0000 S   0  0  0  0  0  0  0  0  0  0  0  0
    0.0000    0.8541    1.2258 O   0  0  0  0  0  0  0  0  0  0  0  0
   -0.0000    0.8541   -1.2258 O   0  0  0  0  0  0  0  0  0  0  0  0
   -1.4090   -1.0072    0.0000 C   0  0  0  0  0  0  0  0  0  0  0  0
    1.3675   -1.6352    0.8900 H   0  0  0  0  0  0  0  0  0  0  0  0
    1.3675   -1.6352   -0.8900 H   0  0  0  0  0  0  0  0  0  0  0  0
    2.3384   -0.4379   -0.0000 H   0  0  0  0  0  0  0  0  0  0  0  0
   -1.3675   -1.6352    0.8900 H   0  0  0  0  0  0  0  0  0  0  0  0
   -2.3384   -0.4379    0.0000 H   0  0  0  0  0  0  0  0  0  0  0  0
   -1.3675   -1.6352   -0.8900 H   0  0  0  0  0  0  0  0  0  0  0  0
  1  2  1  0  0  0  0
  2  3  2  0  0  0  0
  2  4  2  0  0  0  0
  2  5  1  0  0  0  0
  1  6  1  0  0  0  0
  1  7  1  0  0  0  0
  1  8  1  0  0  0  0
  5  9  1  0  0  0  0
  5 10  1  0  0  0  0
  5 11  1  0  0  0  0
M  END
$$$$
