C3H7NO
APtclcactv06201807183D 0   0.00000     0.00000
 
 12 11  0  0  0  0  0  0  0  0999 V2000
    0.4021    1.4614    0.0000 C   0  0  0  0  0  0  0  0  0  0  0  0
    0.4194   -0.0035   -0.0000 N   0  0  0  0  0  0  0  0  0  0  0  0
    1.6967   -0.7210   -0.0000 C   0  0  0  0  0  0  0  0  0  0  0  0
   -0.7398   -0.6912   -0.0000 C   0  0  0  0  0  0  0  0  0  0  0  0
   -1.7972   -0.0972    0.0000 O   0  0  0  0  0  0  0  0  0  0  0  0
    0.3978    1.8247   -1.0277 H   0  0  0  0  0  0  0  0  0  0  0  0
   -0.4921    1.8142    0.5138 H   0  0  0  0  0  0  0  0  0  0  0  0
    1.2877    1.8352    0.5138 H   0  0  0  0  0  0  0  0  0  0  0  0
    2.0134   -0.8989    1.0277 H   0  0  0  0  0  0  0  0  0  0  0  0
    1.5776   -1.6749   -0.5138 H   0  0  0  0  0  0  0  0  0  0  0  0
    2.4493   -0.1230   -0.5138 H   0  0  0  0  0  0  0  0  0  0  0  0
   -0.7270   -1.7711   -0.0000 H   0  0  0  0  0  0  0  0  0  0  0  0
  1  2  1  0  0  0  0
  2  3  1  0  0  0  0
  2  4  1  0  0  0  0
  4  5  2  0  0  0  0
  1  6  1  0  0  0  0
  1  7  1  0  0  0  0
  1  8  1  0  0  0  0
  3  9  1  0  0  0  0
  3 10  1  0  0  0  0
  3 11  1  0  0  0  0
  4 12  1  0  0  0  0
M  END
$$$$
