C29H48O
APtclcactv06231803063D 0   0.00000     0.00000
 
 78 81  0  0  0  0  0  0  0  0999 V2000
    7.8889    1.8583    1.6077 C   0  0  0  0  0  0  0  0  0  0  0  0
    6.5084    2.1158    1.0005 C   0  0  0  0  0  0  0  0  0  0  0  0
    5.8259    0.7797    0.7005 C   0  0  0  0  0  0  0  0  0  0  0  0
    4.3991    1.0345    0.2103 C   0  0  0  0  0  0  0  0  0  0  0  0
    3.6758   -0.3015    0.0293 C   0  0  0  0  0  0  0  0  0  0  0  0
    2.2490   -0.0467   -0.4609 C   0  0  0  0  0  0  0  0  0  0  0  0
    2.2934    0.5817   -1.8552 C   0  0  0  0  0  0  0  0  0  0  0  0
    1.4900   -1.3662   -0.5225 C   0  0  0  0  0  0  0  0  0  0  0  0
    1.6046   -2.1229    0.8297 C   0  0  0  0  0  0  0  0  0  0  0  0
    0.1903   -2.0790    1.4795 C   0  0  0  0  0  0  0  0  0  0  0  0
   -0.4480   -0.8792    0.7669 C   0  0  0  0  0  0  0  0  0  0  0  0
   -0.0204   -1.1479   -0.6954 C   0  0  0  0  0  0  0  0  0  0  0  0
   -0.4899   -0.0383   -1.5840 C   0  0  0  0  0  0  0  0  0  0  0  0
   -1.9929    0.2327   -1.4487 C   0  0  0  0  0  0  0  0  0  0  0  0
   -2.7067   -0.6463   -0.4373 C   0  0  0  0  0  0  0  0  0  0  0  0
   -1.9375   -0.7560    0.8450 C   0  0  0  0  0  0  0  0  0  0  0  0
   -2.4854   -0.6884    2.0299 C   0  0  0  0  0  0  0  0  0  0  0  0
   -3.9550   -0.4266    2.2143 C   0  0  0  0  0  0  0  0  0  0  0  0
   -4.4046    0.4711    1.0563 C   0  0  0  0  0  0  0  0  0  0  0  0
   -4.1642   -0.2439   -0.2640 C   0  0  0  0  0  0  0  0  0  0  0  0
   -4.6136    0.6490   -1.4222 C   0  0  0  0  0  0  0  0  0  0  0  0
   -6.0874    1.0233   -1.2700 C   0  0  0  0  0  0  0  0  0  0  0  0
   -6.3215    1.7334    0.0621 C   0  0  0  0  0  0  0  0  0  0  0  0
   -5.8753    0.8424    1.2223 C   0  0  0  0  0  0  0  0  0  0  0  0
   -5.5866    2.9594    0.0888 O   0  0  0  0  0  0  0  0  0  0  0  0
   -4.9847   -1.5373   -0.3119 C   0  0  0  0  0  0  0  0  0  0  0  0
   -0.5565   -2.4903   -1.2094 C   0  0  0  0  0  0  0  0  0  0  0  0
    6.6002    0.0484   -0.3657 C   0  0  0  0  0  0  0  0  0  0  0  0
    7.1100   -1.1314   -0.1120 C   0  0  0  0  0  0  0  0  0  0  0  0
    6.7881    0.6742   -1.7236 C   0  0  0  0  0  0  0  0  0  0  0  0
    7.7793    1.2907    2.5318 H   0  0  0  0  0  0  0  0  0  0  0  0
    8.4959    1.2906    0.9024 H   0  0  0  0  0  0  0  0  0  0  0  0
    8.3751    2.8102    1.8214 H   0  0  0  0  0  0  0  0  0  0  0  0
    5.9014    2.6835    1.7058 H   0  0  0  0  0  0  0  0  0  0  0  0
    6.6180    2.6834    0.0764 H   0  0  0  0  0  0  0  0  0  0  0  0
    5.7961    0.1752    1.6070 H   0  0  0  0  0  0  0  0  0  0  0  0
    3.8659    1.6400    0.9432 H   0  0  0  0  0  0  0  0  0  0  0  0
    4.4312    1.5624   -0.7428 H   0  0  0  0  0  0  0  0  0  0  0  0
    4.2091   -0.9070   -0.7036 H   0  0  0  0  0  0  0  0  0  0  0  0
    3.6437   -0.8294    0.9824 H   0  0  0  0  0  0  0  0  0  0  0  0
    1.7441    0.6312    0.2273 H   0  0  0  0  0  0  0  0  0  0  0  0
    2.6954    1.5925   -1.7855 H   0  0  0  0  0  0  0  0  0  0  0  0
    2.9307   -0.0188   -2.5043 H   0  0  0  0  0  0  0  0  0  0  0  0
    1.2857    0.6192   -2.2691 H   0  0  0  0  0  0  0  0  0  0  0  0
    1.8618   -1.9904   -1.3341 H   0  0  0  0  0  0  0  0  0  0  0  0
    1.9021   -3.1557    0.6532 H   0  0  0  0  0  0  0  0  0  0  0  0
    2.3271   -1.6250    1.4742 H   0  0  0  0  0  0  0  0  0  0  0  0
   -0.3563   -2.9981    1.3191 H   0  0  0  0  0  0  0  0  0  0  0  0
    0.2803   -1.8756    2.5513 H   0  0  0  0  0  0  0  0  0  0  0  0
    0.0142    0.0528    1.1447 H   0  0  0  0  0  0  0  0  0  0  0  0
    0.0414    0.8924   -1.3489 H   0  0  0  0  0  0  0  0  0  0  0  0
   -0.2649   -0.2886   -2.6290 H   0  0  0  0  0  0  0  0  0  0  0  0
   -2.1287    1.2848   -1.1619 H   0  0  0  0  0  0  0  0  0  0  0  0
   -2.4605    0.1016   -2.4326 H   0  0  0  0  0  0  0  0  0  0  0  0
   -2.7867   -1.6503   -0.8644 H   0  0  0  0  0  0  0  0  0  0  0  0
   -1.8568   -0.8201    2.8961 H   0  0  0  0  0  0  0  0  0  0  0  0
   -4.5107   -1.3558    2.2411 H   0  0  0  0  0  0  0  0  0  0  0  0
   -4.1072    0.1062    3.1598 H   0  0  0  0  0  0  0  0  0  0  0  0
   -3.8041    1.3913    1.0757 H   0  0  0  0  0  0  0  0  0  0  0  0
   -4.0122    1.5595   -1.4351 H   0  0  0  0  0  0  0  0  0  0  0  0
   -4.4735    0.1147   -2.3645 H   0  0  0  0  0  0  0  0  0  0  0  0
   -6.3615    1.7043   -2.0854 H   0  0  0  0  0  0  0  0  0  0  0  0
   -6.7198    0.1421   -1.3404 H   0  0  0  0  0  0  0  0  0  0  0  0
   -7.3869    1.9541    0.1689 H   0  0  0  0  0  0  0  0  0  0  0  0
   -6.4998   -0.0452    1.2698 H   0  0  0  0  0  0  0  0  0  0  0  0
   -5.9986    1.4000    2.1580 H   0  0  0  0  0  0  0  0  0  0  0  0
   -5.8320    3.5803   -0.6107 H   0  0  0  0  0  0  0  0  0  0  0  0
   -6.0443   -1.2990   -0.2192 H   0  0  0  0  0  0  0  0  0  0  0  0
   -4.8080   -2.0448   -1.2602 H   0  0  0  0  0  0  0  0  0  0  0  0
   -4.6854   -2.1881    0.5097 H   0  0  0  0  0  0  0  0  0  0  0  0
   -1.6423   -2.4406   -1.2911 H   0  0  0  0  0  0  0  0  0  0  0  0
   -0.1276   -2.7017   -2.1889 H   0  0  0  0  0  0  0  0  0  0  0  0
   -0.2804   -3.2823   -0.5133 H   0  0  0  0  0  0  0  0  0  0  0  0
    6.9754   -1.5800    0.8612 H   0  0  0  0  0  0  0  0  0  0  0  0
    7.6649   -1.6555   -0.8761 H   0  0  0  0  0  0  0  0  0  0  0  0
    7.7010    1.2699   -1.7260 H   0  0  0  0  0  0  0  0  0  0  0  0
    6.8636   -0.1093   -2.4775 H   0  0  0  0  0  0  0  0  0  0  0  0
    5.9357    1.3149   -1.9495 H   0  0  0  0  0  0  0  0  0  0  0  0
  1  2  1  0  0  0  0
  2  3  1  0  0  0  0
  3  4  1  0  0  0  0
  4  5  1  0  0  0  0
  5  6  1  0  0  0  0
  6  7  1  0  0  0  0
  6  8  1  0  0  0  0
  8  9  1  0  0  0  0
  9 10  1  0  0  0  0
 10 11  1  0  0  0  0
 11 12  1  0  0  0  0
  8 12  1  0  0  0  0
 12 13  1  0  0  0  0
 13 14  1  0  0  0  0
 14 15  1  0  0  0  0
 15 16  1  0  0  0  0
 11 16  1  0  0  0  0
 16 17  2  0  0  0  0
 17 18  1  0  0  0  0
 18 19  1  0  0  0  0
 19 20  1  0  0  0  0
 15 20  1  0  0  0  0
 20 21  1  0  0  0  0
 21 22  1  0  0  0  0
 22 23  1  0  0  0  0
 23 24  1  0  0  0  0
 19 24  1  0  0  0  0
 23 25  1  0  0  0  0
 20 26  1  0  0  0  0
 12 27  1  0  0  0  0
  3 28  1  0  0  0  0
 28 29  2  0  0  0  0
 28 30  1  0  0  0  0
  1 31  1  0  0  0  0
  1 32  1  0  0  0  0
  1 33  1  0  0  0  0
  2 34  1  0  0  0  0
  2 35  1  0  0  0  0
  3 36  1  0  0  0  0
  4 37  1  0  0  0  0
  4 38  1  0  0  0  0
  5 39  1  0  0  0  0
  5 40  1  0  0  0  0
  6 41  1  0  0  0  0
  7 42  1  0  0  0  0
  7 43  1  0  0  0  0
  7 44  1  0  0  0  0
  8 45  1  0  0  0  0
  9 46  1  0  0  0  0
  9 47  1  0  0  0  0
 10 48  1  0  0  0  0
 10 49  1  0  0  0  0
 11 50  1  0  0  0  0
 13 51  1  0  0  0  0
 13 52  1  0  0  0  0
 14 53  1  0  0  0  0
 14 54  1  0  0  0  0
 15 55  1  0  0  0  0
 17 56  1  0  0  0  0
 18 57  1  0  0  0  0
 18 58  1  0  0  0  0
 19 59  1  0  0  0  0
 21 60  1  0  0  0  0
 21 61  1  0  0  0  0
 22 62  1  0  0  0  0
 22 63  1  0  0  0  0
 23 64  1  0  0  0  0
 24 65  1  0  0  0  0
 24 66  1  0  0  0  0
 25 67  1  0  0  0  0
 26 68  1  0  0  0  0
 26 69  1  0  0  0  0
 26 70  1  0  0  0  0
 27 71  1  0  0  0  0
 27 72  1  0  0  0  0
 27 73  1  0  0  0  0
 29 74  1  0  0  0  0
 29 75  1  0  0  0  0
 30 76  1  0  0  0  0
 30 77  1  0  0  0  0
 30 78  1  0  0  0  0
M  END
$$$$
