C19H24O4
APtclcactv06231803063D 0   0.00000     0.00000
 
 47 51  0  0  0  0  0  0  0  0999 V2000
    2.9934    1.4759   -0.7471 C   0  0  0  0  0  0  0  0  0  0  0  0
    2.3666    0.1159   -0.4331 C   0  0  0  0  0  0  0  0  0  0  0  0
    3.2915   -1.0743   -0.7690 C   0  0  0  0  0  0  0  0  0  0  0  0
    2.7125   -2.3763   -0.2180 C   0  0  0  0  0  0  0  0  0  0  0  0
    1.2468   -2.5611   -0.6458 C   0  0  0  0  0  0  0  0  0  0  0  0
    0.5021   -1.2945   -0.2792 C   0  0  0  0  0  0  0  0  0  0  0  0
    1.0600   -0.1550   -1.2145 C   0  0  0  0  0  0  0  0  0  0  0  0
    0.0259    0.9739   -1.0421 C   0  0  0  0  0  0  0  0  0  0  0  0
   -1.2477    0.2977   -0.5511 C   0  0  0  0  0  0  0  0  0  0  0  0
   -0.9731   -1.2160   -0.5563 C   0  0  0  0  0  0  0  0  0  0  0  0
   -1.9272   -2.0526    0.2070 C   0  0  0  0  0  0  0  0  0  0  0  0
   -2.7680   -1.3846    1.2713 C   0  0  0  0  0  0  0  0  0  0  0  0
   -2.9915    0.1048    1.0255 C   0  0  0  0  0  0  0  0  0  0  0  0
   -1.5759    0.7351    0.8940 C   0  0  0  0  0  0  0  0  0  0  0  0
   -3.6442    0.3430   -0.3234 C   0  0  0  0  0  0  0  0  0  0  0  0
   -4.9300    0.3480   -0.5742 C   0  0  0  0  0  0  0  0  0  0  0  0
   -2.5249    0.5755   -1.3331 C   0  0  0  0  0  0  0  0  0  0  0  0
    0.5109    1.9722   -0.0226 C   0  0  0  0  0  0  0  0  0  0  0  0
    0.5234    1.6807    1.1499 O   0  0  0  0  0  0  0  0  0  0  0  0
    0.9291    3.1851   -0.4171 O   0  0  0  0  0  0  0  0  0  0  0  0
    0.8569   -0.8520    1.0572 O   0  0  0  0  0  0  0  0  0  0  0  0
    1.9551   -0.0372    1.0241 C   0  0  0  0  0  0  0  0  0  0  0  0
    2.4890    0.4640    1.9851 O   0  0  0  0  0  0  0  0  0  0  0  0
    2.8152    1.7252   -1.7932 H   0  0  0  0  0  0  0  0  0  0  0  0
    2.5448    2.2384   -0.1103 H   0  0  0  0  0  0  0  0  0  0  0  0
    4.0666    1.4329   -0.5616 H   0  0  0  0  0  0  0  0  0  0  0  0
    3.3937   -1.1559   -1.8511 H   0  0  0  0  0  0  0  0  0  0  0  0
    4.2732   -0.9023   -0.3278 H   0  0  0  0  0  0  0  0  0  0  0  0
    3.3013   -3.2145   -0.5903 H   0  0  0  0  0  0  0  0  0  0  0  0
    2.7670   -2.3587    0.8705 H   0  0  0  0  0  0  0  0  0  0  0  0
    1.1931   -2.7236   -1.7223 H   0  0  0  0  0  0  0  0  0  0  0  0
    0.8122   -3.4113   -0.1201 H   0  0  0  0  0  0  0  0  0  0  0  0
    1.2216   -0.4611   -2.2480 H   0  0  0  0  0  0  0  0  0  0  0  0
   -0.1544    1.4678   -1.9969 H   0  0  0  0  0  0  0  0  0  0  0  0
   -1.0901   -1.5227   -1.5957 H   0  0  0  0  0  0  0  0  0  0  0  0
   -2.6057   -2.5180   -0.5079 H   0  0  0  0  0  0  0  0  0  0  0  0
   -1.3592   -2.8505    0.6855 H   0  0  0  0  0  0  0  0  0  0  0  0
   -3.7376   -1.8808    1.3125 H   0  0  0  0  0  0  0  0  0  0  0  0
   -2.2743   -1.5089    2.2351 H   0  0  0  0  0  0  0  0  0  0  0  0
   -3.5564    0.5600    1.8389 H   0  0  0  0  0  0  0  0  0  0  0  0
   -0.8780    0.3017    1.6104 H   0  0  0  0  0  0  0  0  0  0  0  0
   -1.6127    1.8208    0.9837 H   0  0  0  0  0  0  0  0  0  0  0  0
   -5.6363    0.1703    0.2232 H   0  0  0  0  0  0  0  0  0  0  0  0
   -5.2836    0.5297   -1.5783 H   0  0  0  0  0  0  0  0  0  0  0  0
   -2.5387    1.6065   -1.6865 H   0  0  0  0  0  0  0  0  0  0  0  0
   -2.6171   -0.1165   -2.1703 H   0  0  0  0  0  0  0  0  0  0  0  0
    1.2972    3.7654    0.2633 H   0  0  0  0  0  0  0  0  0  0  0  0
  1  2  1  0  0  0  0
  2  3  1  0  0  0  0
  3  4  1  0  0  0  0
  4  5  1  0  0  0  0
  5  6  1  0  0  0  0
  6  7  1  0  0  0  0
  2  7  1  0  0  0  0
  7  8  1  0  0  0  0
  8  9  1  0  0  0  0
  9 10  1  0  0  0  0
  6 10  1  0  0  0  0
 10 11  1  0  0  0  0
 11 12  1  0  0  0  0
 12 13  1  0  0  0  0
 13 14  1  0  0  0  0
  9 14  1  0  0  0  0
 13 15  1  0  0  0  0
 15 16  2  0  0  0  0
 15 17  1  0  0  0  0
  9 17  1  0  0  0  0
  8 18  1  0  0  0  0
 18 19  2  0  0  0  0
 18 20  1  0  0  0  0
  6 21  1  0  0  0  0
 21 22  1  0  0  0  0
  2 22  1  0  0  0  0
 22 23  2  0  0  0  0
  1 24  1  0  0  0  0
  1 25  1  0  0  0  0
  1 26  1  0  0  0  0
  3 27  1  0  0  0  0
  3 28  1  0  0  0  0
  4 29  1  0  0  0  0
  4 30  1  0  0  0  0
  5 31  1  0  0  0  0
  5 32  1  0  0  0  0
  7 33  1  0  0  0  0
  8 34  1  0  0  0  0
 10 35  1  0  0  0  0
 11 36  1  0  0  0  0
 11 37  1  0  0  0  0
 12 38  1  0  0  0  0
 12 39  1  0  0  0  0
 13 40  1  0  0  0  0
 14 41  1  0  0  0  0
 14 42  1  0  0  0  0
 16 43  1  0  0  0  0
 16 44  1  0  0  0  0
 17 45  1  0  0  0  0
 17 46  1  0  0  0  0
 20 47  1  0  0  0  0
M  END
$$$$
