C10H12O2
APtclcactv06211806233D 0   0.00000     0.00000
 
 24 24  0  0  0  0  0  0  0  0999 V2000
    0.6636   -1.4475    1.5318 C   0  0  0  0  0  0  0  0  0  0  0  0
    0.5154   -0.7090    0.2001 C   0  0  0  0  0  0  0  0  0  0  0  0
   -0.9119   -0.2551    0.0335 C   0  0  0  0  0  0  0  0  0  0  0  0
   -1.8065   -1.0339   -0.6766 C   0  0  0  0  0  0  0  0  0  0  0  0
   -3.1157   -0.6175   -0.8295 C   0  0  0  0  0  0  0  0  0  0  0  0
   -3.5306    0.5774   -0.2719 C   0  0  0  0  0  0  0  0  0  0  0  0
   -2.6363    1.3558    0.4389 C   0  0  0  0  0  0  0  0  0  0  0  0
   -1.3281    0.9373    0.5955 C   0  0  0  0  0  0  0  0  0  0  0  0
    1.3953    0.4460    0.1866 O   0  0  0  0  0  0  0  0  0  0  0  0
    2.6371    0.2605   -0.2878 C   0  0  0  0  0  0  0  0  0  0  0  0
    2.9777   -0.8308   -0.6788 O   0  0  0  0  0  0  0  0  0  0  0  0
    3.6066    1.4134   -0.3327 C   0  0  0  0  0  0  0  0  0  0  0  0
    0.3972   -0.7783    2.3500 H   0  0  0  0  0  0  0  0  0  0  0  0
    0.0030   -2.3145    1.5420 H   0  0  0  0  0  0  0  0  0  0  0  0
    1.6959   -1.7758    1.6523 H   0  0  0  0  0  0  0  0  0  0  0  0
    0.7817   -1.3782   -0.6181 H   0  0  0  0  0  0  0  0  0  0  0  0
   -1.4824   -1.9675   -1.1122 H   0  0  0  0  0  0  0  0  0  0  0  0
   -3.8144   -1.2256   -1.3848 H   0  0  0  0  0  0  0  0  0  0  0  0
   -4.5533    0.9031   -0.3919 H   0  0  0  0  0  0  0  0  0  0  0  0
   -2.9603    2.2896    0.8742 H   0  0  0  0  0  0  0  0  0  0  0  0
   -0.6294    1.5454    1.1508 H   0  0  0  0  0  0  0  0  0  0  0  0
    3.1242    2.3092    0.0582 H   0  0  0  0  0  0  0  0  0  0  0  0
    4.4806    1.1770    0.2744 H   0  0  0  0  0  0  0  0  0  0  0  0
    3.9164    1.5877   -1.3631 H   0  0  0  0  0  0  0  0  0  0  0  0
  1  2  1  0  0  0  0
  2  3  1  0  0  0  0
  3  4  2  0  0  0  0
  4  5  1  0  0  0  0
  5  6  2  0  0  0  0
  6  7  1  0  0  0  0
  7  8  2  0  0  0  0
  3  8  1  0  0  0  0
  2  9  1  0  0  0  0
  9 10  1  0  0  0  0
 10 11  2  0  0  0  0
 10 12  1  0  0  0  0
  1 13  1  0  0  0  0
  1 14  1  0  0  0  0
  1 15  1  0  0  0  0
  2 16  1  0  0  0  0
  4 17  1  0  0  0  0
  5 18  1  0  0  0  0
  6 19  1  0  0  0  0
  7 20  1  0  0  0  0
  8 21  1  0  0  0  0
 12 22  1  0  0  0  0
 12 23  1  0  0  0  0
 12 24  1  0  0  0  0
M  END
$$$$
