C9H12O2
APtclcactv06211806233D 0   0.00000     0.00000
 
 23 23  0  0  0  0  0  0  0  0999 V2000
    2.8433    1.4203    0.4433 C   0  0  0  0  0  0  0  0  0  0  0  0
    1.5238    1.1979   -0.0580 O   0  0  0  0  0  0  0  0  0  0  0  0
    0.9782   -0.0771    0.2870 C   0  0  0  0  0  0  0  0  0  0  0  0
   -0.5222   -0.0342    0.1534 C   0  0  0  0  0  0  0  0  0  0  0  0
   -1.2738   -1.1594    0.4362 C   0  0  0  0  0  0  0  0  0  0  0  0
   -2.6501   -1.1201    0.3136 C   0  0  0  0  0  0  0  0  0  0  0  0
   -3.2750    0.0446   -0.0913 C   0  0  0  0  0  0  0  0  0  0  0  0
   -2.5235    1.1701   -0.3732 C   0  0  0  0  0  0  0  0  0  0  0  0
   -1.1475    1.1320   -0.2465 C   0  0  0  0  0  0  0  0  0  0  0  0
    1.5062   -1.0742   -0.5899 O   0  0  0  0  0  0  0  0  0  0  0  0
    2.8332   -1.4918   -0.2632 C   0  0  0  0  0  0  0  0  0  0  0  0
    3.1308    2.4561    0.2628 H   0  0  0  0  0  0  0  0  0  0  0  0
    2.8639    1.2189    1.5143 H   0  0  0  0  0  0  0  0  0  0  0  0
    3.5419    0.7556   -0.0649 H   0  0  0  0  0  0  0  0  0  0  0  0
    1.2446   -0.3199    1.3157 H   0  0  0  0  0  0  0  0  0  0  0  0
   -0.7856   -2.0693    0.7526 H   0  0  0  0  0  0  0  0  0  0  0  0
   -3.2372   -1.9994    0.5339 H   0  0  0  0  0  0  0  0  0  0  0  0
   -4.3502    0.0751   -0.1878 H   0  0  0  0  0  0  0  0  0  0  0  0
   -3.0117    2.0799   -0.6899 H   0  0  0  0  0  0  0  0  0  0  0  0
   -0.5604    2.0113   -0.4667 H   0  0  0  0  0  0  0  0  0  0  0  0
    3.0354   -2.4566   -0.7284 H   0  0  0  0  0  0  0  0  0  0  0  0
    3.5470   -0.7545   -0.6308 H   0  0  0  0  0  0  0  0  0  0  0  0
    2.9295   -1.5828    0.8187 H   0  0  0  0  0  0  0  0  0  0  0  0
  1  2  1  0  0  0  0
  2  3  1  0  0  0  0
  3  4  1  0  0  0  0
  4  5  2  0  0  0  0
  5  6  1  0  0  0  0
  6  7  2  0  0  0  0
  7  8  1  0  0  0  0
  8  9  2  0  0  0  0
  4  9  1  0  0  0  0
  3 10  1  0  0  0  0
 10 11  1  0  0  0  0
  1 12  1  0  0  0  0
  1 13  1  0  0  0  0
  1 14  1  0  0  0  0
  3 15  1  0  0  0  0
  5 16  1  0  0  0  0
  6 17  1  0  0  0  0
  7 18  1  0  0  0  0
  8 19  1  0  0  0  0
  9 20  1  0  0  0  0
 11 21  1  0  0  0  0
 11 22  1  0  0  0  0
 11 23  1  0  0  0  0
M  END
$$$$
