C12H11N5
APtclcactv06211806233D 0   0.00000     0.00000
 
 28 30  0  0  0  0  0  0  0  0999 V2000
   -5.1197   -0.7658   -0.0006 C   0  0  0  0  0  0  0  0  0  0  0  0
   -4.4991   -0.4621    1.1968 C   0  0  0  0  0  0  0  0  0  0  0  0
   -3.2592    0.1489    1.1971 C   0  0  0  0  0  0  0  0  0  0  0  0
   -2.6395    0.4558    0.0001 C   0  0  0  0  0  0  0  0  0  0  0  0
   -3.2597    0.1512   -1.1972 C   0  0  0  0  0  0  0  0  0  0  0  0
   -4.5003   -0.4585   -1.1975 C   0  0  0  0  0  0  0  0  0  0  0  0
   -1.2882    1.1228    0.0005 C   0  0  0  0  0  0  0  0  0  0  0  0
   -0.2389    0.1004   -0.0005 N   0  0  0  0  0  0  0  0  0  0  0  0
    1.0946    0.4763   -0.0003 C   0  0  0  0  0  0  0  0  0  0  0  0
    1.4389    1.7613    0.0006 N   0  0  0  0  0  0  0  0  0  0  0  0
    2.7080    2.1276    0.0007 C   0  0  0  0  0  0  0  0  0  0  0  0
    3.6944    1.2589   -0.0001 N   0  0  0  0  0  0  0  0  0  0  0  0
    3.4440   -0.0545   -0.0011 C   0  0  0  0  0  0  0  0  0  0  0  0
    2.1072   -0.4851    0.0046 C   0  0  0  0  0  0  0  0  0  0  0  0
    2.1495   -1.8633    0.0025 N   0  0  0  0  0  0  0  0  0  0  0  0
    3.4529   -2.2227   -0.0041 C   0  0  0  0  0  0  0  0  0  0  0  0
    4.2105   -1.1613   -0.0017 N   0  0  0  0  0  0  0  0  0  0  0  0
   -6.0864   -1.2473   -0.0008 H   0  0  0  0  0  0  0  0  0  0  0  0
   -4.9833   -0.7018    2.1319 H   0  0  0  0  0  0  0  0  0  0  0  0
   -2.7747    0.3869    2.1325 H   0  0  0  0  0  0  0  0  0  0  0  0
   -2.7759    0.3916   -2.1324 H   0  0  0  0  0  0  0  0  0  0  0  0
   -4.9849   -0.6962   -2.1330 H   0  0  0  0  0  0  0  0  0  0  0  0
   -1.1899    1.7451   -0.8890 H   0  0  0  0  0  0  0  0  0  0  0  0
   -1.1897    1.7437    0.8909 H   0  0  0  0  0  0  0  0  0  0  0  0
   -0.4778   -0.8397   -0.0012 H   0  0  0  0  0  0  0  0  0  0  0  0
    2.9442    3.1815    0.0012 H   0  0  0  0  0  0  0  0  0  0  0  0
    1.3869   -2.4628    0.0056 H   0  0  0  0  0  0  0  0  0  0  0  0
    3.8140   -3.2405   -0.0066 H   0  0  0  0  0  0  0  0  0  0  0  0
  1  2  2  0  0  0  0
  2  3  1  0  0  0  0
  3  4  2  0  0  0  0
  4  5  1  0  0  0  0
  5  6  2  0  0  0  0
  1  6  1  0  0  0  0
  4  7  1  0  0  0  0
  7  8  1  0  0  0  0
  8  9  1  0  0  0  0
  9 10  2  0  0  0  0
 10 11  1  0  0  0  0
 11 12  2  0  0  0  0
 12 13  1  0  0  0  0
 13 14  2  0  0  0  0
  9 14  1  0  0  0  0
 14 15  1  0  0  0  0
 15 16  1  0  0  0  0
 16 17  2  0  0  0  0
 13 17  1  0  0  0  0
  1 18  1  0  0  0  0
  2 19  1  0  0  0  0
  3 20  1  0  0  0  0
  5 21  1  0  0  0  0
  6 22  1  0  0  0  0
  7 23  1  0  0  0  0
  7 24  1  0  0  0  0
  8 25  1  0  0  0  0
 11 26  1  0  0  0  0
 15 27  1  0  0  0  0
 16 28  1  0  0  0  0
M  END
$$$$
