C28H32O17
APtclcactv06281817063D 0   0.00000     0.00000
 
 77 81  0  0  0  0  0  0  0  0999 V2000
   -3.1451    4.7062   -1.3389 C   0  0  0  0  0  0  0  0  0  0  0  0
   -4.0286    4.4229   -0.2521 O   0  0  0  0  0  0  0  0  0  0  0  0
   -3.7772    3.2990    0.4712 C   0  0  0  0  0  0  0  0  0  0  0  0
   -4.5997    2.9629    1.5449 C   0  0  0  0  0  0  0  0  0  0  0  0
   -4.3463    1.8167    2.2854 C   0  0  0  0  0  0  0  0  0  0  0  0
   -3.2797    1.0055    1.9628 C   0  0  0  0  0  0  0  0  0  0  0  0
   -2.4506    1.3363    0.8873 C   0  0  0  0  0  0  0  0  0  0  0  0
   -2.7097    2.4875    0.1379 C   0  0  0  0  0  0  0  0  0  0  0  0
   -1.3090    0.4699    0.5403 C   0  0  0  0  0  0  0  0  0  0  0  0
   -1.5059   -0.8763    0.4660 C   0  0  0  0  0  0  0  0  0  0  0  0
   -0.4175   -1.7236    0.1328 C   0  0  0  0  0  0  0  0  0  0  0  0
   -0.5563   -2.9340    0.0566 O   0  0  0  0  0  0  0  0  0  0  0  0
    0.8850   -1.0861   -0.1178 C   0  0  0  0  0  0  0  0  0  0  0  0
    2.0133   -1.8455   -0.4531 C   0  0  0  0  0  0  0  0  0  0  0  0
    3.2193   -1.2090   -0.6814 C   0  0  0  0  0  0  0  0  0  0  0  0
    3.3094    0.1748   -0.5784 C   0  0  0  0  0  0  0  0  0  0  0  0
    2.1972    0.9328   -0.2466 C   0  0  0  0  0  0  0  0  0  0  0  0
    0.9790    0.3131   -0.0144 C   0  0  0  0  0  0  0  0  0  0  0  0
   -0.1140    1.0379    0.3037 O   0  0  0  0  0  0  0  0  0  0  0  0
    4.4985    0.7896   -0.8047 O   0  0  0  0  0  0  0  0  0  0  0  0
    5.6072   -0.0465   -1.1422 C   0  0  0  0  0  0  0  0  0  0  0  0
    6.8194    0.8251   -1.4807 C   0  0  0  0  0  0  0  0  0  0  0  0
    7.2121    1.6417   -0.2457 C   0  0  0  0  0  0  0  0  0  0  0  0
    7.4905    0.6852    0.9179 C   0  0  0  0  0  0  0  0  0  0  0  0
    6.2523   -0.1809    1.1637 C   0  0  0  0  0  0  0  0  0  0  0  0
    5.9233   -0.8897   -0.0327 O   0  0  0  0  0  0  0  0  0  0  0  0
    6.5431   -1.1802    2.2852 C   0  0  0  0  0  0  0  0  0  0  0  0
    5.3534   -1.9091    2.5941 O   0  0  0  0  0  0  0  0  0  0  0  0
    8.6020   -0.1519    0.5925 O   0  0  0  0  0  0  0  0  0  0  0  0
    8.3873    2.4034   -0.5300 O   0  0  0  0  0  0  0  0  0  0  0  0
    7.9131   -0.0083   -1.8696 O   0  0  0  0  0  0  0  0  0  0  0  0
    1.9236   -3.1960   -0.5527 O   0  0  0  0  0  0  0  0  0  0  0  0
   -2.7364   -1.4040    0.7099 O   0  0  0  0  0  0  0  0  0  0  0  0
   -3.3599   -2.1175   -0.3598 C   0  0  0  0  0  0  0  0  0  0  0  0
   -4.5484   -2.9153    0.1830 C   0  0  0  0  0  0  0  0  0  0  0  0
   -5.5837   -1.9451    0.7603 C   0  0  0  0  0  0  0  0  0  0  0  0
   -5.9993   -0.9517   -0.3291 C   0  0  0  0  0  0  0  0  0  0  0  0
   -4.7547   -0.2297   -0.8522 C   0  0  0  0  0  0  0  0  0  0  0  0
   -3.8201   -1.1914   -1.3460 O   0  0  0  0  0  0  0  0  0  0  0  0
   -5.1537    0.7212   -1.9825 C   0  0  0  0  0  0  0  0  0  0  0  0
   -4.0137    1.4794   -2.3918 O   0  0  0  0  0  0  0  0  0  0  0  0
   -6.6294   -1.6550   -1.4016 O   0  0  0  0  0  0  0  0  0  0  0  0
   -6.7291   -2.6760    1.2029 O   0  0  0  0  0  0  0  0  0  0  0  0
   -5.1401   -3.6707   -0.8759 O   0  0  0  0  0  0  0  0  0  0  0  0
   -5.6520    3.7596    1.8679 O   0  0  0  0  0  0  0  0  0  0  0  0
   -3.4574    5.6275   -1.8305 H   0  0  0  0  0  0  0  0  0  0  0  0
   -2.1295    4.8224   -0.9607 H   0  0  0  0  0  0  0  0  0  0  0  0
   -3.1744    3.8846   -2.0547 H   0  0  0  0  0  0  0  0  0  0  0  0
   -4.9862    1.5601    3.1167 H   0  0  0  0  0  0  0  0  0  0  0  0
   -3.0844    0.1146    2.5412 H   0  0  0  0  0  0  0  0  0  0  0  0
   -2.0718    2.7466   -0.6942 H   0  0  0  0  0  0  0  0  0  0  0  0
    4.0935   -1.7880   -0.9400 H   0  0  0  0  0  0  0  0  0  0  0  0
    2.2797    2.0068   -0.1689 H   0  0  0  0  0  0  0  0  0  0  0  0
    5.3495   -0.6614   -2.0045 H   0  0  0  0  0  0  0  0  0  0  0  0
    6.5659    1.5001   -2.2982 H   0  0  0  0  0  0  0  0  0  0  0  0
    6.3965    2.3135    0.0217 H   0  0  0  0  0  0  0  0  0  0  0  0
    7.7169    1.2602    1.8159 H   0  0  0  0  0  0  0  0  0  0  0  0
    5.4151    0.4550    1.4514 H   0  0  0  0  0  0  0  0  0  0  0  0
    7.3201   -1.8731    1.9621 H   0  0  0  0  0  0  0  0  0  0  0  0
    6.8808   -0.6434    3.1717 H   0  0  0  0  0  0  0  0  0  0  0  0
    5.4641   -2.5624    3.2984 H   0  0  0  0  0  0  0  0  0  0  0  0
    9.4212    0.3318    0.4191 H   0  0  0  0  0  0  0  0  0  0  0  0
    8.2846    3.0264   -1.2624 H   0  0  0  0  0  0  0  0  0  0  0  0
    7.7325   -0.5583   -2.6442 H   0  0  0  0  0  0  0  0  0  0  0  0
    1.6946   -3.5108   -1.4379 H   0  0  0  0  0  0  0  0  0  0  0  0
   -2.6392   -2.8001   -0.8102 H   0  0  0  0  0  0  0  0  0  0  0  0
   -4.2060   -3.5912    0.9666 H   0  0  0  0  0  0  0  0  0  0  0  0
   -5.1478   -1.4040    1.6001 H   0  0  0  0  0  0  0  0  0  0  0  0
   -6.6945   -0.2232    0.0882 H   0  0  0  0  0  0  0  0  0  0  0  0
   -4.2974    0.3392   -0.0427 H   0  0  0  0  0  0  0  0  0  0  0  0
   -5.5286    0.1439   -2.8276 H   0  0  0  0  0  0  0  0  0  0  0  0
   -5.9325    1.3975   -1.6303 H   0  0  0  0  0  0  0  0  0  0  0  0
   -4.1934    2.1047   -3.1072 H   0  0  0  0  0  0  0  0  0  0  0  0
   -7.4240   -2.1403   -1.1405 H   0  0  0  0  0  0  0  0  0  0  0  0
   -6.5375   -3.3294    1.8895 H   0  0  0  0  0  0  0  0  0  0  0  0
   -4.5639   -4.3571   -1.2390 H   0  0  0  0  0  0  0  0  0  0  0  0
   -6.4754    3.5250    1.4183 H   0  0  0  0  0  0  0  0  0  0  0  0
  1  2  1  0  0  0  0
  2  3  1  0  0  0  0
  3  4  2  0  0  0  0
  4  5  1  0  0  0  0
  5  6  2  0  0  0  0
  6  7  1  0  0  0  0
  7  8  2  0  0  0  0
  3  8  1  0  0  0  0
  7  9  1  0  0  0  0
  9 10  2  0  0  0  0
 10 11  1  0  0  0  0
 11 12  2  0  0  0  0
 11 13  1  0  0  0  0
 13 14  2  0  0  0  0
 14 15  1  0  0  0  0
 15 16  2  0  0  0  0
 16 17  1  0  0  0  0
 17 18  2  0  0  0  0
 13 18  1  0  0  0  0
 18 19  1  0  0  0  0
  9 19  1  0  0  0  0
 16 20  1  0  0  0  0
 20 21  1  0  0  0  0
 21 22  1  0  0  0  0
 22 23  1  0  0  0  0
 23 24  1  0  0  0  0
 24 25  1  0  0  0  0
 25 26  1  0  0  0  0
 21 26  1  0  0  0  0
 25 27  1  0  0  0  0
 27 28  1  0  0  0  0
 24 29  1  0  0  0  0
 23 30  1  0  0  0  0
 22 31  1  0  0  0  0
 14 32  1  0  0  0  0
 10 33  1  0  0  0  0
 33 34  1  0  0  0  0
 34 35  1  0  0  0  0
 35 36  1  0  0  0  0
 36 37  1  0  0  0  0
 37 38  1  0  0  0  0
 38 39  1  0  0  0  0
 34 39  1  0  0  0  0
 38 40  1  0  0  0  0
 40 41  1  0  0  0  0
 37 42  1  0  0  0  0
 36 43  1  0  0  0  0
 35 44  1  0  0  0  0
  4 45  1  0  0  0  0
  1 46  1  0  0  0  0
  1 47  1  0  0  0  0
  1 48  1  0  0  0  0
  5 49  1  0  0  0  0
  6 50  1  0  0  0  0
  8 51  1  0  0  0  0
 15 52  1  0  0  0  0
 17 53  1  0  0  0  0
 21 54  1  0  0  0  0
 22 55  1  0  0  0  0
 23 56  1  0  0  0  0
 24 57  1  0  0  0  0
 25 58  1  0  0  0  0
 27 59  1  0  0  0  0
 27 60  1  0  0  0  0
 28 61  1  0  0  0  0
 29 62  1  0  0  0  0
 30 63  1  0  0  0  0
 31 64  1  0  0  0  0
 32 65  1  0  0  0  0
 34 66  1  0  0  0  0
 35 67  1  0  0  0  0
 36 68  1  0  0  0  0
 37 69  1  0  0  0  0
 38 70  1  0  0  0  0
 40 71  1  0  0  0  0
 40 72  1  0  0  0  0
 41 73  1  0  0  0  0
 42 74  1  0  0  0  0
 43 75  1  0  0  0  0
 44 76  1  0  0  0  0
 45 77  1  0  0  0  0
M  END
$$$$
