C5H12S
APtclcactv06211806233D 0   0.00000     0.00000
 
 18 17  0  0  0  0  0  0  0  0999 V2000
    3.0409    0.0785    0.2216 C   0  0  0  0  0  0  0  0  0  0  0  0
    1.6562    0.2819   -0.3964 C   0  0  0  0  0  0  0  0  0  0  0  0
    0.6743   -0.7222    0.2107 C   0  0  0  0  0  0  0  0  0  0  0  0
   -0.7105   -0.5189   -0.4074 C   0  0  0  0  0  0  0  0  0  0  0  0
   -1.6621   -1.6014    0.1060 C   0  0  0  0  0  0  0  0  0  0  0  0
   -1.3462    1.1152    0.0577 S   0  0  0  0  0  0  0  0  0  0  0  0
    3.7405    0.7938   -0.2108 H   0  0  0  0  0  0  0  0  0  0  0  0
    2.9840    0.2321    1.2993 H   0  0  0  0  0  0  0  0  0  0  0  0
    3.3849   -0.9353    0.0168 H   0  0  0  0  0  0  0  0  0  0  0  0
    1.3122    1.2957   -0.1916 H   0  0  0  0  0  0  0  0  0  0  0  0
    1.7131    0.1283   -1.4740 H   0  0  0  0  0  0  0  0  0  0  0  0
    1.0182   -1.7361    0.0059 H   0  0  0  0  0  0  0  0  0  0  0  0
    0.6173   -0.5687    1.2883 H   0  0  0  0  0  0  0  0  0  0  0  0
   -0.6371   -0.5847   -1.4929 H   0  0  0  0  0  0  0  0  0  0  0  0
   -1.7355   -1.5355    1.1916 H   0  0  0  0  0  0  0  0  0  0  0  0
   -2.6486   -1.4565   -0.3343 H   0  0  0  0  0  0  0  0  0  0  0  0
   -1.2801   -2.5832   -0.1734 H   0  0  0  0  0  0  0  0  0  0  0  0
   -1.3834    1.0543    1.4008 H   0  0  0  0  0  0  0  0  0  0  0  0
  1  2  1  0  0  0  0
  2  3  1  0  0  0  0
  3  4  1  0  0  0  0
  4  5  1  0  0  0  0
  4  6  1  0  0  0  0
  1  7  1  0  0  0  0
  1  8  1  0  0  0  0
  1  9  1  0  0  0  0
  2 10  1  0  0  0  0
  2 11  1  0  0  0  0
  3 12  1  0  0  0  0
  3 13  1  0  0  0  0
  4 14  1  0  0  0  0
  5 15  1  0  0  0  0
  5 16  1  0  0  0  0
  5 17  1  0  0  0  0
  6 18  1  0  0  0  0
M  END
$$$$
