C4H8S2
APtclcactv06211806233D 0   0.00000     0.00000
 
 14 13  0  0  0  0  0  0  0  0999 V2000
   -2.5218   -0.3576    0.8932 C   0  0  0  0  0  0  0  0  0  0  0  0
   -1.4154   -0.5229   -0.5348 S   0  0  0  0  0  0  0  0  0  0  0  0
   -0.1094    1.0381   -0.2895 S   0  0  0  0  0  0  0  0  0  0  0  0
    1.1403    0.3521    0.8323 C   0  0  0  0  0  0  0  0  0  0  0  0
    1.9531   -0.6868    0.1037 C   0  0  0  0  0  0  0  0  0  0  0  0
    3.2297   -0.4868   -0.1121 C   0  0  0  0  0  0  0  0  0  0  0  0
   -3.0174    0.6126    0.8584 H   0  0  0  0  0  0  0  0  0  0  0  0
   -3.2706   -1.1492    0.8662 H   0  0  0  0  0  0  0  0  0  0  0  0
   -1.9423   -0.4369    1.8129 H   0  0  0  0  0  0  0  0  0  0  0  0
    1.7968    1.1511    1.1769 H   0  0  0  0  0  0  0  0  0  0  0  0
    0.6467   -0.1075    1.6886 H   0  0  0  0  0  0  0  0  0  0  0  0
    1.4833   -1.5963   -0.2406 H   0  0  0  0  0  0  0  0  0  0  0  0
    3.6995    0.4226    0.2321 H   0  0  0  0  0  0  0  0  0  0  0  0
    3.8122   -1.2314   -0.6342 H   0  0  0  0  0  0  0  0  0  0  0  0
  1  2  1  0  0  0  0
  2  3  1  0  0  0  0
  3  4  1  0  0  0  0
  4  5  1  0  0  0  0
  5  6  2  0  0  0  0
  1  7  1  0  0  0  0
  1  8  1  0  0  0  0
  1  9  1  0  0  0  0
  4 10  1  0  0  0  0
  4 11  1  0  0  0  0
  5 12  1  0  0  0  0
  6 13  1  0  0  0  0
  6 14  1  0  0  0  0
M  END
$$$$
