C10H20O2
APtclcactv06211806233D 0   0.00000     0.00000
 
 32 31  0  0  0  0  0  0  0  0999 V2000
    5.1534   -0.0635   -0.3368 C   0  0  0  0  0  0  0  0  0  0  0  0
    3.8448    0.7125   -0.1748 C   0  0  0  0  0  0  0  0  0  0  0  0
    2.6701   -0.2675   -0.1525 C   0  0  0  0  0  0  0  0  0  0  0  0
    2.7703   -1.1557    1.0892 C   0  0  0  0  0  0  0  0  0  0  0  0
    1.3549    0.5135   -0.1161 C   0  0  0  0  0  0  0  0  0  0  0  0
    0.2399   -0.4114   -0.2142 O   0  0  0  0  0  0  0  0  0  0  0  0
   -0.9938    0.1174   -0.1966 C   0  0  0  0  0  0  0  0  0  0  0  0
   -1.1372    1.3134   -0.1023 O   0  0  0  0  0  0  0  0  0  0  0  0
   -2.1999   -0.7808   -0.2945 C   0  0  0  0  0  0  0  0  0  0  0  0
   -3.4724    0.0677   -0.2517 C   0  0  0  0  0  0  0  0  0  0  0  0
   -4.6913   -0.8293   -0.4759 C   0  0  0  0  0  0  0  0  0  0  0  0
   -3.5851    0.7495    1.1134 C   0  0  0  0  0  0  0  0  0  0  0  0
    5.2721   -0.7540    0.4981 H   0  0  0  0  0  0  0  0  0  0  0  0
    5.1301   -0.6240   -1.2714 H   0  0  0  0  0  0  0  0  0  0  0  0
    5.9903    0.6347   -0.3527 H   0  0  0  0  0  0  0  0  0  0  0  0
    3.8681    1.2730    0.7598 H   0  0  0  0  0  0  0  0  0  0  0  0
    3.7261    1.4031   -1.0097 H   0  0  0  0  0  0  0  0  0  0  0  0
    2.6987   -0.8893   -1.0473 H   0  0  0  0  0  0  0  0  0  0  0  0
    2.7417   -0.5339    1.9840 H   0  0  0  0  0  0  0  0  0  0  0  0
    1.9335   -1.8539    1.1051 H   0  0  0  0  0  0  0  0  0  0  0  0
    3.7073   -1.7121    1.0632 H   0  0  0  0  0  0  0  0  0  0  0  0
    1.2867    1.0667    0.8207 H   0  0  0  0  0  0  0  0  0  0  0  0
    1.3232    1.2110   -0.9531 H   0  0  0  0  0  0  0  0  0  0  0  0
   -2.1646   -1.3356   -1.2320 H   0  0  0  0  0  0  0  0  0  0  0  0
   -2.2011   -1.4799    0.5417 H   0  0  0  0  0  0  0  0  0  0  0  0
   -3.4302    0.8256   -1.0339 H   0  0  0  0  0  0  0  0  0  0  0  0
   -4.7335   -1.5872    0.3063 H   0  0  0  0  0  0  0  0  0  0  0  0
   -5.5979   -0.2249   -0.4454 H   0  0  0  0  0  0  0  0  0  0  0  0
   -4.6111   -1.3150   -1.4484 H   0  0  0  0  0  0  0  0  0  0  0  0
   -3.6273   -0.0084    1.8956 H   0  0  0  0  0  0  0  0  0  0  0  0
   -2.7167    1.3886    1.2731 H   0  0  0  0  0  0  0  0  0  0  0  0
   -4.4916    1.3539    1.1439 H   0  0  0  0  0  0  0  0  0  0  0  0
  1  2  1  0  0  0  0
  2  3  1  0  0  0  0
  3  4  1  0  0  0  0
  3  5  1  0  0  0  0
  5  6  1  0  0  0  0
  6  7  1  0  0  0  0
  7  8  2  0  0  0  0
  7  9  1  0  0  0  0
  9 10  1  0  0  0  0
 10 11  1  0  0  0  0
 10 12  1  0  0  0  0
  1 13  1  0  0  0  0
  1 14  1  0  0  0  0
  1 15  1  0  0  0  0
  2 16  1  0  0  0  0
  2 17  1  0  0  0  0
  3 18  1  0  0  0  0
  4 19  1  0  0  0  0
  4 20  1  0  0  0  0
  4 21  1  0  0  0  0
  5 22  1  0  0  0  0
  5 23  1  0  0  0  0
  9 24  1  0  0  0  0
  9 25  1  0  0  0  0
 10 26  1  0  0  0  0
 11 27  1  0  0  0  0
 11 28  1  0  0  0  0
 11 29  1  0  0  0  0
 12 30  1  0  0  0  0
 12 31  1  0  0  0  0
 12 32  1  0  0  0  0
M  END
$$$$
