C8H8O
APtclcactv06211806233D 0   0.00000     0.00000
 
 17 17  0  0  0  0  0  0  0  0999 V2000
    3.2960    0.5761    0.0108 C   0  0  0  0  0  0  0  0  0  0  0  0
    2.4846   -0.4726    0.0095 C   0  0  0  0  0  0  0  0  0  0  0  0
    1.0203   -0.2738   -0.0007 C   0  0  0  0  0  0  0  0  0  0  0  0
    0.1645   -1.3764   -0.0021 C   0  0  0  0  0  0  0  0  0  0  0  0
   -1.2009   -1.1869   -0.0112 C   0  0  0  0  0  0  0  0  0  0  0  0
   -1.7252    0.0989   -0.0190 C   0  0  0  0  0  0  0  0  0  0  0  0
   -0.8771    1.1984   -0.0181 C   0  0  0  0  0  0  0  0  0  0  0  0
    0.4894    1.0171   -0.0032 C   0  0  0  0  0  0  0  0  0  0  0  0
   -3.0715    0.2816   -0.0280 O   0  0  0  0  0  0  0  0  0  0  0  0
    4.3661    0.4309    0.0183 H   0  0  0  0  0  0  0  0  0  0  0  0
    2.8868    1.5755   -0.0002 H   0  0  0  0  0  0  0  0  0  0  0  0
    2.8938   -1.4720    0.0160 H   0  0  0  0  0  0  0  0  0  0  0  0
    0.5715   -2.3768    0.0036 H   0  0  0  0  0  0  0  0  0  0  0  0
   -1.8638   -2.0396   -0.0126 H   0  0  0  0  0  0  0  0  0  0  0  0
   -1.2886    2.1969   -0.0249 H   0  0  0  0  0  0  0  0  0  0  0  0
    1.1484    1.8727   -0.0026 H   0  0  0  0  0  0  0  0  0  0  0  0
   -3.4667    0.3377    0.8528 H   0  0  0  0  0  0  0  0  0  0  0  0
  1  2  2  0  0  0  0
  2  3  1  0  0  0  0
  3  4  2  0  0  0  0
  4  5  1  0  0  0  0
  5  6  2  0  0  0  0
  6  7  1  0  0  0  0
  7  8  2  0  0  0  0
  3  8  1  0  0  0  0
  6  9  1  0  0  0  0
  1 10  1  0  0  0  0
  1 11  1  0  0  0  0
  2 12  1  0  0  0  0
  4 13  1  0  0  0  0
  5 14  1  0  0  0  0
  7 15  1  0  0  0  0
  8 16  1  0  0  0  0
  9 17  1  0  0  0  0
M  END
$$$$
