C18H32O3
APtclcactv06281816503D 0   0.00000     0.00000
 
 53 53  0  0  0  0  0  0  0  0999 V2000
   10.8421    1.9559   -0.0068 C   0  0  0  0  0  0  0  0  0  0  0  0
    9.5267    1.4806    0.6134 C   0  0  0  0  0  0  0  0  0  0  0  0
    8.8142    0.5399   -0.3605 C   0  0  0  0  0  0  0  0  0  0  0  0
    7.4988    0.0646    0.2596 C   0  0  0  0  0  0  0  0  0  0  0  0
    6.7864   -0.8761   -0.7143 C   0  0  0  0  0  0  0  0  0  0  0  0
    5.4907   -1.3442   -0.1034 C   0  0  0  0  0  0  0  0  0  0  0  0
    4.3634   -1.1751   -0.7490 C   0  0  0  0  0  0  0  0  0  0  0  0
    3.0677   -1.6433   -0.1381 C   0  0  0  0  0  0  0  0  0  0  0  0
    2.0804   -0.4760   -0.0797 C   0  0  0  0  0  0  0  0  0  0  0  0
    0.6580   -0.7688    0.4020 C   0  0  0  0  0  0  0  0  0  0  0  0
    1.6084   -0.0668    1.2056 O   0  0  0  0  0  0  0  0  0  0  0  0
   -0.4849    0.0374   -0.2183 C   0  0  0  0  0  0  0  0  0  0  0  0
   -1.8230   -0.4904    0.3031 C   0  0  0  0  0  0  0  0  0  0  0  0
   -2.9659    0.3158   -0.3172 C   0  0  0  0  0  0  0  0  0  0  0  0
   -4.3039   -0.2121    0.2042 C   0  0  0  0  0  0  0  0  0  0  0  0
   -5.4468    0.5941   -0.4161 C   0  0  0  0  0  0  0  0  0  0  0  0
   -6.7849    0.0663    0.1053 C   0  0  0  0  0  0  0  0  0  0  0  0
   -7.9278    0.8725   -0.5150 C   0  0  0  0  0  0  0  0  0  0  0  0
   -9.2457    0.3526   -0.0015 C   0  0  0  0  0  0  0  0  0  0  0  0
   -9.2686   -0.5683    0.7804 O   0  0  0  0  0  0  0  0  0  0  0  0
  -10.3942    0.9126   -0.4127 O   0  0  0  0  0  0  0  0  0  0  0  0
   11.3497    2.6261    0.6870 H   0  0  0  0  0  0  0  0  0  0  0  0
   11.4788    1.0953   -0.2122 H   0  0  0  0  0  0  0  0  0  0  0  0
   10.6350    2.4849   -0.9370 H   0  0  0  0  0  0  0  0  0  0  0  0
    9.7338    0.9516    1.5436 H   0  0  0  0  0  0  0  0  0  0  0  0
    8.8900    2.3411    0.8187 H   0  0  0  0  0  0  0  0  0  0  0  0
    8.6071    1.0689   -1.2908 H   0  0  0  0  0  0  0  0  0  0  0  0
    9.4509   -0.3206   -0.5659 H   0  0  0  0  0  0  0  0  0  0  0  0
    7.7059   -0.4644    1.1899 H   0  0  0  0  0  0  0  0  0  0  0  0
    6.8621    0.9252    0.4650 H   0  0  0  0  0  0  0  0  0  0  0  0
    6.5793   -0.3471   -1.6445 H   0  0  0  0  0  0  0  0  0  0  0  0
    7.4231   -1.7366   -0.9196 H   0  0  0  0  0  0  0  0  0  0  0  0
    5.4915   -1.8192    0.8666 H   0  0  0  0  0  0  0  0  0  0  0  0
    4.3626   -0.7002   -1.7189 H   0  0  0  0  0  0  0  0  0  0  0  0
    2.6478   -2.4443   -0.7465 H   0  0  0  0  0  0  0  0  0  0  0  0
    3.2540   -2.0125    0.8704 H   0  0  0  0  0  0  0  0  0  0  0  0
    2.2104    0.2922   -0.8420 H   0  0  0  0  0  0  0  0  0  0  0  0
    0.4171   -1.7948    0.6801 H   0  0  0  0  0  0  0  0  0  0  0  0
   -0.3779    1.0876    0.0533 H   0  0  0  0  0  0  0  0  0  0  0  0
   -0.4528   -0.0624   -1.3033 H   0  0  0  0  0  0  0  0  0  0  0  0
   -1.9300   -1.5406    0.0315 H   0  0  0  0  0  0  0  0  0  0  0  0
   -1.8550   -0.3906    1.3880 H   0  0  0  0  0  0  0  0  0  0  0  0
   -2.8588    1.3660   -0.0456 H   0  0  0  0  0  0  0  0  0  0  0  0
   -2.9338    0.2160   -1.4022 H   0  0  0  0  0  0  0  0  0  0  0  0
   -4.4109   -1.2622   -0.0674 H   0  0  0  0  0  0  0  0  0  0  0  0
   -4.3360   -0.1123    1.2891 H   0  0  0  0  0  0  0  0  0  0  0  0
   -5.3398    1.6443   -0.1445 H   0  0  0  0  0  0  0  0  0  0  0  0
   -5.4147    0.4944   -1.5011 H   0  0  0  0  0  0  0  0  0  0  0  0
   -6.8919   -0.9839   -0.1663 H   0  0  0  0  0  0  0  0  0  0  0  0
   -6.8169    0.1661    1.1902 H   0  0  0  0  0  0  0  0  0  0  0  0
   -7.8208    1.9227   -0.2434 H   0  0  0  0  0  0  0  0  0  0  0  0
   -7.8957    0.7727   -1.6000 H   0  0  0  0  0  0  0  0  0  0  0  0
  -11.2143    0.5449   -0.0557 H   0  0  0  0  0  0  0  0  0  0  0  0
  1  2  1  0  0  0  0
  2  3  1  0  0  0  0
  3  4  1  0  0  0  0
  4  5  1  0  0  0  0
  5  6  1  0  0  0  0
  6  7  2  0  0  0  0
  7  8  1  0  0  0  0
  8  9  1  0  0  0  0
  9 10  1  0  0  0  0
 10 11  1  0  0  0  0
  9 11  1  0  0  0  0
 10 12  1  0  0  0  0
 12 13  1  0  0  0  0
 13 14  1  0  0  0  0
 14 15  1  0  0  0  0
 15 16  1  0  0  0  0
 16 17  1  0  0  0  0
 17 18  1  0  0  0  0
 18 19  1  0  0  0  0
 19 20  2  0  0  0  0
 19 21  1  0  0  0  0
  1 22  1  0  0  0  0
  1 23  1  0  0  0  0
  1 24  1  0  0  0  0
  2 25  1  0  0  0  0
  2 26  1  0  0  0  0
  3 27  1  0  0  0  0
  3 28  1  0  0  0  0
  4 29  1  0  0  0  0
  4 30  1  0  0  0  0
  5 31  1  0  0  0  0
  5 32  1  0  0  0  0
  6 33  1  0  0  0  0
  7 34  1  0  0  0  0
  8 35  1  0  0  0  0
  8 36  1  0  0  0  0
  9 37  1  0  0  0  0
 10 38  1  0  0  0  0
 12 39  1  0  0  0  0
 12 40  1  0  0  0  0
 13 41  1  0  0  0  0
 13 42  1  0  0  0  0
 14 43  1  0  0  0  0
 14 44  1  0  0  0  0
 15 45  1  0  0  0  0
 15 46  1  0  0  0  0
 16 47  1  0  0  0  0
 16 48  1  0  0  0  0
 17 49  1  0  0  0  0
 17 50  1  0  0  0  0
 18 51  1  0  0  0  0
 18 52  1  0  0  0  0
 21 53  1  0  0  0  0
M  END
$$$$
