C16H19N3O4S
APtclcactv06211804343D 0   0.00000     0.00000
 
 43 45  0  0  0  0  0  0  0  0999 V2000
    4.5500   -2.0937    0.7740 C   0  0  0  0  0  0  0  0  0  0  0  0
    3.3216   -1.2012    0.5861 C   0  0  0  0  0  0  0  0  0  0  0  0
    3.3857   -0.4251   -0.7599 C   0  0  0  0  0  0  0  0  0  0  0  0
    2.0348    0.0025   -1.1267 N   0  0  0  0  0  0  0  0  0  0  0  0
    0.9692   -0.9304   -0.7339 C   0  0  0  0  0  0  0  0  0  0  0  0
    1.8029   -2.2024    0.2933 S   0  0  0  0  0  0  0  0  0  0  0  0
    0.2918    0.1651    0.0875 C   0  0  0  0  0  0  0  0  0  0  0  0
    1.4354    0.9920   -0.4362 C   0  0  0  0  0  0  0  0  0  0  0  0
    1.7224    2.1607   -0.2858 O   0  0  0  0  0  0  0  0  0  0  0  0
   -1.0247    0.5689   -0.4125 N   0  0  0  0  0  0  0  0  0  0  0  0
   -1.9274    1.1117    0.4282 C   0  0  0  0  0  0  0  0  0  0  0  0
   -1.6499    1.2659    1.5987 O   0  0  0  0  0  0  0  0  0  0  0  0
   -3.2816    1.5271   -0.0862 C   0  0  0  0  0  0  0  0  0  0  0  0
   -4.1701    0.3150   -0.1975 C   0  0  0  0  0  0  0  0  0  0  0  0
   -4.3637   -0.2897   -1.4254 C   0  0  0  0  0  0  0  0  0  0  0  0
   -5.1787   -1.4016   -1.5275 C   0  0  0  0  0  0  0  0  0  0  0  0
   -5.7999   -1.9090   -0.4016 C   0  0  0  0  0  0  0  0  0  0  0  0
   -5.6056   -1.3048    0.8265 C   0  0  0  0  0  0  0  0  0  0  0  0
   -4.7871   -0.1956    0.9293 C   0  0  0  0  0  0  0  0  0  0  0  0
   -3.8838    2.4919    0.8436 N   0  0  0  0  0  0  0  0  0  0  0  0
    4.2739    0.7826   -0.6056 C   0  0  0  0  0  0  0  0  0  0  0  0
    3.8646    1.8769   -0.9134 O   0  0  0  0  0  0  0  0  0  0  0  0
    5.5198    0.6425   -0.1260 O   0  0  0  0  0  0  0  0  0  0  0  0
    3.1433   -0.2493    1.7706 C   0  0  0  0  0  0  0  0  0  0  0  0
    5.4499   -1.4786    0.7717 H   0  0  0  0  0  0  0  0  0  0  0  0
    4.4734   -2.6219    1.7245 H   0  0  0  0  0  0  0  0  0  0  0  0
    4.6019   -2.8166   -0.0402 H   0  0  0  0  0  0  0  0  0  0  0  0
    3.7876   -1.0743   -1.5377 H   0  0  0  0  0  0  0  0  0  0  0  0
    0.3799   -1.3375   -1.5556 H   0  0  0  0  0  0  0  0  0  0  0  0
    0.3137   -0.0018    1.1644 H   0  0  0  0  0  0  0  0  0  0  0  0
   -1.2466    0.4455   -1.3487 H   0  0  0  0  0  0  0  0  0  0  0  0
   -3.1717    1.9883   -1.0676 H   0  0  0  0  0  0  0  0  0  0  0  0
   -3.8784    0.1067   -2.3050 H   0  0  0  0  0  0  0  0  0  0  0  0
   -5.3305   -1.8736   -2.4869 H   0  0  0  0  0  0  0  0  0  0  0  0
   -6.4372   -2.7772   -0.4815 H   0  0  0  0  0  0  0  0  0  0  0  0
   -6.0911   -1.7010    1.7061 H   0  0  0  0  0  0  0  0  0  0  0  0
   -4.6353    0.2764    1.8888 H   0  0  0  0  0  0  0  0  0  0  0  0
   -3.9963    2.0878    1.7613 H   0  0  0  0  0  0  0  0  0  0  0  0
   -3.3399    3.3407    0.8864 H   0  0  0  0  0  0  0  0  0  0  0  0
    6.0519    1.4458   -0.0450 H   0  0  0  0  0  0  0  0  0  0  0  0
    4.0188    0.3946    1.8542 H   0  0  0  0  0  0  0  0  0  0  0  0
    2.2554    0.3633    1.6140 H   0  0  0  0  0  0  0  0  0  0  0  0
    3.0287   -0.8275    2.6874 H   0  0  0  0  0  0  0  0  0  0  0  0
  1  2  1  0  0  0  0
  2  3  1  0  0  0  0
  3  4  1  0  0  0  0
  4  5  1  0  0  0  0
  5  6  1  0  0  0  0
  2  6  1  0  0  0  0
  5  7  1  0  0  0  0
  7  8  1  0  0  0  0
  4  8  1  0  0  0  0
  8  9  2  0  0  0  0
  7 10  1  0  0  0  0
 10 11  1  0  0  0  0
 11 12  2  0  0  0  0
 11 13  1  0  0  0  0
 13 14  1  0  0  0  0
 14 15  2  0  0  0  0
 15 16  1  0  0  0  0
 16 17  2  0  0  0  0
 17 18  1  0  0  0  0
 18 19  2  0  0  0  0
 14 19  1  0  0  0  0
 13 20  1  0  0  0  0
  3 21  1  0  0  0  0
 21 22  2  0  0  0  0
 21 23  1  0  0  0  0
  2 24  1  0  0  0  0
  1 25  1  0  0  0  0
  1 26  1  0  0  0  0
  1 27  1  0  0  0  0
  3 28  1  0  0  0  0
  5 29  1  0  0  0  0
  7 30  1  0  0  0  0
 10 31  1  0  0  0  0
 13 32  1  0  0  0  0
 15 33  1  0  0  0  0
 16 34  1  0  0  0  0
 17 35  1  0  0  0  0
 18 36  1  0  0  0  0
 19 37  1  0  0  0  0
 20 38  1  0  0  0  0
 20 39  1  0  0  0  0
 23 40  1  0  0  0  0
 24 41  1  0  0  0  0
 24 42  1  0  0  0  0
 24 43  1  0  0  0  0
M  END
$$$$
