C9H13N3O5
APtclcactv06211804373D 0   0.00000     0.00000
 
 30 31  0  0  0  0  0  0  0  0999 V2000
    2.3013    1.6329    0.1130 C   0  0  0  0  0  0  0  0  0  0  0  0
    1.0864    1.1679   -0.2629 C   0  0  0  0  0  0  0  0  0  0  0  0
    0.9130   -0.1710   -0.4471 N   0  0  0  0  0  0  0  0  0  0  0  0
    1.9383   -1.0217   -0.2575 C   0  0  0  0  0  0  0  0  0  0  0  0
    1.7653   -2.2172   -0.4273 O   0  0  0  0  0  0  0  0  0  0  0  0
    3.1391   -0.5797    0.1122 N   0  0  0  0  0  0  0  0  0  0  0  0
    3.3548    0.7152    0.3034 C   0  0  0  0  0  0  0  0  0  0  0  0
    4.5993    1.1603    0.6848 N   0  0  0  0  0  0  0  0  0  0  0  0
   -0.3965   -0.6872   -0.8533 C   0  0  0  0  0  0  0  0  0  0  0  0
   -1.0268   -1.5137    0.2895 C   0  0  0  0  0  0  0  0  0  0  0  0
   -1.9332   -0.5034    1.0277 C   0  0  0  0  0  0  0  0  0  0  0  0
   -1.7433    0.8140    0.2435 C   0  0  0  0  0  0  0  0  0  0  0  0
   -1.3196    0.4014   -1.0740 O   0  0  0  0  0  0  0  0  0  0  0  0
   -3.0648    1.5807    0.1623 C   0  0  0  0  0  0  0  0  0  0  0  0
   -2.8436    2.8463   -0.4633 O   0  0  0  0  0  0  0  0  0  0  0  0
   -3.2978   -0.9244    0.9763 O   0  0  0  0  0  0  0  0  0  0  0  0
   -1.8040   -2.5895   -0.2403 O   0  0  0  0  0  0  0  0  0  0  0  0
    2.4621    2.6906    0.2603 H   0  0  0  0  0  0  0  0  0  0  0  0
    0.2636    1.8509   -0.4147 H   0  0  0  0  0  0  0  0  0  0  0  0
    5.3222    0.5266    0.8147 H   0  0  0  0  0  0  0  0  0  0  0  0
    4.7540    2.1077    0.8238 H   0  0  0  0  0  0  0  0  0  0  0  0
   -0.3015   -1.2948   -1.7533 H   0  0  0  0  0  0  0  0  0  0  0  0
   -0.2538   -1.8927    0.9580 H   0  0  0  0  0  0  0  0  0  0  0  0
   -1.6084   -0.3829    2.0611 H   0  0  0  0  0  0  0  0  0  0  0  0
   -0.9756    1.4283    0.7140 H   0  0  0  0  0  0  0  0  0  0  0  0
   -3.7826    1.0065   -0.4235 H   0  0  0  0  0  0  0  0  0  0  0  0
   -3.4573    1.7359    1.1673 H   0  0  0  0  0  0  0  0  0  0  0  0
   -3.6403    3.3876   -0.5485 H   0  0  0  0  0  0  0  0  0  0  0  0
   -3.9112   -0.3261    1.4247 H   0  0  0  0  0  0  0  0  0  0  0  0
   -2.2230   -3.1414    0.4341 H   0  0  0  0  0  0  0  0  0  0  0  0
  1  2  2  0  0  0  0
  2  3  1  0  0  0  0
  3  4  1  0  0  0  0
  4  5  2  0  0  0  0
  4  6  1  0  0  0  0
  6  7  2  0  0  0  0
  1  7  1  0  0  0  0
  7  8  1  0  0  0  0
  3  9  1  0  0  0  0
  9 10  1  0  0  0  0
 10 11  1  0  0  0  0
 11 12  1  0  0  0  0
 12 13  1  0  0  0  0
  9 13  1  0  0  0  0
 12 14  1  0  0  0  0
 14 15  1  0  0  0  0
 11 16  1  0  0  0  0
 10 17  1  0  0  0  0
  1 18  1  0  0  0  0
  2 19  1  0  0  0  0
  8 20  1  0  0  0  0
  8 21  1  0  0  0  0
  9 22  1  0  0  0  0
 10 23  1  0  0  0  0
 11 24  1  0  0  0  0
 12 25  1  0  0  0  0
 14 26  1  0  0  0  0
 14 27  1  0  0  0  0
 15 28  1  0  0  0  0
 16 29  1  0  0  0  0
 17 30  1  0  0  0  0
M  END
$$$$
