C6H9N3O2
APtclcactv06211804313D 0   0.00000     0.00000
 
 20 20  0  0  0  0  0  0  0  0999 V2000
    2.0370    0.9212    0.4367 C   0  0  0  0  0  0  0  0  0  0  0  0
    1.2846   -0.1933    0.3626 C   0  0  0  0  0  0  0  0  0  0  0  0
    2.0880   -1.1807   -0.1407 N   0  0  0  0  0  0  0  0  0  0  0  0
    3.3041   -0.6349   -0.3568 C   0  0  0  0  0  0  0  0  0  0  0  0
    3.2662    0.6224   -0.0092 N   0  0  0  0  0  0  0  0  0  0  0  0
   -0.1633   -0.3276    0.7581 C   0  0  0  0  0  0  0  0  0  0  0  0
   -1.0531    0.1047   -0.4090 C   0  0  0  0  0  0  0  0  0  0  0  0
   -2.4975   -0.1449   -0.0589 C   0  0  0  0  0  0  0  0  0  0  0  0
   -3.1933    0.7669    0.3208 O   0  0  0  0  0  0  0  0  0  0  0  0
   -3.0109   -1.3802   -0.1688 O   0  0  0  0  0  0  0  0  0  0  0  0
   -0.8535    1.5359   -0.6729 N   0  0  0  0  0  0  0  0  0  0  0  0
    1.7071    1.8873    0.7889 H   0  0  0  0  0  0  0  0  0  0  0  0
    1.8316   -2.1007   -0.3105 H   0  0  0  0  0  0  0  0  0  0  0  0
    4.1655   -1.1530   -0.7518 H   0  0  0  0  0  0  0  0  0  0  0  0
   -0.3758   -1.3662    1.0117 H   0  0  0  0  0  0  0  0  0  0  0  0
   -0.3642    0.3058    1.6222 H   0  0  0  0  0  0  0  0  0  0  0  0
   -0.7904   -0.4688   -1.2980 H   0  0  0  0  0  0  0  0  0  0  0  0
   -3.9421   -1.4912    0.0671 H   0  0  0  0  0  0  0  0  0  0  0  0
   -1.0904    2.0894    0.1368 H   0  0  0  0  0  0  0  0  0  0  0  0
    0.0922    1.7199   -0.9726 H   0  0  0  0  0  0  0  0  0  0  0  0
  1  2  2  0  0  0  0
  2  3  1  0  0  0  0
  3  4  1  0  0  0  0
  4  5  2  0  0  0  0
  1  5  1  0  0  0  0
  2  6  1  0  0  0  0
  6  7  1  0  0  0  0
  7  8  1  0  0  0  0
  8  9  2  0  0  0  0
  8 10  1  0  0  0  0
  7 11  1  0  0  0  0
  1 12  1  0  0  0  0
  3 13  1  0  0  0  0
  4 14  1  0  0  0  0
  6 15  1  0  0  0  0
  6 16  1  0  0  0  0
  7 17  1  0  0  0  0
 10 18  1  0  0  0  0
 11 19  1  0  0  0  0
 11 20  1  0  0  0  0
M  END
$$$$
