C10H20O2
APtclcactv06211806233D 0   0.00000     0.00000
 
 32 31  0  0  0  0  0  0  0  0999 V2000
    1.2086    2.0275   -1.0856 C   0  0  0  0  0  0  0  0  0  0  0  0
    1.0981    1.5851    0.3748 C   0  0  0  0  0  0  0  0  0  0  0  0
    0.9225    0.0665    0.4359 C   0  0  0  0  0  0  0  0  0  0  0  0
    0.8120   -0.3759    1.8964 C   0  0  0  0  0  0  0  0  0  0  0  0
   -0.3503   -0.3303   -0.3149 C   0  0  0  0  0  0  0  0  0  0  0  0
   -1.5579    0.3492    0.3339 C   0  0  0  0  0  0  0  0  0  0  0  0
   -2.8306   -0.0475   -0.4169 C   0  0  0  0  0  0  0  0  0  0  0  0
   -3.0735   -1.5490   -0.2509 C   0  0  0  0  0  0  0  0  0  0  0  0
   -4.0208    0.7276    0.1519 C   0  0  0  0  0  0  0  0  0  0  0  0
    2.1119   -0.6029   -0.2031 C   0  0  0  0  0  0  0  0  0  0  0  0
    1.9575   -1.3233   -1.1607 O   0  0  0  0  0  0  0  0  0  0  0  0
    3.3429   -0.3987    0.2916 O   0  0  0  0  0  0  0  0  0  0  0  0
    2.0689    1.5434   -1.5478 H   0  0  0  0  0  0  0  0  0  0  0  0
    0.3019    1.7448   -1.6205 H   0  0  0  0  0  0  0  0  0  0  0  0
    1.3337    3.1094   -1.1291 H   0  0  0  0  0  0  0  0  0  0  0  0
    2.0048    1.8678    0.9097 H   0  0  0  0  0  0  0  0  0  0  0  0
    0.2378    2.0693    0.8370 H   0  0  0  0  0  0  0  0  0  0  0  0
   -0.0483    0.1083    2.3585 H   0  0  0  0  0  0  0  0  0  0  0  0
    0.6869   -1.4578    1.9398 H   0  0  0  0  0  0  0  0  0  0  0  0
    1.7187   -0.0932    2.4312 H   0  0  0  0  0  0  0  0  0  0  0  0
   -0.2716   -0.0152   -1.3553 H   0  0  0  0  0  0  0  0  0  0  0  0
   -0.4754   -1.4122   -0.2714 H   0  0  0  0  0  0  0  0  0  0  0  0
   -1.6366    0.0341    1.3744 H   0  0  0  0  0  0  0  0  0  0  0  0
   -1.4327    1.4312    0.2904 H   0  0  0  0  0  0  0  0  0  0  0  0
   -2.7163    0.1872   -1.4751 H   0  0  0  0  0  0  0  0  0  0  0  0
   -3.1878   -1.7838    0.8074 H   0  0  0  0  0  0  0  0  0  0  0  0
   -3.9802   -1.8317   -0.7857 H   0  0  0  0  0  0  0  0  0  0  0  0
   -2.2256   -2.1012   -0.6561 H   0  0  0  0  0  0  0  0  0  0  0  0
   -3.8478    1.7973    0.0336 H   0  0  0  0  0  0  0  0  0  0  0  0
   -4.9275    0.4449   -0.3829 H   0  0  0  0  0  0  0  0  0  0  0  0
   -4.1351    0.4928    1.2102 H   0  0  0  0  0  0  0  0  0  0  0  0
    4.0745   -0.8494   -0.1518 H   0  0  0  0  0  0  0  0  0  0  0  0
  1  2  1  0  0  0  0
  2  3  1  0  0  0  0
  3  4  1  0  0  0  0
  3  5  1  0  0  0  0
  5  6  1  0  0  0  0
  6  7  1  0  0  0  0
  7  8  1  0  0  0  0
  7  9  1  0  0  0  0
  3 10  1  0  0  0  0
 10 11  2  0  0  0  0
 10 12  1  0  0  0  0
  1 13  1  0  0  0  0
  1 14  1  0  0  0  0
  1 15  1  0  0  0  0
  2 16  1  0  0  0  0
  2 17  1  0  0  0  0
  4 18  1  0  0  0  0
  4 19  1  0  0  0  0
  4 20  1  0  0  0  0
  5 21  1  0  0  0  0
  5 22  1  0  0  0  0
  6 23  1  0  0  0  0
  6 24  1  0  0  0  0
  7 25  1  0  0  0  0
  8 26  1  0  0  0  0
  8 27  1  0  0  0  0
  8 28  1  0  0  0  0
  9 29  1  0  0  0  0
  9 30  1  0  0  0  0
  9 31  1  0  0  0  0
 12 32  1  0  0  0  0
M  END
$$$$
