C17H14O7
APtclcactv06231803063D 0   0.00000     0.00000
 
 38 40  0  0  0  0  0  0  0  0999 V2000
   -4.4668    2.4261   -1.1103 C   0  0  0  0  0  0  0  0  0  0  0  0
   -4.0110    1.8975    0.1367 O   0  0  0  0  0  0  0  0  0  0  0  0
   -3.1085    0.8823    0.0837 C   0  0  0  0  0  0  0  0  0  0  0  0
   -1.7503    1.1691    0.0668 C   0  0  0  0  0  0  0  0  0  0  0  0
   -0.8225    0.1360    0.0127 C   0  0  0  0  0  0  0  0  0  0  0  0
   -1.2716   -1.1955   -0.0241 C   0  0  0  0  0  0  0  0  0  0  0  0
   -0.2695   -2.2735   -0.0812 C   0  0  0  0  0  0  0  0  0  0  0  0
   -0.6023   -3.4473   -0.1152 O   0  0  0  0  0  0  0  0  0  0  0  0
    1.0936   -1.8956   -0.0955 C   0  0  0  0  0  0  0  0  0  0  0  0
    1.4249   -0.5766   -0.0569 C   0  0  0  0  0  0  0  0  0  0  0  0
    0.5031    0.3975   -0.0045 O   0  0  0  0  0  0  0  0  0  0  0  0
    2.8518   -0.2028   -0.0721 C   0  0  0  0  0  0  0  0  0  0  0  0
    3.2794    0.9004   -0.8162 C   0  0  0  0  0  0  0  0  0  0  0  0
    4.6125    1.2461   -0.8273 C   0  0  0  0  0  0  0  0  0  0  0  0
    5.5321    0.4998   -0.1001 C   0  0  0  0  0  0  0  0  0  0  0  0
    5.1113   -0.5981    0.6408 C   0  0  0  0  0  0  0  0  0  0  0  0
    3.7792   -0.9474    0.6620 C   0  0  0  0  0  0  0  0  0  0  0  0
    6.8452    0.8441   -0.1137 O   0  0  0  0  0  0  0  0  0  0  0  0
   -2.6422   -1.4786   -0.0059 C   0  0  0  0  0  0  0  0  0  0  0  0
   -3.5545   -0.4373    0.0527 C   0  0  0  0  0  0  0  0  0  0  0  0
   -4.8894   -0.7039    0.0707 O   0  0  0  0  0  0  0  0  0  0  0  0
   -3.0754   -2.7664   -0.0419 O   0  0  0  0  0  0  0  0  0  0  0  0
   -1.3272    2.4628    0.1027 O   0  0  0  0  0  0  0  0  0  0  0  0
   -1.1005    3.0357    1.3921 C   0  0  0  0  0  0  0  0  0  0  0  0
   -3.6181    2.8177   -1.6709 H   0  0  0  0  0  0  0  0  0  0  0  0
   -4.9487    1.6356   -1.6855 H   0  0  0  0  0  0  0  0  0  0  0  0
   -5.1814    3.2282   -0.9254 H   0  0  0  0  0  0  0  0  0  0  0  0
    1.8662   -2.6492   -0.1365 H   0  0  0  0  0  0  0  0  0  0  0  0
    2.5655    1.4807   -1.3819 H   0  0  0  0  0  0  0  0  0  0  0  0
    4.9439    2.0982   -1.4022 H   0  0  0  0  0  0  0  0  0  0  0  0
    5.8293   -1.1758    1.2039 H   0  0  0  0  0  0  0  0  0  0  0  0
    3.4531   -1.8008    1.2381 H   0  0  0  0  0  0  0  0  0  0  0  0
    7.0959    1.4665    0.5826 H   0  0  0  0  0  0  0  0  0  0  0  0
   -5.2565   -0.8142    0.9585 H   0  0  0  0  0  0  0  0  0  0  0  0
   -3.1826   -3.1698    0.8303 H   0  0  0  0  0  0  0  0  0  0  0  0
   -2.0263    3.0142    1.9670 H   0  0  0  0  0  0  0  0  0  0  0  0
   -0.3348    2.4625    1.9148 H   0  0  0  0  0  0  0  0  0  0  0  0
   -0.7675    4.0673    1.2779 H   0  0  0  0  0  0  0  0  0  0  0  0
  1  2  1  0  0  0  0
  2  3  1  0  0  0  0
  3  4  2  0  0  0  0
  4  5  1  0  0  0  0
  5  6  2  0  0  0  0
  6  7  1  0  0  0  0
  7  8  2  0  0  0  0
  7  9  1  0  0  0  0
  9 10  2  0  0  0  0
 10 11  1  0  0  0  0
  5 11  1  0  0  0  0
 10 12  1  0  0  0  0
 12 13  2  0  0  0  0
 13 14  1  0  0  0  0
 14 15  2  0  0  0  0
 15 16  1  0  0  0  0
 16 17  2  0  0  0  0
 12 17  1  0  0  0  0
 15 18  1  0  0  0  0
  6 19  1  0  0  0  0
 19 20  2  0  0  0  0
  3 20  1  0  0  0  0
 20 21  1  0  0  0  0
 19 22  1  0  0  0  0
  4 23  1  0  0  0  0
 23 24  1  0  0  0  0
  1 25  1  0  0  0  0
  1 26  1  0  0  0  0
  1 27  1  0  0  0  0
  9 28  1  0  0  0  0
 13 29  1  0  0  0  0
 14 30  1  0  0  0  0
 16 31  1  0  0  0  0
 17 32  1  0  0  0  0
 18 33  1  0  0  0  0
 21 34  1  0  0  0  0
 22 35  1  0  0  0  0
 24 36  1  0  0  0  0
 24 37  1  0  0  0  0
 24 38  1  0  0  0  0
M  END
$$$$
