C30H28O12
APtclcactv06281817193D 0   0.00000     0.00000
 
 70 74  0  0  0  0  0  0  0  0999 V2000
   -4.0277   -0.2552   -1.4136 C   0  0  0  0  0  0  0  0  0  0  0  0
   -3.9800    0.3335    0.0039 C   0  0  0  0  0  0  0  0  0  0  0  0
   -3.2260    1.5455   -0.0131 O   0  0  0  0  0  0  0  0  0  0  0  0
   -1.9851    1.5308   -0.5540 C   0  0  0  0  0  0  0  0  0  0  0  0
   -1.0628    2.4967   -0.1932 C   0  0  0  0  0  0  0  0  0  0  0  0
    0.2098    2.4911   -0.7506 C   0  0  0  0  0  0  0  0  0  0  0  0
    0.5744    1.5203   -1.6750 C   0  0  0  0  0  0  0  0  0  0  0  0
   -0.3317    0.5435   -2.0484 C   0  0  0  0  0  0  0  0  0  0  0  0
   -1.6171    0.5413   -1.4849 C   0  0  0  0  0  0  0  0  0  0  0  0
   -2.5929   -0.4915   -1.8502 C   0  0  0  0  0  0  0  0  0  0  0  0
   -2.2697   -1.4840   -2.4697 O   0  0  0  0  0  0  0  0  0  0  0  0
    0.0196   -0.4046   -2.9521 O   0  0  0  0  0  0  0  0  0  0  0  0
    1.1057    3.4432   -0.3880 O   0  0  0  0  0  0  0  0  0  0  0  0
    2.3974    3.3837   -0.9963 C   0  0  0  0  0  0  0  0  0  0  0  0
    3.2218    4.5991   -0.5640 C   0  0  0  0  0  0  0  0  0  0  0  0
    3.4206    4.5576    0.9543 C   0  0  0  0  0  0  0  0  0  0  0  0
    4.0925    3.2345    1.3342 C   0  0  0  0  0  0  0  0  0  0  0  0
    3.2345    2.0718    0.8286 C   0  0  0  0  0  0  0  0  0  0  0  0
    3.0631    2.1878   -0.5854 O   0  0  0  0  0  0  0  0  0  0  0  0
    3.9289    0.7472    1.1515 C   0  0  0  0  0  0  0  0  0  0  0  0
    3.0762   -0.3393    0.7849 O   0  0  0  0  0  0  0  0  0  0  0  0
    3.5430   -1.5859    1.0059 C   0  0  0  0  0  0  0  0  0  0  0  0
    4.6447   -1.7447    1.4967 O   0  0  0  0  0  0  0  0  0  0  0  0
    2.7495   -2.7106    0.6661 C   0  0  0  0  0  0  0  0  0  0  0  0
    3.2169   -3.9586    0.8874 C   0  0  0  0  0  0  0  0  0  0  0  0
    2.3944   -5.1245    0.5352 C   0  0  0  0  0  0  0  0  0  0  0  0
    2.8764   -6.4189    0.7634 C   0  0  0  0  0  0  0  0  0  0  0  0
    2.1020   -7.5075    0.4317 C   0  0  0  0  0  0  0  0  0  0  0  0
    0.8434   -7.3232   -0.1296 C   0  0  0  0  0  0  0  0  0  0  0  0
    0.3600   -6.0398   -0.3583 C   0  0  0  0  0  0  0  0  0  0  0  0
    1.1238   -4.9444   -0.0245 C   0  0  0  0  0  0  0  0  0  0  0  0
    0.0842   -8.4000   -0.4557 O   0  0  0  0  0  0  0  0  0  0  0  0
    5.3882    3.1677    0.7352 O   0  0  0  0  0  0  0  0  0  0  0  0
    4.2508    5.6485    1.3577 O   0  0  0  0  0  0  0  0  0  0  0  0
    4.4944    4.5684   -1.2132 O   0  0  0  0  0  0  0  0  0  0  0  0
   -5.3819    0.6198    0.4770 C   0  0  0  0  0  0  0  0  0  0  0  0
   -6.0174   -0.2654    1.3280 C   0  0  0  0  0  0  0  0  0  0  0  0
   -7.3025   -0.0052    1.7631 C   0  0  0  0  0  0  0  0  0  0  0  0
   -7.9553    1.1455    1.3455 C   0  0  0  0  0  0  0  0  0  0  0  0
   -7.3154    2.0322    0.4917 C   0  0  0  0  0  0  0  0  0  0  0  0
   -6.0282    1.7702    0.0639 C   0  0  0  0  0  0  0  0  0  0  0  0
   -9.2196    1.4035    1.7718 O   0  0  0  0  0  0  0  0  0  0  0  0
   -4.5734   -1.1987   -1.4056 H   0  0  0  0  0  0  0  0  0  0  0  0
   -4.5109    0.4483   -2.0916 H   0  0  0  0  0  0  0  0  0  0  0  0
   -3.5066   -0.3800    0.6784 H   0  0  0  0  0  0  0  0  0  0  0  0
   -1.3331    3.2578    0.5238 H   0  0  0  0  0  0  0  0  0  0  0  0
    1.5660    1.5283   -2.1030 H   0  0  0  0  0  0  0  0  0  0  0  0
    0.4096   -1.1974   -2.5589 H   0  0  0  0  0  0  0  0  0  0  0  0
    2.2889    3.3852   -2.0809 H   0  0  0  0  0  0  0  0  0  0  0  0
    2.6943    5.5129   -0.8374 H   0  0  0  0  0  0  0  0  0  0  0  0
    2.4530    4.6310    1.4509 H   0  0  0  0  0  0  0  0  0  0  0  0
    4.1877    3.1725    2.4183 H   0  0  0  0  0  0  0  0  0  0  0  0
    2.2602    2.1000    1.3164 H   0  0  0  0  0  0  0  0  0  0  0  0
    4.8625    0.6808    0.5928 H   0  0  0  0  0  0  0  0  0  0  0  0
    4.1404    0.6988    2.2196 H   0  0  0  0  0  0  0  0  0  0  0  0
    1.7714   -2.5696    0.2304 H   0  0  0  0  0  0  0  0  0  0  0  0
    4.1950   -4.0996    1.3231 H   0  0  0  0  0  0  0  0  0  0  0  0
    3.8542   -6.5631    1.1987 H   0  0  0  0  0  0  0  0  0  0  0  0
    2.4729   -8.5064    0.6073 H   0  0  0  0  0  0  0  0  0  0  0  0
   -0.6181   -5.9021   -0.7949 H   0  0  0  0  0  0  0  0  0  0  0  0
    0.7475   -3.9479   -0.2025 H   0  0  0  0  0  0  0  0  0  0  0  0
   -0.4946   -8.7035    0.2570 H   0  0  0  0  0  0  0  0  0  0  0  0
    5.9845    3.8785    1.0075 H   0  0  0  0  0  0  0  0  0  0  0  0
    3.8891    6.5189    1.1417 H   0  0  0  0  0  0  0  0  0  0  0  0
    4.4439    4.5872   -2.1787 H   0  0  0  0  0  0  0  0  0  0  0  0
   -5.5089   -1.1612    1.6525 H   0  0  0  0  0  0  0  0  0  0  0  0
   -7.7986   -0.6971    2.4276 H   0  0  0  0  0  0  0  0  0  0  0  0
   -7.8215    2.9286    0.1652 H   0  0  0  0  0  0  0  0  0  0  0  0
   -5.5296    2.4601   -0.6008 H   0  0  0  0  0  0  0  0  0  0  0  0
   -9.2617    1.9147    2.5916 H   0  0  0  0  0  0  0  0  0  0  0  0
  1  2  1  0  0  0  0
  2  3  1  0  0  0  0
  3  4  1  0  0  0  0
  4  5  2  0  0  0  0
  5  6  1  0  0  0  0
  6  7  2  0  0  0  0
  7  8  1  0  0  0  0
  8  9  2  0  0  0  0
  4  9  1  0  0  0  0
  9 10  1  0  0  0  0
  1 10  1  0  0  0  0
 10 11  2  0  0  0  0
  8 12  1  0  0  0  0
  6 13  1  0  0  0  0
 13 14  1  0  0  0  0
 14 15  1  0  0  0  0
 15 16  1  0  0  0  0
 16 17  1  0  0  0  0
 17 18  1  0  0  0  0
 18 19  1  0  0  0  0
 14 19  1  0  0  0  0
 18 20  1  0  0  0  0
 20 21  1  0  0  0  0
 21 22  1  0  0  0  0
 22 23  2  0  0  0  0
 22 24  1  0  0  0  0
 24 25  2  0  0  0  0
 25 26  1  0  0  0  0
 26 27  2  0  0  0  0
 27 28  1  0  0  0  0
 28 29  2  0  0  0  0
 29 30  1  0  0  0  0
 30 31  2  0  0  0  0
 26 31  1  0  0  0  0
 29 32  1  0  0  0  0
 17 33  1  0  0  0  0
 16 34  1  0  0  0  0
 15 35  1  0  0  0  0
  2 36  1  0  0  0  0
 36 37  2  0  0  0  0
 37 38  1  0  0  0  0
 38 39  2  0  0  0  0
 39 40  1  0  0  0  0
 40 41  2  0  0  0  0
 36 41  1  0  0  0  0
 39 42  1  0  0  0  0
  1 43  1  0  0  0  0
  1 44  1  0  0  0  0
  2 45  1  0  0  0  0
  5 46  1  0  0  0  0
  7 47  1  0  0  0  0
 12 48  1  0  0  0  0
 14 49  1  0  0  0  0
 15 50  1  0  0  0  0
 16 51  1  0  0  0  0
 17 52  1  0  0  0  0
 18 53  1  0  0  0  0
 20 54  1  0  0  0  0
 20 55  1  0  0  0  0
 24 56  1  0  0  0  0
 25 57  1  0  0  0  0
 27 58  1  0  0  0  0
 28 59  1  0  0  0  0
 30 60  1  0  0  0  0
 31 61  1  0  0  0  0
 32 62  1  0  0  0  0
 33 63  1  0  0  0  0
 34 64  1  0  0  0  0
 35 65  1  0  0  0  0
 37 66  1  0  0  0  0
 38 67  1  0  0  0  0
 40 68  1  0  0  0  0
 41 69  1  0  0  0  0
 42 70  1  0  0  0  0
M  END
$$$$
