C20H18O6
APtclcactv06231803063D 0   0.00000     0.00000
 
 44 48  0  0  0  0  0  0  0  0999 V2000
    6.4343    0.2069   -1.2383 C   0  0  0  0  0  0  0  0  0  0  0  0
    5.7814   -0.7756   -0.2640 C   0  0  0  0  0  0  0  0  0  0  0  0
    6.5230   -0.7360    1.0737 C   0  0  0  0  0  0  0  0  0  0  0  0
    4.3404   -0.3892   -0.0511 C   0  0  0  0  0  0  0  0  0  0  0  0
    3.3476   -1.2497    0.2317 C   0  0  0  0  0  0  0  0  0  0  0  0
    2.1408   -0.4454    0.3521 C   0  0  0  0  0  0  0  0  0  0  0  0
    0.8089   -0.7656    0.6249 C   0  0  0  0  0  0  0  0  0  0  0  0
   -0.0769    0.2696    0.6579 C   0  0  0  0  0  0  0  0  0  0  0  0
    0.3033    1.6079    0.4525 C   0  0  0  0  0  0  0  0  0  0  0  0
    1.6266    1.9322    0.1711 C   0  0  0  0  0  0  0  0  0  0  0  0
    2.5470    0.8915    0.1222 C   0  0  0  0  0  0  0  0  0  0  0  0
    3.8624    0.8711   -0.1114 O   0  0  0  0  0  0  0  0  0  0  0  0
   -0.6120    2.6066    0.5534 O   0  0  0  0  0  0  0  0  0  0  0  0
   -1.9942    2.4065    0.2342 C   0  0  0  0  0  0  0  0  0  0  0  0
   -2.1951    0.9805   -0.2139 C   0  0  0  0  0  0  0  0  0  0  0  0
   -1.5421    0.0730    0.8866 C   0  0  0  0  0  0  0  0  0  0  0  0
   -2.1231   -1.1828    0.5584 O   0  0  0  0  0  0  0  0  0  0  0  0
   -3.4171   -0.9225    0.2154 C   0  0  0  0  0  0  0  0  0  0  0  0
   -3.5590    0.4011   -0.2555 C   0  0  0  0  0  0  0  0  0  0  0  0
   -4.7802    0.9048   -0.6459 C   0  0  0  0  0  0  0  0  0  0  0  0
   -5.8758    0.0545   -0.5706 C   0  0  0  0  0  0  0  0  0  0  0  0
   -5.7472   -1.2487   -0.1198 C   0  0  0  0  0  0  0  0  0  0  0  0
   -4.5195   -1.7657    0.2820 C   0  0  0  0  0  0  0  0  0  0  0  0
   -6.8486   -2.0431   -0.0687 O   0  0  0  0  0  0  0  0  0  0  0  0
   -1.5396    0.7701   -1.4662 O   0  0  0  0  0  0  0  0  0  0  0  0
    5.8454   -2.0966   -0.8051 O   0  0  0  0  0  0  0  0  0  0  0  0
    7.4766   -0.0726   -1.3922 H   0  0  0  0  0  0  0  0  0  0  0  0
    5.9060    0.1787   -2.1913 H   0  0  0  0  0  0  0  0  0  0  0  0
    6.3855    1.2145   -0.8255 H   0  0  0  0  0  0  0  0  0  0  0  0
    6.4742    0.2716    1.4865 H   0  0  0  0  0  0  0  0  0  0  0  0
    6.0578   -1.4360    1.7679 H   0  0  0  0  0  0  0  0  0  0  0  0
    7.5652   -1.0155    0.9198 H   0  0  0  0  0  0  0  0  0  0  0  0
    3.4288   -2.3206    0.3460 H   0  0  0  0  0  0  0  0  0  0  0  0
    0.4960   -1.7842    0.8009 H   0  0  0  0  0  0  0  0  0  0  0  0
    1.9277    2.9547   -0.0033 H   0  0  0  0  0  0  0  0  0  0  0  0
   -2.6039    2.6006    1.1167 H   0  0  0  0  0  0  0  0  0  0  0  0
   -2.2850    3.0850   -0.5677 H   0  0  0  0  0  0  0  0  0  0  0  0
   -1.8274    0.3964    1.8876 H   0  0  0  0  0  0  0  0  0  0  0  0
   -4.8818    1.9210   -0.9972 H   0  0  0  0  0  0  0  0  0  0  0  0
   -6.8482    0.4171   -0.8695 H   0  0  0  0  0  0  0  0  0  0  0  0
   -4.4271   -2.7830    0.6326 H   0  0  0  0  0  0  0  0  0  0  0  0
   -7.0107   -2.5434   -0.8801 H   0  0  0  0  0  0  0  0  0  0  0  0
   -1.8545    1.3458   -2.1765 H   0  0  0  0  0  0  0  0  0  0  0  0
    6.7450   -2.4117   -0.9681 H   0  0  0  0  0  0  0  0  0  0  0  0
  1  2  1  0  0  0  0
  2  3  1  0  0  0  0
  2  4  1  0  0  0  0
  4  5  2  0  0  0  0
  5  6  1  0  0  0  0
  6  7  2  0  0  0  0
  7  8  1  0  0  0  0
  8  9  2  0  0  0  0
  9 10  1  0  0  0  0
 10 11  2  0  0  0  0
  6 11  1  0  0  0  0
 11 12  1  0  0  0  0
  4 12  1  0  0  0  0
  9 13  1  0  0  0  0
 13 14  1  0  0  0  0
 14 15  1  0  0  0  0
 15 16  1  0  0  0  0
  8 16  1  0  0  0  0
 16 17  1  0  0  0  0
 17 18  1  0  0  0  0
 18 19  2  0  0  0  0
 15 19  1  0  0  0  0
 19 20  1  0  0  0  0
 20 21  2  0  0  0  0
 21 22  1  0  0  0  0
 22 23  2  0  0  0  0
 18 23  1  0  0  0  0
 22 24  1  0  0  0  0
 15 25  1  0  0  0  0
  2 26  1  0  0  0  0
  1 27  1  0  0  0  0
  1 28  1  0  0  0  0
  1 29  1  0  0  0  0
  3 30  1  0  0  0  0
  3 31  1  0  0  0  0
  3 32  1  0  0  0  0
  5 33  1  0  0  0  0
  7 34  1  0  0  0  0
 10 35  1  0  0  0  0
 14 36  1  0  0  0  0
 14 37  1  0  0  0  0
 16 38  1  0  0  0  0
 20 39  1  0  0  0  0
 21 40  1  0  0  0  0
 23 41  1  0  0  0  0
 24 42  1  0  0  0  0
 25 43  1  0  0  0  0
 26 44  1  0  0  0  0
M  END
$$$$
