C14H8O4
APtclcactv06211800343D 0   0.00000     0.00000
 
 26 28  0  0  0  0  0  0  0  0999 V2000
   -4.2525    0.1978    0.3089 C   0  0  0  0  0  0  0  0  0  0  0  0
   -4.0024   -1.1619    0.2939 C   0  0  0  0  0  0  0  0  0  0  0  0
   -2.7132   -1.6367    0.1228 C   0  0  0  0  0  0  0  0  0  0  0  0
   -1.6620   -0.7404   -0.0351 C   0  0  0  0  0  0  0  0  0  0  0  0
   -1.9167    0.6437   -0.0212 C   0  0  0  0  0  0  0  0  0  0  0  0
   -3.2174    1.1037    0.1521 C   0  0  0  0  0  0  0  0  0  0  0  0
   -0.7973    1.5961   -0.1899 C   0  0  0  0  0  0  0  0  0  0  0  0
   -1.0173    2.7673   -0.4299 O   0  0  0  0  0  0  0  0  0  0  0  0
    0.5898    1.1075   -0.0630 C   0  0  0  0  0  0  0  0  0  0  0  0
    0.8446   -0.2799   -0.0757 C   0  0  0  0  0  0  0  0  0  0  0  0
   -0.2770   -1.2282   -0.2164 C   0  0  0  0  0  0  0  0  0  0  0  0
   -0.0656   -2.3963   -0.4778 O   0  0  0  0  0  0  0  0  0  0  0  0
    2.1541   -0.7431    0.0454 C   0  0  0  0  0  0  0  0  0  0  0  0
    3.2026    0.1753    0.1779 C   0  0  0  0  0  0  0  0  0  0  0  0
    2.9421    1.5356    0.1889 C   0  0  0  0  0  0  0  0  0  0  0  0
    1.6456    2.0042    0.0692 C   0  0  0  0  0  0  0  0  0  0  0  0
    4.4798   -0.2693    0.2965 O   0  0  0  0  0  0  0  0  0  0  0  0
    2.4106   -2.0748    0.0354 O   0  0  0  0  0  0  0  0  0  0  0  0
   -5.2631    0.5557    0.4395 H   0  0  0  0  0  0  0  0  0  0  0  0
   -4.8185   -1.8586    0.4168 H   0  0  0  0  0  0  0  0  0  0  0  0
   -2.5245   -2.7000    0.1124 H   0  0  0  0  0  0  0  0  0  0  0  0
   -3.4197    2.1646    0.1635 H   0  0  0  0  0  0  0  0  0  0  0  0
    3.7575    2.2362    0.2919 H   0  0  0  0  0  0  0  0  0  0  0  0
    1.4529    3.0668    0.0784 H   0  0  0  0  0  0  0  0  0  0  0  0
    4.9397   -0.3741   -0.5476 H   0  0  0  0  0  0  0  0  0  0  0  0
    2.5746   -2.4371   -0.8460 H   0  0  0  0  0  0  0  0  0  0  0  0
  1  2  2  0  0  0  0
  2  3  1  0  0  0  0
  3  4  2  0  0  0  0
  4  5  1  0  0  0  0
  5  6  2  0  0  0  0
  1  6  1  0  0  0  0
  5  7  1  0  0  0  0
  7  8  2  0  0  0  0
  7  9  1  0  0  0  0
  9 10  2  0  0  0  0
 10 11  1  0  0  0  0
  4 11  1  0  0  0  0
 11 12  2  0  0  0  0
 10 13  1  0  0  0  0
 13 14  2  0  0  0  0
 14 15  1  0  0  0  0
 15 16  2  0  0  0  0
  9 16  1  0  0  0  0
 14 17  1  0  0  0  0
 13 18  1  0  0  0  0
  1 19  1  0  0  0  0
  2 20  1  0  0  0  0
  3 21  1  0  0  0  0
  6 22  1  0  0  0  0
 15 23  1  0  0  0  0
 16 24  1  0  0  0  0
 17 25  1  0  0  0  0
 18 26  1  0  0  0  0
M  END
$$$$
