C19H18O6
APtclcactv06231803063D 0   0.00000     0.00000
 
 43 45  0  0  0  0  0  0  0  0999 V2000
    7.4272   -0.2371    0.6066 C   0  0  0  0  0  0  0  0  0  0  0  0
    6.5682    0.6716   -0.0851 O   0  0  0  0  0  0  0  0  0  0  0  0
    5.2403    0.3889   -0.0806 C   0  0  0  0  0  0  0  0  0  0  0  0
    4.3502    1.2322   -0.7348 C   0  0  0  0  0  0  0  0  0  0  0  0
    3.0023    0.9493   -0.7327 C   0  0  0  0  0  0  0  0  0  0  0  0
    2.5301   -0.1879   -0.0714 C   0  0  0  0  0  0  0  0  0  0  0  0
    3.4288   -1.0333    0.5853 C   0  0  0  0  0  0  0  0  0  0  0  0
    4.7757   -0.7459    0.5734 C   0  0  0  0  0  0  0  0  0  0  0  0
    1.0873   -0.4947   -0.0660 C   0  0  0  0  0  0  0  0  0  0  0  0
    0.6932   -1.7895   -0.2033 C   0  0  0  0  0  0  0  0  0  0  0  0
   -0.6865   -2.1032   -0.2006 C   0  0  0  0  0  0  0  0  0  0  0  0
   -1.0753   -3.2537   -0.3211 O   0  0  0  0  0  0  0  0  0  0  0  0
   -1.6352   -0.9871   -0.0461 C   0  0  0  0  0  0  0  0  0  0  0  0
   -1.1226    0.3145    0.0886 C   0  0  0  0  0  0  0  0  0  0  0  0
    0.2133    0.5137    0.0795 O   0  0  0  0  0  0  0  0  0  0  0  0
   -2.0001    1.3816    0.2354 C   0  0  0  0  0  0  0  0  0  0  0  0
   -3.3705    1.1559    0.2479 C   0  0  0  0  0  0  0  0  0  0  0  0
   -3.8769   -0.1320    0.1146 C   0  0  0  0  0  0  0  0  0  0  0  0
   -3.0182   -1.2053   -0.0328 C   0  0  0  0  0  0  0  0  0  0  0  0
   -3.5128   -2.4632   -0.1635 O   0  0  0  0  0  0  0  0  0  0  0  0
   -4.9344   -2.6070   -0.1401 C   0  0  0  0  0  0  0  0  0  0  0  0
   -4.2238    2.2032    0.3922 O   0  0  0  0  0  0  0  0  0  0  0  0
   -5.6214    1.9053    0.3972 C   0  0  0  0  0  0  0  0  0  0  0  0
   -1.5169    2.6478    0.3674 O   0  0  0  0  0  0  0  0  0  0  0  0
   -1.3217    3.3962   -0.8342 C   0  0  0  0  0  0  0  0  0  0  0  0
    7.1404   -0.2798    1.6573 H   0  0  0  0  0  0  0  0  0  0  0  0
    7.3375   -1.2296    0.1648 H   0  0  0  0  0  0  0  0  0  0  0  0
    8.4589    0.1049    0.5251 H   0  0  0  0  0  0  0  0  0  0  0  0
    4.7160    2.1109   -1.2452 H   0  0  0  0  0  0  0  0  0  0  0  0
    2.3113    1.6054   -1.2410 H   0  0  0  0  0  0  0  0  0  0  0  0
    3.0681   -1.9130    1.0975 H   0  0  0  0  0  0  0  0  0  0  0  0
    5.4709   -1.3985    1.0805 H   0  0  0  0  0  0  0  0  0  0  0  0
    1.4285   -2.5727   -0.3141 H   0  0  0  0  0  0  0  0  0  0  0  0
   -4.9446   -0.2944    0.1262 H   0  0  0  0  0  0  0  0  0  0  0  0
   -5.3214   -2.2373    0.8094 H   0  0  0  0  0  0  0  0  0  0  0  0
   -5.3710   -2.0342   -0.9582 H   0  0  0  0  0  0  0  0  0  0  0  0
   -5.1950   -3.6593   -0.2537 H   0  0  0  0  0  0  0  0  0  0  0  0
   -5.8954    1.4321   -0.5457 H   0  0  0  0  0  0  0  0  0  0  0  0
   -5.8458    1.2289    1.2219 H   0  0  0  0  0  0  0  0  0  0  0  0
   -6.1890    2.8278    0.5191 H   0  0  0  0  0  0  0  0  0  0  0  0
   -0.6092    2.8761   -1.4745 H   0  0  0  0  0  0  0  0  0  0  0  0
   -2.2726    3.4986   -1.3570 H   0  0  0  0  0  0  0  0  0  0  0  0
   -0.9343    4.3847   -0.5877 H   0  0  0  0  0  0  0  0  0  0  0  0
  1  2  1  0  0  0  0
  2  3  1  0  0  0  0
  3  4  2  0  0  0  0
  4  5  1  0  0  0  0
  5  6  2  0  0  0  0
  6  7  1  0  0  0  0
  7  8  2  0  0  0  0
  3  8  1  0  0  0  0
  6  9  1  0  0  0  0
  9 10  2  0  0  0  0
 10 11  1  0  0  0  0
 11 12  2  0  0  0  0
 11 13  1  0  0  0  0
 13 14  2  0  0  0  0
 14 15  1  0  0  0  0
  9 15  1  0  0  0  0
 14 16  1  0  0  0  0
 16 17  2  0  0  0  0
 17 18  1  0  0  0  0
 18 19  2  0  0  0  0
 13 19  1  0  0  0  0
 19 20  1  0  0  0  0
 20 21  1  0  0  0  0
 17 22  1  0  0  0  0
 22 23  1  0  0  0  0
 16 24  1  0  0  0  0
 24 25  1  0  0  0  0
  1 26  1  0  0  0  0
  1 27  1  0  0  0  0
  1 28  1  0  0  0  0
  4 29  1  0  0  0  0
  5 30  1  0  0  0  0
  7 31  1  0  0  0  0
  8 32  1  0  0  0  0
 10 33  1  0  0  0  0
 18 34  1  0  0  0  0
 21 35  1  0  0  0  0
 21 36  1  0  0  0  0
 21 37  1  0  0  0  0
 23 38  1  0  0  0  0
 23 39  1  0  0  0  0
 23 40  1  0  0  0  0
 25 41  1  0  0  0  0
 25 42  1  0  0  0  0
 25 43  1  0  0  0  0
M  END
$$$$
