C17H14O7
APtclcactv06231803063D 0   0.00000     0.00000
 
 38 40  0  0  0  0  0  0  0  0999 V2000
   -5.3611    0.5427   -1.2319 C   0  0  0  0  0  0  0  0  0  0  0  0
   -4.7146    0.3959    0.0340 O   0  0  0  0  0  0  0  0  0  0  0  0
   -3.3724    0.1681    0.0198 C   0  0  0  0  0  0  0  0  0  0  0  0
   -2.4895    1.2356    0.0470 C   0  0  0  0  0  0  0  0  0  0  0  0
   -1.1113    0.9922    0.0326 C   0  0  0  0  0  0  0  0  0  0  0  0
   -0.6250   -0.3260   -0.0092 C   0  0  0  0  0  0  0  0  0  0  0  0
   -1.5234   -1.3857   -0.0356 C   0  0  0  0  0  0  0  0  0  0  0  0
   -2.8894   -1.1383   -0.0163 C   0  0  0  0  0  0  0  0  0  0  0  0
   -3.7632   -2.1794   -0.0418 O   0  0  0  0  0  0  0  0  0  0  0  0
   -4.1694   -2.7165    1.2185 C   0  0  0  0  0  0  0  0  0  0  0  0
   -1.0641   -2.6668   -0.0766 O   0  0  0  0  0  0  0  0  0  0  0  0
    0.7077   -0.5492   -0.0236 O   0  0  0  0  0  0  0  0  0  0  0  0
    1.6020    0.4512    0.0006 C   0  0  0  0  0  0  0  0  0  0  0  0
    1.2338    1.7604    0.0419 C   0  0  0  0  0  0  0  0  0  0  0  0
   -0.1395    2.0989    0.0600 C   0  0  0  0  0  0  0  0  0  0  0  0
   -0.5051    3.2627    0.0965 O   0  0  0  0  0  0  0  0  0  0  0  0
    3.0391    0.1187   -0.0177 C   0  0  0  0  0  0  0  0  0  0  0  0
    3.5082   -0.9184   -0.8287 C   0  0  0  0  0  0  0  0  0  0  0  0
    4.8507   -1.2256   -0.8427 C   0  0  0  0  0  0  0  0  0  0  0  0
    5.7385   -0.5059   -0.0520 C   0  0  0  0  0  0  0  0  0  0  0  0
    5.2764    0.5261    0.7559 C   0  0  0  0  0  0  0  0  0  0  0  0
    3.9363    0.8437    0.7717 C   0  0  0  0  0  0  0  0  0  0  0  0
    7.0610   -0.8123   -0.0685 O   0  0  0  0  0  0  0  0  0  0  0  0
   -2.9587    2.5106    0.0869 O   0  0  0  0  0  0  0  0  0  0  0  0
   -4.9263    1.3874   -1.7662 H   0  0  0  0  0  0  0  0  0  0  0  0
   -5.2246   -0.3666   -1.8172 H   0  0  0  0  0  0  0  0  0  0  0  0
   -6.4256    0.7193   -1.0779 H   0  0  0  0  0  0  0  0  0  0  0  0
   -4.6582   -1.9382    1.8046 H   0  0  0  0  0  0  0  0  0  0  0  0
   -4.8652   -3.5395    1.0555 H   0  0  0  0  0  0  0  0  0  0  0  0
   -3.2947   -3.0814    1.7569 H   0  0  0  0  0  0  0  0  0  0  0  0
   -0.9263   -3.0633    0.7946 H   0  0  0  0  0  0  0  0  0  0  0  0
    1.9851    2.5360    0.0607 H   0  0  0  0  0  0  0  0  0  0  0  0
    2.8189   -1.4784   -1.4433 H   0  0  0  0  0  0  0  0  0  0  0  0
    5.2140   -2.0271   -1.4689 H   0  0  0  0  0  0  0  0  0  0  0  0
    5.9696    1.0826    1.3691 H   0  0  0  0  0  0  0  0  0  0  0  0
    3.5780    1.6461    1.3995 H   0  0  0  0  0  0  0  0  0  0  0  0
    7.5686   -0.3283   -0.7342 H   0  0  0  0  0  0  0  0  0  0  0  0
   -3.0902    2.8534    0.9815 H   0  0  0  0  0  0  0  0  0  0  0  0
  1  2  1  0  0  0  0
  2  3  1  0  0  0  0
  3  4  2  0  0  0  0
  4  5  1  0  0  0  0
  5  6  2  0  0  0  0
  6  7  1  0  0  0  0
  7  8  2  0  0  0  0
  3  8  1  0  0  0  0
  8  9  1  0  0  0  0
  9 10  1  0  0  0  0
  7 11  1  0  0  0  0
  6 12  1  0  0  0  0
 12 13  1  0  0  0  0
 13 14  2  0  0  0  0
 14 15  1  0  0  0  0
  5 15  1  0  0  0  0
 15 16  2  0  0  0  0
 13 17  1  0  0  0  0
 17 18  2  0  0  0  0
 18 19  1  0  0  0  0
 19 20  2  0  0  0  0
 20 21  1  0  0  0  0
 21 22  2  0  0  0  0
 17 22  1  0  0  0  0
 20 23  1  0  0  0  0
  4 24  1  0  0  0  0
  1 25  1  0  0  0  0
  1 26  1  0  0  0  0
  1 27  1  0  0  0  0
 10 28  1  0  0  0  0
 10 29  1  0  0  0  0
 10 30  1  0  0  0  0
 11 31  1  0  0  0  0
 14 32  1  0  0  0  0
 18 33  1  0  0  0  0
 19 34  1  0  0  0  0
 21 35  1  0  0  0  0
 22 36  1  0  0  0  0
 23 37  1  0  0  0  0
 24 38  1  0  0  0  0
M  END
$$$$
