C11H12N2O2
APtclcactv06211804333D 0   0.00000     0.00000
 
 27 28  0  0  0  0  0  0  0  0999 V2000
   -2.7401   -1.9609    0.2862 C   0  0  0  0  0  0  0  0  0  0  0  0
   -3.8224   -1.1883   -0.1114 C   0  0  0  0  0  0  0  0  0  0  0  0
   -3.6800    0.1663   -0.3200 C   0  0  0  0  0  0  0  0  0  0  0  0
   -2.4403    0.7677   -0.1309 C   0  0  0  0  0  0  0  0  0  0  0  0
   -1.3462   -0.0199    0.2721 C   0  0  0  0  0  0  0  0  0  0  0  0
   -1.5131   -1.3905    0.4778 C   0  0  0  0  0  0  0  0  0  0  0  0
   -0.2073    0.8949    0.3809 C   0  0  0  0  0  0  0  0  0  0  0  0
   -0.6539    2.1181    0.0548 C   0  0  0  0  0  0  0  0  0  0  0  0
   -1.9857    2.0616   -0.2539 N   0  0  0  0  0  0  0  0  0  0  0  0
    1.1989    0.5318    0.7833 C   0  0  0  0  0  0  0  0  0  0  0  0
    1.9701    0.0415   -0.4438 C   0  0  0  0  0  0  0  0  0  0  0  0
    3.4084   -0.2048   -0.0677 C   0  0  0  0  0  0  0  0  0  0  0  0
    3.7902   -1.3290    0.1568 O   0  0  0  0  0  0  0  0  0  0  0  0
    4.2655    0.8247    0.0180 O   0  0  0  0  0  0  0  0  0  0  0  0
    1.3707   -1.2077   -0.9318 N   0  0  0  0  0  0  0  0  0  0  0  0
   -2.8697   -3.0205    0.4497 H   0  0  0  0  0  0  0  0  0  0  0  0
   -4.7858   -1.6535   -0.2590 H   0  0  0  0  0  0  0  0  0  0  0  0
   -4.5281    0.7589   -0.6296 H   0  0  0  0  0  0  0  0  0  0  0  0
   -0.6755   -1.9979    0.7875 H   0  0  0  0  0  0  0  0  0  0  0  0
   -0.0512    3.0141    0.0385 H   0  0  0  0  0  0  0  0  0  0  0  0
   -2.5287    2.8200   -0.5201 H   0  0  0  0  0  0  0  0  0  0  0  0
    1.6959    1.4087    1.1984 H   0  0  0  0  0  0  0  0  0  0  0  0
    1.1695   -0.2583    1.5336 H   0  0  0  0  0  0  0  0  0  0  0  0
    1.9238    0.7973   -1.2278 H   0  0  0  0  0  0  0  0  0  0  0  0
    5.1778    0.6173    0.2625 H   0  0  0  0  0  0  0  0  0  0  0  0
    1.8215   -1.5180   -1.7795 H   0  0  0  0  0  0  0  0  0  0  0  0
    1.4015   -1.9247   -0.2226 H   0  0  0  0  0  0  0  0  0  0  0  0
  1  2  2  0  0  0  0
  2  3  1  0  0  0  0
  3  4  2  0  0  0  0
  4  5  1  0  0  0  0
  5  6  2  0  0  0  0
  1  6  1  0  0  0  0
  5  7  1  0  0  0  0
  7  8  2  0  0  0  0
  8  9  1  0  0  0  0
  4  9  1  0  0  0  0
  7 10  1  0  0  0  0
 10 11  1  0  0  0  0
 11 12  1  0  0  0  0
 12 13  2  0  0  0  0
 12 14  1  0  0  0  0
 11 15  1  0  0  0  0
  1 16  1  0  0  0  0
  2 17  1  0  0  0  0
  3 18  1  0  0  0  0
  6 19  1  0  0  0  0
  8 20  1  0  0  0  0
  9 21  1  0  0  0  0
 10 22  1  0  0  0  0
 10 23  1  0  0  0  0
 11 24  1  0  0  0  0
 14 25  1  0  0  0  0
 15 26  1  0  0  0  0
 15 27  1  0  0  0  0
M  END
$$$$
