C19H18O8
APtclcactv06231803063D 0   0.00000     0.00000
 
 45 47  0  0  0  0  0  0  0  0999 V2000
    6.9935    0.8976   -1.0640 C   0  0  0  0  0  0  0  0  0  0  0  0
    6.2136   -0.0923   -0.3902 O   0  0  0  0  0  0  0  0  0  0  0  0
    4.8780    0.1361   -0.2927 C   0  0  0  0  0  0  0  0  0  0  0  0
    4.0597   -0.7897    0.3523 C   0  0  0  0  0  0  0  0  0  0  0  0
    2.7011   -0.5594    0.4521 C   0  0  0  0  0  0  0  0  0  0  0  0
    2.1507    0.6032   -0.0945 C   0  0  0  0  0  0  0  0  0  0  0  0
    2.9772    1.5273   -0.7394 C   0  0  0  0  0  0  0  0  0  0  0  0
    4.3324    1.2935   -0.8306 C   0  0  0  0  0  0  0  0  0  0  0  0
    0.7007    0.8540    0.0087 C   0  0  0  0  0  0  0  0  0  0  0  0
    0.2722    2.1198    0.2642 C   0  0  0  0  0  0  0  0  0  0  0  0
   -1.1145    2.3800    0.3661 C   0  0  0  0  0  0  0  0  0  0  0  0
   -1.5336    3.5034    0.5939 O   0  0  0  0  0  0  0  0  0  0  0  0
   -2.0330    1.2425    0.1863 C   0  0  0  0  0  0  0  0  0  0  0  0
   -1.4862   -0.0259   -0.0742 C   0  0  0  0  0  0  0  0  0  0  0  0
   -0.1457   -0.1741   -0.1585 O   0  0  0  0  0  0  0  0  0  0  0  0
   -2.3338   -1.1133   -0.2472 C   0  0  0  0  0  0  0  0  0  0  0  0
   -3.7088   -0.9421   -0.1624 C   0  0  0  0  0  0  0  0  0  0  0  0
   -4.2518    0.3148    0.0957 C   0  0  0  0  0  0  0  0  0  0  0  0
   -3.4201    1.4090    0.2711 C   0  0  0  0  0  0  0  0  0  0  0  0
   -3.9477    2.6359    0.5234 O   0  0  0  0  0  0  0  0  0  0  0  0
   -5.6022    0.4680    0.1762 O   0  0  0  0  0  0  0  0  0  0  0  0
   -4.5327   -2.0099   -0.3331 O   0  0  0  0  0  0  0  0  0  0  0  0
   -4.9679   -2.2870   -1.6657 C   0  0  0  0  0  0  0  0  0  0  0  0
   -1.8157   -2.3468   -0.5005 O   0  0  0  0  0  0  0  0  0  0  0  0
   -1.5250   -3.1727    0.6289 C   0  0  0  0  0  0  0  0  0  0  0  0
    4.5985   -1.9200    0.8831 O   0  0  0  0  0  0  0  0  0  0  0  0
    3.7011   -2.8248    1.5297 C   0  0  0  0  0  0  0  0  0  0  0  0
    6.6389    1.0037   -2.0892 H   0  0  0  0  0  0  0  0  0  0  0  0
    6.8966    1.8515   -0.5455 H   0  0  0  0  0  0  0  0  0  0  0  0
    8.0400    0.5927   -1.0712 H   0  0  0  0  0  0  0  0  0  0  0  0
    2.0658   -1.2763    0.9510 H   0  0  0  0  0  0  0  0  0  0  0  0
    2.5546    2.4264   -1.1630 H   0  0  0  0  0  0  0  0  0  0  0  0
    4.9701    2.0086   -1.3289 H   0  0  0  0  0  0  0  0  0  0  0  0
    0.9861    2.9207    0.3886 H   0  0  0  0  0  0  0  0  0  0  0  0
   -4.0674    2.8268    1.4638 H   0  0  0  0  0  0  0  0  0  0  0  0
   -5.9592    0.3484    1.0669 H   0  0  0  0  0  0  0  0  0  0  0  0
   -5.5058   -1.4244   -2.0590 H   0  0  0  0  0  0  0  0  0  0  0  0
   -4.1023   -2.4933   -2.2951 H   0  0  0  0  0  0  0  0  0  0  0  0
   -5.6277   -3.1546   -1.6594 H   0  0  0  0  0  0  0  0  0  0  0  0
   -0.7840   -2.6798    1.2583 H   0  0  0  0  0  0  0  0  0  0  0  0
   -2.4369   -3.3379    1.2026 H   0  0  0  0  0  0  0  0  0  0  0  0
   -1.1322   -4.1303    0.2872 H   0  0  0  0  0  0  0  0  0  0  0  0
    4.2588   -3.6819    1.9073 H   0  0  0  0  0  0  0  0  0  0  0  0
    3.2089   -2.3174    2.3594 H   0  0  0  0  0  0  0  0  0  0  0  0
    2.9512   -3.1652    0.8156 H   0  0  0  0  0  0  0  0  0  0  0  0
  1  2  1  0  0  0  0
  2  3  1  0  0  0  0
  3  4  2  0  0  0  0
  4  5  1  0  0  0  0
  5  6  2  0  0  0  0
  6  7  1  0  0  0  0
  7  8  2  0  0  0  0
  3  8  1  0  0  0  0
  6  9  1  0  0  0  0
  9 10  2  0  0  0  0
 10 11  1  0  0  0  0
 11 12  2  0  0  0  0
 11 13  1  0  0  0  0
 13 14  2  0  0  0  0
 14 15  1  0  0  0  0
  9 15  1  0  0  0  0
 14 16  1  0  0  0  0
 16 17  2  0  0  0  0
 17 18  1  0  0  0  0
 18 19  2  0  0  0  0
 13 19  1  0  0  0  0
 19 20  1  0  0  0  0
 18 21  1  0  0  0  0
 17 22  1  0  0  0  0
 22 23  1  0  0  0  0
 16 24  1  0  0  0  0
 24 25  1  0  0  0  0
  4 26  1  0  0  0  0
 26 27  1  0  0  0  0
  1 28  1  0  0  0  0
  1 29  1  0  0  0  0
  1 30  1  0  0  0  0
  5 31  1  0  0  0  0
  7 32  1  0  0  0  0
  8 33  1  0  0  0  0
 10 34  1  0  0  0  0
 20 35  1  0  0  0  0
 21 36  1  0  0  0  0
 23 37  1  0  0  0  0
 23 38  1  0  0  0  0
 23 39  1  0  0  0  0
 25 40  1  0  0  0  0
 25 41  1  0  0  0  0
 25 42  1  0  0  0  0
 27 43  1  0  0  0  0
 27 44  1  0  0  0  0
 27 45  1  0  0  0  0
M  END
$$$$
