C23H22O12
APtclcactv06281817193D 0   0.00000     0.00000
 
 57 60  0  0  0  0  0  0  0  0999 V2000
    2.8285   -0.8730   -2.4964 C   0  0  0  0  0  0  0  0  0  0  0  0
    2.3735    0.0304   -1.3484 C   0  0  0  0  0  0  0  0  0  0  0  0
    3.5077    0.9869   -0.9712 C   0  0  0  0  0  0  0  0  0  0  0  0
    3.0245    1.9275    0.1370 C   0  0  0  0  0  0  0  0  0  0  0  0
    1.7750    2.6696   -0.3471 C   0  0  0  0  0  0  0  0  0  0  0  0
    0.7077    1.6481   -0.7484 C   0  0  0  0  0  0  0  0  0  0  0  0
    1.2323    0.7856   -1.7599 O   0  0  0  0  0  0  0  0  0  0  0  0
    0.3367    0.8730    0.3933 O   0  0  0  0  0  0  0  0  0  0  0  0
   -0.8099    0.1458    0.3003 C   0  0  0  0  0  0  0  0  0  0  0  0
   -0.7698   -1.2136    0.3839 C   0  0  0  0  0  0  0  0  0  0  0  0
   -1.8746   -1.9742    0.2982 O   0  0  0  0  0  0  0  0  0  0  0  0
   -3.1035   -1.4446    0.1232 C   0  0  0  0  0  0  0  0  0  0  0  0
   -4.2216   -2.2599    0.0399 C   0  0  0  0  0  0  0  0  0  0  0  0
   -5.4770   -1.7002   -0.1396 C   0  0  0  0  0  0  0  0  0  0  0  0
   -5.6313   -0.3217   -0.2382 C   0  0  0  0  0  0  0  0  0  0  0  0
   -4.5284    0.5081   -0.1579 C   0  0  0  0  0  0  0  0  0  0  0  0
   -3.2566   -0.0503    0.0243 C   0  0  0  0  0  0  0  0  0  0  0  0
   -2.0576    0.7975    0.1214 C   0  0  0  0  0  0  0  0  0  0  0  0
   -2.1330    2.0135    0.0463 O   0  0  0  0  0  0  0  0  0  0  0  0
   -4.6767    1.8536   -0.2549 O   0  0  0  0  0  0  0  0  0  0  0  0
   -6.5668   -2.5058   -0.2202 O   0  0  0  0  0  0  0  0  0  0  0  0
    0.5343   -1.8748    0.5749 C   0  0  0  0  0  0  0  0  0  0  0  0
    0.9056   -2.9424   -0.2474 C   0  0  0  0  0  0  0  0  0  0  0  0
    2.1288   -3.5584   -0.0639 C   0  0  0  0  0  0  0  0  0  0  0  0
    2.9888   -3.1155    0.9394 C   0  0  0  0  0  0  0  0  0  0  0  0
    2.6203   -2.0555    1.7560 C   0  0  0  0  0  0  0  0  0  0  0  0
    1.4045   -1.4320    1.5750 C   0  0  0  0  0  0  0  0  0  0  0  0
    4.1908   -3.7233    1.1187 O   0  0  0  0  0  0  0  0  0  0  0  0
    2.4933   -4.5974   -0.8622 O   0  0  0  0  0  0  0  0  0  0  0  0
    1.2650    3.5097    0.7218 O   0  0  0  0  0  0  0  0  0  0  0  0
    0.6258    4.6336    0.3612 C   0  0  0  0  0  0  0  0  0  0  0  0
    0.4967    4.9064   -0.8087 O   0  0  0  0  0  0  0  0  0  0  0  0
    0.0691    5.5552    1.4157 C   0  0  0  0  0  0  0  0  0  0  0  0
    2.7067    1.1672    1.3045 O   0  0  0  0  0  0  0  0  0  0  0  0
    4.6303    0.2360   -0.5044 O   0  0  0  0  0  0  0  0  0  0  0  0
    3.6996   -1.4482   -2.1827 H   0  0  0  0  0  0  0  0  0  0  0  0
    2.0209   -1.5540   -2.7649 H   0  0  0  0  0  0  0  0  0  0  0  0
    3.0892   -0.2604   -3.3594 H   0  0  0  0  0  0  0  0  0  0  0  0
    2.1124   -0.5822   -0.4854 H   0  0  0  0  0  0  0  0  0  0  0  0
    3.7970    1.5714   -1.8446 H   0  0  0  0  0  0  0  0  0  0  0  0
    3.8084    2.6477    0.3715 H   0  0  0  0  0  0  0  0  0  0  0  0
    2.0293    3.2881   -1.2079 H   0  0  0  0  0  0  0  0  0  0  0  0
   -0.1681    2.1699   -1.1340 H   0  0  0  0  0  0  0  0  0  0  0  0
   -4.1144   -3.3320    0.1144 H   0  0  0  0  0  0  0  0  0  0  0  0
   -6.6149    0.1016   -0.3783 H   0  0  0  0  0  0  0  0  0  0  0  0
   -4.8225    2.2954    0.5928 H   0  0  0  0  0  0  0  0  0  0  0  0
   -6.9849   -2.6883    0.6324 H   0  0  0  0  0  0  0  0  0  0  0  0
    0.2380   -3.2851   -1.0240 H   0  0  0  0  0  0  0  0  0  0  0  0
    3.2898   -1.7156    2.5323 H   0  0  0  0  0  0  0  0  0  0  0  0
    1.1203   -0.6074    2.2119 H   0  0  0  0  0  0  0  0  0  0  0  0
    4.9096   -3.3332    0.6028 H   0  0  0  0  0  0  0  0  0  0  0  0
    2.9691   -4.3316   -1.6610 H   0  0  0  0  0  0  0  0  0  0  0  0
    0.8251    6.2905    1.6914 H   0  0  0  0  0  0  0  0  0  0  0  0
   -0.8097    6.0671    1.0237 H   0  0  0  0  0  0  0  0  0  0  0  0
   -0.2106    4.9746    2.2948 H   0  0  0  0  0  0  0  0  0  0  0  0
    3.4519    0.6653    1.6620 H   0  0  0  0  0  0  0  0  0  0  0  0
    4.9859   -0.3851   -1.1547 H   0  0  0  0  0  0  0  0  0  0  0  0
  1  2  1  0  0  0  0
  2  3  1  0  0  0  0
  3  4  1  0  0  0  0
  4  5  1  0  0  0  0
  5  6  1  0  0  0  0
  6  7  1  0  0  0  0
  2  7  1  0  0  0  0
  6  8  1  0  0  0  0
  8  9  1  0  0  0  0
  9 10  2  0  0  0  0
 10 11  1  0  0  0  0
 11 12  1  0  0  0  0
 12 13  2  0  0  0  0
 13 14  1  0  0  0  0
 14 15  2  0  0  0  0
 15 16  1  0  0  0  0
 16 17  2  0  0  0  0
 12 17  1  0  0  0  0
 17 18  1  0  0  0  0
  9 18  1  0  0  0  0
 18 19  2  0  0  0  0
 16 20  1  0  0  0  0
 14 21  1  0  0  0  0
 10 22  1  0  0  0  0
 22 23  2  0  0  0  0
 23 24  1  0  0  0  0
 24 25  2  0  0  0  0
 25 26  1  0  0  0  0
 26 27  2  0  0  0  0
 22 27  1  0  0  0  0
 25 28  1  0  0  0  0
 24 29  1  0  0  0  0
  5 30  1  0  0  0  0
 30 31  1  0  0  0  0
 31 32  2  0  0  0  0
 31 33  1  0  0  0  0
  4 34  1  0  0  0  0
  3 35  1  0  0  0  0
  1 36  1  0  0  0  0
  1 37  1  0  0  0  0
  1 38  1  0  0  0  0
  2 39  1  0  0  0  0
  3 40  1  0  0  0  0
  4 41  1  0  0  0  0
  5 42  1  0  0  0  0
  6 43  1  0  0  0  0
 13 44  1  0  0  0  0
 15 45  1  0  0  0  0
 20 46  1  0  0  0  0
 21 47  1  0  0  0  0
 23 48  1  0  0  0  0
 26 49  1  0  0  0  0
 27 50  1  0  0  0  0
 28 51  1  0  0  0  0
 29 52  1  0  0  0  0
 33 53  1  0  0  0  0
 33 54  1  0  0  0  0
 33 55  1  0  0  0  0
 34 56  1  0  0  0  0
 35 57  1  0  0  0  0
M  END
$$$$
