C12H22NO10S3
APtclcactv06281817193D 0   0.00000     0.00000
 
 48 48  0  0  0  0  0  0  0  0999 V2000
    7.1972    2.1845    0.3142 C   0  0  0  0  0  0  0  0  0  0  0  0
    5.4913    2.7308    0.0274 S   0  0  0  0  0  0  0  0  0  0  0  0
    5.3946    3.3257   -1.2594 O   0  0  0  0  0  0  0  0  0  0  0  0
    4.5563    1.1765    0.0470 C   0  0  0  0  0  0  0  0  0  0  0  0
    3.0729    1.4708   -0.1852 C   0  0  0  0  0  0  0  0  0  0  0  0
    2.2843    0.1598   -0.1688 C   0  0  0  0  0  0  0  0  0  0  0  0
    0.8009    0.4540   -0.4009 C   0  0  0  0  0  0  0  0  0  0  0  0
    0.0241   -0.8372   -0.3847 C   0  0  0  0  0  0  0  0  0  0  0  0
    0.6383   -1.9588   -0.1933 N   0  0  0  0  0  0  0  0  0  0  0  0
   -0.1024   -3.1590   -0.0672 O   0  0  0  0  0  0  0  0  0  0  0  0
    0.7564   -4.3960    0.1542 S   0  0  0  0  0  0  0  0  0  0  0  0
   -0.0952   -5.5483   -0.0973 O   0  0  0  0  0  0  0  0  0  0  0  0
    1.8592   -4.3156   -0.7909 O   0  0  0  0  0  0  0  0  0  0  0  0
    1.2150   -4.3468    1.5338 O   0  5  0  0  0  0  0  0  0  0  0  0
   -1.7211   -0.8186   -0.6266 S   0  0  0  0  0  0  0  0  0  0  0  0
   -1.9774    0.9471   -0.9312 C   0  0  0  0  0  0  0  0  0  0  0  0
   -3.3561    1.1618   -1.5610 C   0  0  0  0  0  0  0  0  0  0  0  0
   -4.4356    0.6981   -0.5782 C   0  0  0  0  0  0  0  0  0  0  0  0
   -4.2731    1.4622    0.7394 C   0  0  0  0  0  0  0  0  0  0  0  0
   -2.8590    1.2360    1.2804 C   0  0  0  0  0  0  0  0  0  0  0  0
   -1.9039    1.6596    0.3054 O   0  0  0  0  0  0  0  0  0  0  0  0
   -2.6689    2.0442    2.5656 C   0  0  0  0  0  0  0  0  0  0  0  0
   -1.3924    1.7435    3.1330 O   0  0  0  0  0  0  0  0  0  0  0  0
   -4.4794    2.8577    0.5108 O   0  0  0  0  0  0  0  0  0  0  0  0
   -5.7279    0.9625   -1.1278 O   0  0  0  0  0  0  0  0  0  0  0  0
   -3.5381    2.5492   -1.8506 O   0  0  0  0  0  0  0  0  0  0  0  0
    7.8594    3.0502    0.3228 H   0  0  0  0  0  0  0  0  0  0  0  0
    7.2578    1.6712    1.2739 H   0  0  0  0  0  0  0  0  0  0  0  0
    7.4993    1.5038   -0.4816 H   0  0  0  0  0  0  0  0  0  0  0  0
    4.9246    0.5210   -0.7422 H   0  0  0  0  0  0  0  0  0  0  0  0
    4.6830    0.6884    1.0133 H   0  0  0  0  0  0  0  0  0  0  0  0
    2.7047    2.1263    0.6040 H   0  0  0  0  0  0  0  0  0  0  0  0
    2.9462    1.9589   -1.1516 H   0  0  0  0  0  0  0  0  0  0  0  0
    2.6525   -0.4957   -0.9580 H   0  0  0  0  0  0  0  0  0  0  0  0
    2.4110   -0.3283    0.7976 H   0  0  0  0  0  0  0  0  0  0  0  0
    0.4326    1.1095    0.3883 H   0  0  0  0  0  0  0  0  0  0  0  0
    0.6742    0.9421   -1.3673 H   0  0  0  0  0  0  0  0  0  0  0  0
   -1.2069    1.3147   -1.6089 H   0  0  0  0  0  0  0  0  0  0  0  0
   -3.4297    0.5838   -2.4822 H   0  0  0  0  0  0  0  0  0  0  0  0
   -4.3274   -0.3710   -0.3954 H   0  0  0  0  0  0  0  0  0  0  0  0
   -5.0025    1.0991    1.4634 H   0  0  0  0  0  0  0  0  0  0  0  0
   -2.7162    0.1764    1.4928 H   0  0  0  0  0  0  0  0  0  0  0  0
   -2.7232    3.1086    2.3367 H   0  0  0  0  0  0  0  0  0  0  0  0
   -3.4530    1.7851    3.2770 H   0  0  0  0  0  0  0  0  0  0  0  0
   -1.2037    2.2215    3.9522 H   0  0  0  0  0  0  0  0  0  0  0  0
   -5.3550    3.0739    0.1622 H   0  0  0  0  0  0  0  0  0  0  0  0
   -5.8969    0.5150   -1.9682 H   0  0  0  0  0  0  0  0  0  0  0  0
   -2.8848    2.9119   -2.4645 H   0  0  0  0  0  0  0  0  0  0  0  0
  1  2  1  0  0  0  0
  2  3  2  0  0  0  0
  2  4  1  0  0  0  0
  4  5  1  0  0  0  0
  5  6  1  0  0  0  0
  6  7  1  0  0  0  0
  7  8  1  0  0  0  0
  8  9  2  0  0  0  0
  9 10  1  0  0  0  0
 10 11  1  0  0  0  0
 11 12  2  0  0  0  0
 11 13  2  0  0  0  0
 11 14  1  0  0  0  0
  8 15  1  0  0  0  0
 15 16  1  0  0  0  0
 16 17  1  0  0  0  0
 17 18  1  0  0  0  0
 18 19  1  0  0  0  0
 19 20  1  0  0  0  0
 20 21  1  0  0  0  0
 16 21  1  0  0  0  0
 20 22  1  0  0  0  0
 22 23  1  0  0  0  0
 19 24  1  0  0  0  0
 18 25  1  0  0  0  0
 17 26  1  0  0  0  0
  1 27  1  0  0  0  0
  1 28  1  0  0  0  0
  1 29  1  0  0  0  0
  4 30  1  0  0  0  0
  4 31  1  0  0  0  0
  5 32  1  0  0  0  0
  5 33  1  0  0  0  0
  6 34  1  0  0  0  0
  6 35  1  0  0  0  0
  7 36  1  0  0  0  0
  7 37  1  0  0  0  0
 16 38  1  0  0  0  0
 17 39  1  0  0  0  0
 18 40  1  0  0  0  0
 19 41  1  0  0  0  0
 20 42  1  0  0  0  0
 22 43  1  0  0  0  0
 22 44  1  0  0  0  0
 23 45  1  0  0  0  0
 24 46  1  0  0  0  0
 25 47  1  0  0  0  0
 26 48  1  0  0  0  0
M  CHG  1  14  -1
M  END
$$$$
