GeH4
APtclcactv06281817193D 0   0.00000     0.00000
 
  5  4  0  0  0  0  0  0  0  0999 V2000
   -0.0000   -0.0000    0.0000 Ge  0  0  0  0  0  0  0  0  0  0  0  0
   -0.0000   -1.2982   -0.9180 H   0  0  0  0  0  0  0  0  0  0  0  0
    0.0000    1.2982   -0.9180 H   0  0  0  0  0  0  0  0  0  0  0  0
   -1.2982    0.0000    0.9180 H   0  0  0  0  0  0  0  0  0  0  0  0
    1.2982   -0.0000    0.9180 H   0  0  0  0  0  0  0  0  0  0  0  0
  1  2  1  0  0  0  0
  1  3  1  0  0  0  0
  1  4  1  0  0  0  0
  1  5  1  0  0  0  0
M  END
$$$$
