H2Te
APtclcactv06281817193D 0   0.00000     0.00000
 
  3  2  0  0  0  0  0  0  0  0999 V2000
    0.0000   -0.0160   -0.0000 Te  0  0  0  0  0  0  0  0  0  0  0  0
   -1.4534    1.0117    0.0000 H   0  0  0  0  0  0  0  0  0  0  0  0
    1.4534    1.0117    0.0000 H   0  0  0  0  0  0  0  0  0  0  0  0
  1  2  1  0  0  0  0
  1  3  1  0  0  0  0
M  END
$$$$
