C2H6N2O4
APtclcactv06281817193D 0   0.00000     0.00000
 
 14 13  0  0  0  0  0  0  0  0999 V2000
   -0.7051   -0.2471    0.0032 C   0  0  0  0  0  0  0  0  0  0  0  0
   -0.9300   -1.4385    0.0024 O   0  0  0  0  0  0  0  0  0  0  0  0
    0.7051    0.2471    0.0014 C   0  0  0  0  0  0  0  0  0  0  0  0
    0.9300    1.4385    0.0022 O   0  0  0  0  0  0  0  0  0  0  0  0
    1.7253   -0.6301   -0.0012 O   0  0  0  0  0  0  0  0  0  0  0  0
    2.9317   -0.1351   -0.0026 N   0  3  0  0  0  0  0  0  0  0  0  0
    3.0636    0.4318    0.8215 H   0  0  0  0  0  0  0  0  0  0  0  0
    3.6039   -0.8875   -0.0045 H   0  0  0  0  0  0  0  0  0  0  0  0
    3.0609    0.4334   -0.8261 H   0  0  0  0  0  0  0  0  0  0  0  0
   -1.7253    0.6301    0.0001 O   0  0  0  0  0  0  0  0  0  0  0  0
   -2.9317    0.1351   -0.0036 N   0  3  0  0  0  0  0  0  0  0  0  0
   -3.0648   -0.4327    0.8197 H   0  0  0  0  0  0  0  0  0  0  0  0
   -3.6039    0.8875   -0.0056 H   0  0  0  0  0  0  0  0  0  0  0  0
   -3.0597   -0.4325   -0.8279 H   0  0  0  0  0  0  0  0  0  0  0  0
  1  2  2  0  0  0  0
  1  3  1  0  0  0  0
  3  4  2  0  0  0  0
  3  5  1  0  0  0  0
  5  6  1  0  0  0  0
  6  7  1  0  0  0  0
  6  8  1  0  0  0  0
  6  9  1  0  0  0  0
  1 10  1  0  0  0  0
 10 11  1  0  0  0  0
 11 12  1  0  0  0  0
 11 13  1  0  0  0  0
 11 14  1  0  0  0  0
M  CHG  2   6   1  11   1
M  END
$$$$
