C20H18O9
APtclcactv06231803063D 0   0.00000     0.00000
 
 47 50  0  0  0  0  0  0  0  0999 V2000
    6.0152   -0.4740   -0.8555 C   0  0  0  0  0  0  0  0  0  0  0  0
    5.2872   -0.2028    0.3439 O   0  0  0  0  0  0  0  0  0  0  0  0
    3.9412   -0.0359    0.2256 C   0  0  0  0  0  0  0  0  0  0  0  0
    3.1064   -1.1411    0.2116 C   0  0  0  0  0  0  0  0  0  0  0  0
    1.7231   -0.9604    0.0895 C   0  0  0  0  0  0  0  0  0  0  0  0
    1.1844    0.3338   -0.0181 C   0  0  0  0  0  0  0  0  0  0  0  0
    2.0362    1.4322   -0.0019 C   0  0  0  0  0  0  0  0  0  0  0  0
    3.4059    1.2468    0.1245 C   0  0  0  0  0  0  0  0  0  0  0  0
    4.2333    2.3253    0.1396 O   0  0  0  0  0  0  0  0  0  0  0  0
    4.6302    2.8562   -1.1263 C   0  0  0  0  0  0  0  0  0  0  0  0
    1.5263    2.6904   -0.1059 O   0  0  0  0  0  0  0  0  0  0  0  0
    1.2681    3.3886    1.1139 C   0  0  0  0  0  0  0  0  0  0  0  0
   -0.1512    0.4982   -0.1363 O   0  0  0  0  0  0  0  0  0  0  0  0
   -1.0036   -0.5405   -0.1561 C   0  0  0  0  0  0  0  0  0  0  0  0
   -0.5830   -1.8331   -0.0578 C   0  0  0  0  0  0  0  0  0  0  0  0
    0.8025   -2.1087    0.0701 C   0  0  0  0  0  0  0  0  0  0  0  0
    1.2155   -3.2540    0.1601 O   0  0  0  0  0  0  0  0  0  0  0  0
   -1.4854   -2.8516   -0.0822 O   0  0  0  0  0  0  0  0  0  0  0  0
   -1.6223   -3.6258    1.1110 C   0  0  0  0  0  0  0  0  0  0  0  0
   -2.4474   -0.2717   -0.2884 C   0  0  0  0  0  0  0  0  0  0  0  0
   -3.0555    0.6998    0.5114 C   0  0  0  0  0  0  0  0  0  0  0  0
   -4.4086    0.9488    0.3837 C   0  0  0  0  0  0  0  0  0  0  0  0
   -5.1654    0.2306   -0.5426 C   0  0  0  0  0  0  0  0  0  0  0  0
   -4.5606   -0.7342   -1.3365 C   0  0  0  0  0  0  0  0  0  0  0  0
   -3.2104   -0.9836   -1.2181 C   0  0  0  0  0  0  0  0  0  0  0  0
   -6.4588    0.6597   -0.4734 O   0  0  0  0  0  0  0  0  0  0  0  0
   -6.4084    1.9265    0.2088 C   0  0  0  0  0  0  0  0  0  0  0  0
   -5.2304    1.8265    1.0305 O   0  0  0  0  0  0  0  0  0  0  0  0
    3.6264   -2.3926    0.3151 O   0  0  0  0  0  0  0  0  0  0  0  0
    7.0831   -0.4875   -0.6372 H   0  0  0  0  0  0  0  0  0  0  0  0
    5.7133   -1.4432   -1.2525 H   0  0  0  0  0  0  0  0  0  0  0  0
    5.8046    0.3017   -1.5917 H   0  0  0  0  0  0  0  0  0  0  0  0
    5.0714    2.0635   -1.7305 H   0  0  0  0  0  0  0  0  0  0  0  0
    3.7585    3.2620   -1.6396 H   0  0  0  0  0  0  0  0  0  0  0  0
    5.3637    3.6481   -0.9744 H   0  0  0  0  0  0  0  0  0  0  0  0
    0.6148    2.7868    1.7457 H   0  0  0  0  0  0  0  0  0  0  0  0
    2.2084    3.5717    1.6338 H   0  0  0  0  0  0  0  0  0  0  0  0
    0.7841    4.3399    0.8926 H   0  0  0  0  0  0  0  0  0  0  0  0
   -2.0117   -2.9955    1.9105 H   0  0  0  0  0  0  0  0  0  0  0  0
   -2.3107   -4.4516    0.9313 H   0  0  0  0  0  0  0  0  0  0  0  0
   -0.6488   -4.0210    1.4013 H   0  0  0  0  0  0  0  0  0  0  0  0
   -2.4688    1.2549    1.2284 H   0  0  0  0  0  0  0  0  0  0  0  0
   -5.1494   -1.2882   -2.0526 H   0  0  0  0  0  0  0  0  0  0  0  0
   -2.7436   -1.7348   -1.8380 H   0  0  0  0  0  0  0  0  0  0  0  0
   -6.3082    2.7428   -0.5065 H   0  0  0  0  0  0  0  0  0  0  0  0
   -7.2957    2.0642    0.8267 H   0  0  0  0  0  0  0  0  0  0  0  0
    3.7051   -2.7118    1.2246 H   0  0  0  0  0  0  0  0  0  0  0  0
  1  2  1  0  0  0  0
  2  3  1  0  0  0  0
  3  4  2  0  0  0  0
  4  5  1  0  0  0  0
  5  6  2  0  0  0  0
  6  7  1  0  0  0  0
  7  8  2  0  0  0  0
  3  8  1  0  0  0  0
  8  9  1  0  0  0  0
  9 10  1  0  0  0  0
  7 11  1  0  0  0  0
 11 12  1  0  0  0  0
  6 13  1  0  0  0  0
 13 14  1  0  0  0  0
 14 15  2  0  0  0  0
 15 16  1  0  0  0  0
  5 16  1  0  0  0  0
 16 17  2  0  0  0  0
 15 18  1  0  0  0  0
 18 19  1  0  0  0  0
 14 20  1  0  0  0  0
 20 21  2  0  0  0  0
 21 22  1  0  0  0  0
 22 23  2  0  0  0  0
 23 24  1  0  0  0  0
 24 25  2  0  0  0  0
 20 25  1  0  0  0  0
 23 26  1  0  0  0  0
 26 27  1  0  0  0  0
 27 28  1  0  0  0  0
 22 28  1  0  0  0  0
  4 29  1  0  0  0  0
  1 30  1  0  0  0  0
  1 31  1  0  0  0  0
  1 32  1  0  0  0  0
 10 33  1  0  0  0  0
 10 34  1  0  0  0  0
 10 35  1  0  0  0  0
 12 36  1  0  0  0  0
 12 37  1  0  0  0  0
 12 38  1  0  0  0  0
 19 39  1  0  0  0  0
 19 40  1  0  0  0  0
 19 41  1  0  0  0  0
 21 42  1  0  0  0  0
 24 43  1  0  0  0  0
 25 44  1  0  0  0  0
 27 45  1  0  0  0  0
 27 46  1  0  0  0  0
 29 47  1  0  0  0  0
M  END
$$$$
