C30H50O2
APtclcactv06231803063D 0   0.00000     0.00000
 
 82 86  0  0  0  0  0  0  0  0999 V2000
   -3.3388    2.7642    0.9142 C   0  0  0  0  0  0  0  0  0  0  0  0
   -3.6803    1.6014   -0.0508 C   0  0  0  0  0  0  0  0  0  0  0  0
   -2.8952    0.3711    0.4934 C   0  0  0  0  0  0  0  0  0  0  0  0
   -1.4613    0.4274    0.1348 C   0  0  0  0  0  0  0  0  0  0  0  0
   -1.0293    1.5198   -0.8450 C   0  0  0  0  0  0  0  0  0  0  0  0
    0.5590    1.5640   -0.9447 C   0  0  0  0  0  0  0  0  0  0  0  0
    1.0595    0.5794    0.0862 C   0  0  0  0  0  0  0  0  0  0  0  0
    2.5322    0.8003    0.4264 C   0  0  0  0  0  0  0  0  0  0  0  0
    3.1162    1.9346   -0.4492 C   0  0  0  0  0  0  0  0  0  0  0  0
    4.6168    2.1551   -0.1189 C   0  0  0  0  0  0  0  0  0  0  0  0
    5.4522    0.8774   -0.3660 C   0  0  0  0  0  0  0  0  0  0  0  0
    4.8851   -0.3029    0.4369 C   0  0  0  0  0  0  0  0  0  0  0  0
    3.3103   -0.4612    0.1910 C   0  0  0  0  0  0  0  0  0  0  0  0
    2.7627   -1.6195    0.9499 C   0  0  0  0  0  0  0  0  0  0  0  0
    1.3059   -1.7728    0.8086 C   0  0  0  0  0  0  0  0  0  0  0  0
    0.7386   -0.8597   -0.2113 C   0  0  0  0  0  0  0  0  0  0  0  0
   -0.8451   -0.8935   -0.3344 C   0  0  0  0  0  0  0  0  0  0  0  0
   -1.3704   -2.0192    0.6106 C   0  0  0  0  0  0  0  0  0  0  0  0
   -2.8683   -2.1532    0.5619 C   0  0  0  0  0  0  0  0  0  0  0  0
   -3.6331   -0.9193    0.1405 C   0  0  0  0  0  0  0  0  0  0  0  0
   -4.9370   -0.8565    1.0762 C   0  0  0  0  0  0  0  0  0  0  0  0
   -5.7300    0.3112    0.5113 C   0  0  0  0  0  0  0  0  0  0  0  0
   -5.1560    1.4419    0.1036 C   0  0  0  0  0  0  0  0  0  0  0  0
   -6.0527    2.5589   -0.2993 C   0  0  0  0  0  0  0  0  0  0  0  0
   -4.1194   -0.9989   -1.3377 C   0  0  0  0  0  0  0  0  0  0  0  0
   -3.1979   -3.1721   -0.3282 O   0  0  0  0  0  0  0  0  0  0  0  0
   -1.1995   -1.2511   -1.7548 C   0  0  0  0  0  0  0  0  0  0  0  0
    1.1393   -1.1769   -1.6627 C   0  0  0  0  0  0  0  0  0  0  0  0
    5.5777   -1.5652   -0.1844 C   0  0  0  0  0  0  0  0  0  0  0  0
    5.2608   -0.2573    1.8633 C   0  0  0  0  0  0  0  0  0  0  0  0
    5.3730    0.5780   -1.8201 O   0  0  0  0  0  0  0  0  0  0  0  0
    2.6255    1.2033    1.9191 C   0  0  0  0  0  0  0  0  0  0  0  0
   -2.2632    2.9404    0.9045 H   0  0  0  0  0  0  0  0  0  0  0  0
   -3.8578    3.6673    0.5929 H   0  0  0  0  0  0  0  0  0  0  0  0
   -3.6552    2.5031    1.9240 H   0  0  0  0  0  0  0  0  0  0  0  0
   -3.4711    1.9026   -1.0329 H   0  0  0  0  0  0  0  0  0  0  0  0
   -2.9504    0.4344    1.6517 H   0  0  0  0  0  0  0  0  0  0  0  0
   -1.0035    0.7108    1.0682 H   0  0  0  0  0  0  0  0  0  0  0  0
   -1.3573    1.3521   -1.9011 H   0  0  0  0  0  0  0  0  0  0  0  0
   -1.3379    2.5332   -0.5489 H   0  0  0  0  0  0  0  0  0  0  0  0
    0.8963    1.3323   -1.8728 H   0  0  0  0  0  0  0  0  0  0  0  0
    0.8308    2.6200   -0.6289 H   0  0  0  0  0  0  0  0  0  0  0  0
    0.5433    0.8627    1.0925 H   0  0  0  0  0  0  0  0  0  0  0  0
    3.0422    1.6962   -1.4323 H   0  0  0  0  0  0  0  0  0  0  0  0
    2.6153    2.8650   -0.2603 H   0  0  0  0  0  0  0  0  0  0  0  0
    4.9669    2.9278   -0.6867 H   0  0  0  0  0  0  0  0  0  0  0  0
    4.6991    2.4140    0.9486 H   0  0  0  0  0  0  0  0  0  0  0  0
    6.4135    1.0343   -0.0758 H   0  0  0  0  0  0  0  0  0  0  0  0
    3.3153   -0.7047   -0.9260 H   0  0  0  0  0  0  0  0  0  0  0  0
    3.2664   -2.6230    0.6655 H   0  0  0  0  0  0  0  0  0  0  0  0
    2.9641   -1.5181    2.0871 H   0  0  0  0  0  0  0  0  0  0  0  0
    1.0485   -2.8808    0.4414 H   0  0  0  0  0  0  0  0  0  0  0  0
    0.7866   -1.7027    1.7883 H   0  0  0  0  0  0  0  0  0  0  0  0
   -0.8840   -2.9748    0.3776 H   0  0  0  0  0  0  0  0  0  0  0  0
   -1.0775   -1.8107    1.6486 H   0  0  0  0  0  0  0  0  0  0  0  0
   -3.2947   -2.4741    1.5297 H   0  0  0  0  0  0  0  0  0  0  0  0
   -5.5360   -1.7591    0.8742 H   0  0  0  0  0  0  0  0  0  0  0  0
   -4.6392   -0.7316    1.9985 H   0  0  0  0  0  0  0  0  0  0  0  0
   -6.8113    0.2761    0.6343 H   0  0  0  0  0  0  0  0  0  0  0  0
   -7.0918    2.2491   -0.1875 H   0  0  0  0  0  0  0  0  0  0  0  0
   -5.8616    3.4249    0.3345 H   0  0  0  0  0  0  0  0  0  0  0  0
   -5.8616    2.8211   -1.3399 H   0  0  0  0  0  0  0  0  0  0  0  0
   -4.2256   -2.0438   -1.6295 H   0  0  0  0  0  0  0  0  0  0  0  0
   -5.0819   -0.4960   -1.4312 H   0  0  0  0  0  0  0  0  0  0  0  0
   -3.3909   -0.5127   -1.9866 H   0  0  0  0  0  0  0  0  0  0  0  0
   -2.8352   -4.0360   -0.0889 H   0  0  0  0  0  0  0  0  0  0  0  0
   -0.5654   -2.0710   -2.0920 H   0  0  0  0  0  0  0  0  0  0  0  0
   -2.2447   -1.5569   -1.8025 H   0  0  0  0  0  0  0  0  0  0  0  0
   -1.0449   -0.3842   -2.3971 H   0  0  0  0  0  0  0  0  0  0  0  0
    0.9609   -2.2327   -1.8664 H   0  0  0  0  0  0  0  0  0  0  0  0
    0.5443   -0.5696   -2.3448 H   0  0  0  0  0  0  0  0  0  0  0  0
    2.1965   -0.9530   -1.8050 H   0  0  0  0  0  0  0  0  0  0  0  0
    6.6585   -1.4784   -0.0730 H   0  0  0  0  0  0  0  0  0  0  0  0
    5.2301   -2.4607    0.3306 H   0  0  0  0  0  0  0  0  0  0  0  0
    5.3259   -1.6338   -1.2427 H   0  0  0  0  0  0  0  0  0  0  0  0
    4.9915    0.7136    2.2791 H   0  0  0  0  0  0  0  0  0  0  0  0
    4.7327   -1.0430    2.4034 H   0  0  0  0  0  0  0  0  0  0  0  0
    6.3358   -0.4087    1.9609 H   0  0  0  0  0  0  0  0  0  0  0  0
    5.7162    1.2829   -2.3861 H   0  0  0  0  0  0  0  0  0  0  0  0
    2.3867    0.3424    2.5435 H   0  0  0  0  0  0  0  0  0  0  0  0
    3.6369    1.5437    2.1410 H   0  0  0  0  0  0  0  0  0  0  0  0
    1.9186    2.0075    2.1232 H   0  0  0  0  0  0  0  0  0  0  0  0
  1  2  1  0  0  0  0
  2  3  1  0  0  0  0
  3  4  1  0  0  0  0
  4  5  1  0  0  0  0
  5  6  1  0  0  0  0
  6  7  1  0  0  0  0
  7  8  1  0  0  0  0
  8  9  1  0  0  0  0
  9 10  1  0  0  0  0
 10 11  1  0  0  0  0
 11 12  1  0  0  0  0
 12 13  1  0  0  0  0
  8 13  1  0  0  0  0
 13 14  1  0  0  0  0
 14 15  1  0  0  0  0
 15 16  1  0  0  0  0
  7 16  1  0  0  0  0
 16 17  1  0  0  0  0
  4 17  1  0  0  0  0
 17 18  1  0  0  0  0
 18 19  1  0  0  0  0
 19 20  1  0  0  0  0
  3 20  1  0  0  0  0
 20 21  1  0  0  0  0
 21 22  1  0  0  0  0
 22 23  2  0  0  0  0
  2 23  1  0  0  0  0
 23 24  1  0  0  0  0
 20 25  1  0  0  0  0
 19 26  1  0  0  0  0
 17 27  1  0  0  0  0
 16 28  1  0  0  0  0
 12 29  1  0  0  0  0
 12 30  1  0  0  0  0
 11 31  1  0  0  0  0
  8 32  1  0  0  0  0
  1 33  1  0  0  0  0
  1 34  1  0  0  0  0
  1 35  1  0  0  0  0
  2 36  1  0  0  0  0
  3 37  1  0  0  0  0
  4 38  1  0  0  0  0
  5 39  1  0  0  0  0
  5 40  1  0  0  0  0
  6 41  1  0  0  0  0
  6 42  1  0  0  0  0
  7 43  1  0  0  0  0
  9 44  1  0  0  0  0
  9 45  1  0  0  0  0
 10 46  1  0  0  0  0
 10 47  1  0  0  0  0
 11 48  1  0  0  0  0
 13 49  1  0  0  0  0
 14 50  1  0  0  0  0
 14 51  1  0  0  0  0
 15 52  1  0  0  0  0
 15 53  1  0  0  0  0
 18 54  1  0  0  0  0
 18 55  1  0  0  0  0
 19 56  1  0  0  0  0
 21 57  1  0  0  0  0
 21 58  1  0  0  0  0
 22 59  1  0  0  0  0
 24 60  1  0  0  0  0
 24 61  1  0  0  0  0
 24 62  1  0  0  0  0
 25 63  1  0  0  0  0
 25 64  1  0  0  0  0
 25 65  1  0  0  0  0
 26 66  1  0  0  0  0
 27 67  1  0  0  0  0
 27 68  1  0  0  0  0
 27 69  1  0  0  0  0
 28 70  1  0  0  0  0
 28 71  1  0  0  0  0
 28 72  1  0  0  0  0
 29 73  1  0  0  0  0
 29 74  1  0  0  0  0
 29 75  1  0  0  0  0
 30 76  1  0  0  0  0
 30 77  1  0  0  0  0
 30 78  1  0  0  0  0
 31 79  1  0  0  0  0
 32 80  1  0  0  0  0
 32 81  1  0  0  0  0
 32 82  1  0  0  0  0
M  END
$$$$
