C26H28O6
APtclcactv06231803063D 0   0.00000     0.00000
 
 60 63  0  0  0  0  0  0  0  0999 V2000
   -2.7936   -4.7460   -1.1331 C   0  0  0  0  0  0  0  0  0  0  0  0
   -2.6987   -4.2464    0.2855 C   0  0  0  0  0  0  0  0  0  0  0  0
   -2.1066   -3.1060    0.5400 C   0  0  0  0  0  0  0  0  0  0  0  0
   -1.6380   -2.2307   -0.5937 C   0  0  0  0  0  0  0  0  0  0  0  0
   -2.2195   -0.8494   -0.4353 C   0  0  0  0  0  0  0  0  0  0  0  0
   -3.5267   -0.5985   -0.8273 C   0  0  0  0  0  0  0  0  0  0  0  0
   -4.0613    0.6725   -0.6809 C   0  0  0  0  0  0  0  0  0  0  0  0
   -3.2880    1.6894   -0.1431 C   0  0  0  0  0  0  0  0  0  0  0  0
   -1.9810    1.4333    0.2475 C   0  0  0  0  0  0  0  0  0  0  0  0
   -1.4523    0.1648    0.1055 C   0  0  0  0  0  0  0  0  0  0  0  0
   -1.1396    2.5386    0.8318 C   0  0  0  0  0  0  0  0  0  0  0  0
   -0.6964    2.1629    2.2534 C   0  0  0  0  0  0  0  0  0  0  0  0
    0.0823    0.9679    2.2049 O   0  0  0  0  0  0  0  0  0  0  0  0
    1.1380    0.9131    1.3585 C   0  0  0  0  0  0  0  0  0  0  0  0
    1.2052    1.7633    0.2380 C   0  0  0  0  0  0  0  0  0  0  0  0
    0.1197    2.7227    0.0041 C   0  0  0  0  0  0  0  0  0  0  0  0
    0.2232    3.6173   -0.8096 O   0  0  0  0  0  0  0  0  0  0  0  0
    2.2974    1.6957   -0.6407 C   0  0  0  0  0  0  0  0  0  0  0  0
    3.3156    0.7813   -0.3852 C   0  0  0  0  0  0  0  0  0  0  0  0
    4.4892    0.6693   -1.2769 C   0  0  0  0  0  0  0  0  0  0  0  0
    5.2465   -0.4222   -1.1808 C   0  0  0  0  0  0  0  0  0  0  0  0
    4.8884   -1.5016   -0.1938 C   0  0  0  0  0  0  0  0  0  0  0  0
    4.2546   -0.9402    0.9560 O   0  0  0  0  0  0  0  0  0  0  0  0
    3.2444   -0.0612    0.7375 C   0  0  0  0  0  0  0  0  0  0  0  0
    2.1621    0.0097    1.5971 C   0  0  0  0  0  0  0  0  0  0  0  0
    3.9363   -2.4978   -0.8588 C   0  0  0  0  0  0  0  0  0  0  0  0
    6.1611   -2.2328    0.2381 C   0  0  0  0  0  0  0  0  0  0  0  0
    2.3601    2.5095   -1.7226 O   0  0  0  0  0  0  0  0  0  0  0  0
   -3.8090    2.9362    0.0012 O   0  0  0  0  0  0  0  0  0  0  0  0
   -5.1603    3.1277   -0.4224 C   0  0  0  0  0  0  0  0  0  0  0  0
   -4.2822   -1.5974   -1.3547 O   0  0  0  0  0  0  0  0  0  0  0  0
   -3.2851   -5.0587    1.4112 C   0  0  0  0  0  0  0  0  0  0  0  0
   -1.7965   -4.7866   -1.5715 H   0  0  0  0  0  0  0  0  0  0  0  0
   -3.2337   -5.7432   -1.1385 H   0  0  0  0  0  0  0  0  0  0  0  0
   -3.4193   -4.0696   -1.7155 H   0  0  0  0  0  0  0  0  0  0  0  0
   -1.9541   -2.7930    1.5624 H   0  0  0  0  0  0  0  0  0  0  0  0
   -0.5498   -2.1704   -0.5804 H   0  0  0  0  0  0  0  0  0  0  0  0
   -1.9668   -2.6568   -1.5415 H   0  0  0  0  0  0  0  0  0  0  0  0
   -5.0784    0.8698   -0.9858 H   0  0  0  0  0  0  0  0  0  0  0  0
   -0.4351   -0.0325    0.4100 H   0  0  0  0  0  0  0  0  0  0  0  0
   -1.7100    3.4672    0.8539 H   0  0  0  0  0  0  0  0  0  0  0  0
   -0.0970    2.9709    2.6731 H   0  0  0  0  0  0  0  0  0  0  0  0
   -1.5751    1.9995    2.8772 H   0  0  0  0  0  0  0  0  0  0  0  0
    4.7254    1.4493   -1.9855 H   0  0  0  0  0  0  0  0  0  0  0  0
    6.1167   -0.5331   -1.8108 H   0  0  0  0  0  0  0  0  0  0  0  0
    2.1152   -0.6415    2.4574 H   0  0  0  0  0  0  0  0  0  0  0  0
    4.4239   -2.9429   -1.7260 H   0  0  0  0  0  0  0  0  0  0  0  0
    3.6747   -3.2809   -0.1472 H   0  0  0  0  0  0  0  0  0  0  0  0
    3.0319   -1.9791   -1.1769 H   0  0  0  0  0  0  0  0  0  0  0  0
    6.8465   -1.5247    0.7039 H   0  0  0  0  0  0  0  0  0  0  0  0
    5.9059   -3.0152    0.9529 H   0  0  0  0  0  0  0  0  0  0  0  0
    6.6376   -2.6793   -0.6346 H   0  0  0  0  0  0  0  0  0  0  0  0
    2.8031    3.3526   -1.5554 H   0  0  0  0  0  0  0  0  0  0  0  0
   -5.4509    4.1644   -0.2524 H   0  0  0  0  0  0  0  0  0  0  0  0
   -5.2445    2.8962   -1.4842 H   0  0  0  0  0  0  0  0  0  0  0  0
   -5.8162    2.4685    0.1463 H   0  0  0  0  0  0  0  0  0  0  0  0
   -4.7843   -2.0993   -0.6982 H   0  0  0  0  0  0  0  0  0  0  0  0
   -2.5305   -5.7450    1.7955 H   0  0  0  0  0  0  0  0  0  0  0  0
   -3.6099   -4.3917    2.2098 H   0  0  0  0  0  0  0  0  0  0  0  0
   -4.1391   -5.6271    1.0427 H   0  0  0  0  0  0  0  0  0  0  0  0
  1  2  1  0  0  0  0
  2  3  2  0  0  0  0
  3  4  1  0  0  0  0
  4  5  1  0  0  0  0
  5  6  2  0  0  0  0
  6  7  1  0  0  0  0
  7  8  2  0  0  0  0
  8  9  1  0  0  0  0
  9 10  2  0  0  0  0
  5 10  1  0  0  0  0
  9 11  1  0  0  0  0
 11 12  1  0  0  0  0
 12 13  1  0  0  0  0
 13 14  1  0  0  0  0
 14 15  2  0  0  0  0
 15 16  1  0  0  0  0
 11 16  1  0  0  0  0
 16 17  2  0  0  0  0
 15 18  1  0  0  0  0
 18 19  2  0  0  0  0
 19 20  1  0  0  0  0
 20 21  2  0  0  0  0
 21 22  1  0  0  0  0
 22 23  1  0  0  0  0
 23 24  1  0  0  0  0
 19 24  1  0  0  0  0
 24 25  2  0  0  0  0
 14 25  1  0  0  0  0
 22 26  1  0  0  0  0
 22 27  1  0  0  0  0
 18 28  1  0  0  0  0
  8 29  1  0  0  0  0
 29 30  1  0  0  0  0
  6 31  1  0  0  0  0
  2 32  1  0  0  0  0
  1 33  1  0  0  0  0
  1 34  1  0  0  0  0
  1 35  1  0  0  0  0
  3 36  1  0  0  0  0
  4 37  1  0  0  0  0
  4 38  1  0  0  0  0
  7 39  1  0  0  0  0
 10 40  1  0  0  0  0
 11 41  1  0  0  0  0
 12 42  1  0  0  0  0
 12 43  1  0  0  0  0
 20 44  1  0  0  0  0
 21 45  1  0  0  0  0
 25 46  1  0  0  0  0
 26 47  1  0  0  0  0
 26 48  1  0  0  0  0
 26 49  1  0  0  0  0
 27 50  1  0  0  0  0
 27 51  1  0  0  0  0
 27 52  1  0  0  0  0
 28 53  1  0  0  0  0
 30 54  1  0  0  0  0
 30 55  1  0  0  0  0
 30 56  1  0  0  0  0
 31 57  1  0  0  0  0
 32 58  1  0  0  0  0
 32 59  1  0  0  0  0
 32 60  1  0  0  0  0
M  END
$$$$
