C3H9N
APtclcactv06201806453D 0   0.00000     0.00000
 
 13 12  0  0  0  0  0  0  0  0999 V2000
    0.6651    1.2665   -0.1234 C   0  0  0  0  0  0  0  0  0  0  0  0
   -0.0099   -0.0038    0.3977 C   0  0  0  0  0  0  0  0  0  0  0  0
   -1.4527   -0.0589   -0.1083 C   0  0  0  0  0  0  0  0  0  0  0  0
    0.7237   -1.1814   -0.0851 N   0  0  0  0  0  0  0  0  0  0  0  0
    1.6930    1.3058    0.2371 H   0  0  0  0  0  0  0  0  0  0  0  0
    0.6624    1.2585   -1.2134 H   0  0  0  0  0  0  0  0  0  0  0  0
    0.1208    2.1403    0.2348 H   0  0  0  0  0  0  0  0  0  0  0  0
   -0.0072    0.0043    1.4877 H   0  0  0  0  0  0  0  0  0  0  0  0
   -1.4554   -0.0670   -1.1983 H   0  0  0  0  0  0  0  0  0  0  0  0
   -1.9336   -0.9639    0.2629 H   0  0  0  0  0  0  0  0  0  0  0  0
   -1.9970    0.8148    0.2499 H   0  0  0  0  0  0  0  0  0  0  0  0
    0.6808   -1.2468   -1.0911 H   0  0  0  0  0  0  0  0  0  0  0  0
    1.6801   -1.1683    0.2360 H   0  0  0  0  0  0  0  0  0  0  0  0
  1  2  1  0  0  0  0
  2  3  1  0  0  0  0
  2  4  1  0  0  0  0
  1  5  1  0  0  0  0
  1  6  1  0  0  0  0
  1  7  1  0  0  0  0
  2  8  1  0  0  0  0
  3  9  1  0  0  0  0
  3 10  1  0  0  0  0
  3 11  1  0  0  0  0
  4 12  1  0  0  0  0
  4 13  1  0  0  0  0
M  END
$$$$
