C7H15NO3S
APtclcactv06231803063D 0   0.00000     0.00000
 
 27 26  0  0  0  0  0  0  0  0999 V2000
    5.7259    0.1943   -0.2172 C   0  0  0  0  0  0  0  0  0  0  0  0
    4.3780    0.9055   -0.3523 C   0  0  0  0  0  0  0  0  0  0  0  0
    3.2473   -0.0890   -0.0820 C   0  0  0  0  0  0  0  0  0  0  0  0
    1.8994    0.6222   -0.2171 C   0  0  0  0  0  0  0  0  0  0  0  0
    0.5587   -0.5570    0.1034 S   0  0  0  0  0  0  0  0  0  0  0  0
    0.6409   -1.0141    1.4463 O   0  0  0  0  0  0  0  0  0  0  0  0
   -0.9326    0.4555   -0.1005 C   0  0  0  0  0  0  0  0  0  0  0  0
   -2.1723   -0.4081    0.1412 C   0  0  0  0  0  0  0  0  0  0  0  0
   -3.4112    0.4330   -0.0282 C   0  0  0  0  0  0  0  0  0  0  0  0
   -4.0382    0.3841   -1.0598 O   0  0  0  0  0  0  0  0  0  0  0  0
   -3.8181    1.2365    0.9671 O   0  0  0  0  0  0  0  0  0  0  0  0
   -2.1950   -1.5137   -0.8258 N   0  0  0  0  0  0  0  0  0  0  0  0
    5.8266   -0.2048    0.7921 H   0  0  0  0  0  0  0  0  0  0  0  0
    5.7799   -0.6219   -0.9377 H   0  0  0  0  0  0  0  0  0  0  0  0
    6.5315    0.9028   -0.4098 H   0  0  0  0  0  0  0  0  0  0  0  0
    4.3241    1.7217    0.3681 H   0  0  0  0  0  0  0  0  0  0  0  0
    4.2774    1.3046   -1.3616 H   0  0  0  0  0  0  0  0  0  0  0  0
    3.3012   -0.9052   -0.8025 H   0  0  0  0  0  0  0  0  0  0  0  0
    3.3479   -0.4881    0.9273 H   0  0  0  0  0  0  0  0  0  0  0  0
    1.8454    1.4383    0.5034 H   0  0  0  0  0  0  0  0  0  0  0  0
    1.7987    1.0213   -1.2264 H   0  0  0  0  0  0  0  0  0  0  0  0
   -0.9158    1.2758    0.6171 H   0  0  0  0  0  0  0  0  0  0  0  0
   -0.9624    0.8587   -1.1127 H   0  0  0  0  0  0  0  0  0  0  0  0
   -2.1425   -0.8114    1.1534 H   0  0  0  0  0  0  0  0  0  0  0  0
   -4.6183    1.7568    0.8120 H   0  0  0  0  0  0  0  0  0  0  0  0
   -2.9693   -2.1353   -0.6463 H   0  0  0  0  0  0  0  0  0  0  0  0
   -2.2228   -1.1655   -1.7725 H   0  0  0  0  0  0  0  0  0  0  0  0
  1  2  1  0  0  0  0
  2  3  1  0  0  0  0
  3  4  1  0  0  0  0
  4  5  1  0  0  0  0
  5  6  2  0  0  0  0
  5  7  1  0  0  0  0
  7  8  1  0  0  0  0
  8  9  1  0  0  0  0
  9 10  2  0  0  0  0
  9 11  1  0  0  0  0
  8 12  1  0  0  0  0
  1 13  1  0  0  0  0
  1 14  1  0  0  0  0
  1 15  1  0  0  0  0
  2 16  1  0  0  0  0
  2 17  1  0  0  0  0
  3 18  1  0  0  0  0
  3 19  1  0  0  0  0
  4 20  1  0  0  0  0
  4 21  1  0  0  0  0
  7 22  1  0  0  0  0
  7 23  1  0  0  0  0
  8 24  1  0  0  0  0
 11 25  1  0  0  0  0
 12 26  1  0  0  0  0
 12 27  1  0  0  0  0
M  END
$$$$
