C19H12O2
APtclcactv06231803063D 0   0.00000     0.00000
 
 33 36  0  0  0  0  0  0  0  0999 V2000
   -4.7931    0.1013    0.0258 C   0  0  0  0  0  0  0  0  0  0  0  0
   -3.9774   -0.4168    1.0162 C   0  0  0  0  0  0  0  0  0  0  0  0
   -2.6315   -0.1150    1.0335 C   0  0  0  0  0  0  0  0  0  0  0  0
   -2.0927    0.7147    0.0486 C   0  0  0  0  0  0  0  0  0  0  0  0
   -2.9211    1.2337   -0.9480 C   0  0  0  0  0  0  0  0  0  0  0  0
   -4.2654    0.9243   -0.9535 C   0  0  0  0  0  0  0  0  0  0  0  0
   -0.6503    1.0430    0.0612 C   0  0  0  0  0  0  0  0  0  0  0  0
    0.3046    0.0167   -0.0037 C   0  0  0  0  0  0  0  0  0  0  0  0
    1.6751    0.3485    0.0090 C   0  0  0  0  0  0  0  0  0  0  0  0
    2.0706    1.7028    0.0860 C   0  0  0  0  0  0  0  0  0  0  0  0
    3.4398    2.0160    0.0977 C   0  0  0  0  0  0  0  0  0  0  0  0
    4.3785    1.0102    0.0340 C   0  0  0  0  0  0  0  0  0  0  0  0
    4.0029   -0.3213   -0.0423 C   0  0  0  0  0  0  0  0  0  0  0  0
    2.6517   -0.6715   -0.0548 C   0  0  0  0  0  0  0  0  0  0  0  0
    2.2331   -2.0676   -0.1342 C   0  0  0  0  0  0  0  0  0  0  0  0
    0.9174   -2.3953   -0.1456 C   0  0  0  0  0  0  0  0  0  0  0  0
   -0.0864   -1.3939   -0.0841 C   0  0  0  0  0  0  0  0  0  0  0  0
   -1.2664   -1.7050   -0.0953 O   0  0  0  0  0  0  0  0  0  0  0  0
    0.5541   -3.7034   -0.2210 O   0  0  0  0  0  0  0  0  0  0  0  0
    1.0859    2.7075    0.1498 C   0  0  0  0  0  0  0  0  0  0  0  0
   -0.2356    2.3791    0.1321 C   0  0  0  0  0  0  0  0  0  0  0  0
   -5.8454   -0.1414    0.0144 H   0  0  0  0  0  0  0  0  0  0  0  0
   -4.3955   -1.0586    1.7776 H   0  0  0  0  0  0  0  0  0  0  0  0
   -1.9960   -0.5194    1.8075 H   0  0  0  0  0  0  0  0  0  0  0  0
   -2.5105    1.8765   -1.7126 H   0  0  0  0  0  0  0  0  0  0  0  0
   -4.9073    1.3249   -1.7241 H   0  0  0  0  0  0  0  0  0  0  0  0
    3.7569    3.0468    0.1562 H   0  0  0  0  0  0  0  0  0  0  0  0
    5.4282    1.2644    0.0434 H   0  0  0  0  0  0  0  0  0  0  0  0
    4.7586   -1.0913   -0.0919 H   0  0  0  0  0  0  0  0  0  0  0  0
    2.9787   -2.8473   -0.1847 H   0  0  0  0  0  0  0  0  0  0  0  0
    0.4544   -4.1341    0.6390 H   0  0  0  0  0  0  0  0  0  0  0  0
    1.3805    3.7449    0.2088 H   0  0  0  0  0  0  0  0  0  0  0  0
   -0.9773    3.1626    0.1815 H   0  0  0  0  0  0  0  0  0  0  0  0
  1  2  2  0  0  0  0
  2  3  1  0  0  0  0
  3  4  2  0  0  0  0
  4  5  1  0  0  0  0
  5  6  2  0  0  0  0
  1  6  1  0  0  0  0
  4  7  1  0  0  0  0
  7  8  2  0  0  0  0
  8  9  1  0  0  0  0
  9 10  2  0  0  0  0
 10 11  1  0  0  0  0
 11 12  2  0  0  0  0
 12 13  1  0  0  0  0
 13 14  2  0  0  0  0
  9 14  1  0  0  0  0
 14 15  1  0  0  0  0
 15 16  2  0  0  0  0
 16 17  1  0  0  0  0
  8 17  1  0  0  0  0
 17 18  2  0  0  0  0
 16 19  1  0  0  0  0
 10 20  1  0  0  0  0
 20 21  2  0  0  0  0
  7 21  1  0  0  0  0
  1 22  1  0  0  0  0
  2 23  1  0  0  0  0
  3 24  1  0  0  0  0
  5 25  1  0  0  0  0
  6 26  1  0  0  0  0
 11 27  1  0  0  0  0
 12 28  1  0  0  0  0
 13 29  1  0  0  0  0
 15 30  1  0  0  0  0
 19 31  1  0  0  0  0
 20 32  1  0  0  0  0
 21 33  1  0  0  0  0
M  END
$$$$
