C16H17NO3
APtclcactv06231803063D 0   0.00000     0.00000
 
 37 39  0  0  0  0  0  0  0  0999 V2000
   -6.3264    1.7920    0.4107 C   0  0  0  0  0  0  0  0  0  0  0  0
   -7.2054    0.6357   -0.1349 C   0  0  0  0  0  0  0  0  0  0  0  0
   -6.2505   -0.5758   -0.0886 C   0  0  0  0  0  0  0  0  0  0  0  0
   -4.8776   -0.0498   -0.0905 N   0  0  0  0  0  0  0  0  0  0  0  0
   -4.9352    1.4216   -0.1613 C   0  0  0  0  0  0  0  0  0  0  0  0
   -3.7527   -0.7901   -0.0356 C   0  0  0  0  0  0  0  0  0  0  0  0
   -3.8251   -2.0044    0.0217 O   0  0  0  0  0  0  0  0  0  0  0  0
   -2.4871   -0.1562   -0.0445 C   0  0  0  0  0  0  0  0  0  0  0  0
   -1.3537   -0.9021    0.0108 C   0  0  0  0  0  0  0  0  0  0  0  0
   -0.0926   -0.2704    0.0019 C   0  0  0  0  0  0  0  0  0  0  0  0
    1.0374   -1.0142    0.0571 C   0  0  0  0  0  0  0  0  0  0  0  0
    2.3508   -0.3564    0.0479 C   0  0  0  0  0  0  0  0  0  0  0  0
    3.5208   -1.1231    0.1048 C   0  0  0  0  0  0  0  0  0  0  0  0
    4.7528   -0.4998    0.0959 C   0  0  0  0  0  0  0  0  0  0  0  0
    4.8304    0.8925    0.0303 C   0  0  0  0  0  0  0  0  0  0  0  0
    3.6697    1.6532   -0.0262 C   0  0  0  0  0  0  0  0  0  0  0  0
    2.4369    1.0393   -0.0237 C   0  0  0  0  0  0  0  0  0  0  0  0
    6.1455    1.2550    0.0359 O   0  0  0  0  0  0  0  0  0  0  0  0
    6.8754    0.0628   -0.3083 C   0  0  0  0  0  0  0  0  0  0  0  0
    6.0206   -1.0047    0.1418 O   0  0  0  0  0  0  0  0  0  0  0  0
   -6.6636    2.7543    0.0255 H   0  0  0  0  0  0  0  0  0  0  0  0
   -6.3133    1.7921    1.5006 H   0  0  0  0  0  0  0  0  0  0  0  0
   -8.0690    0.4708    0.5093 H   0  0  0  0  0  0  0  0  0  0  0  0
   -7.5198    0.8401   -1.1584 H   0  0  0  0  0  0  0  0  0  0  0  0
   -6.4257   -1.1514    0.8203 H   0  0  0  0  0  0  0  0  0  0  0  0
   -6.4075   -1.2052   -0.9646 H   0  0  0  0  0  0  0  0  0  0  0  0
   -4.8491    1.7553   -1.1954 H   0  0  0  0  0  0  0  0  0  0  0  0
   -4.1453    1.8619    0.4473 H   0  0  0  0  0  0  0  0  0  0  0  0
   -2.4228    0.9207   -0.0953 H   0  0  0  0  0  0  0  0  0  0  0  0
   -1.4180   -1.9790    0.0616 H   0  0  0  0  0  0  0  0  0  0  0  0
   -0.0284    0.8065   -0.0489 H   0  0  0  0  0  0  0  0  0  0  0  0
    0.9732   -2.0910    0.1079 H   0  0  0  0  0  0  0  0  0  0  0  0
    3.4598   -2.2001    0.1560 H   0  0  0  0  0  0  0  0  0  0  0  0
    3.7342    2.7301   -0.0766 H   0  0  0  0  0  0  0  0  0  0  0  0
    1.5369    1.6346   -0.0678 H   0  0  0  0  0  0  0  0  0  0  0  0
    7.0261    0.0040   -1.3863 H   0  0  0  0  0  0  0  0  0  0  0  0
    7.8312    0.0346    0.2150 H   0  0  0  0  0  0  0  0  0  0  0  0
  1  2  1  0  0  0  0
  2  3  1  0  0  0  0
  3  4  1  0  0  0  0
  4  5  1  0  0  0  0
  1  5  1  0  0  0  0
  4  6  1  0  0  0  0
  6  7  2  0  0  0  0
  6  8  1  0  0  0  0
  8  9  2  0  0  0  0
  9 10  1  0  0  0  0
 10 11  2  0  0  0  0
 11 12  1  0  0  0  0
 12 13  2  0  0  0  0
 13 14  1  0  0  0  0
 14 15  2  0  0  0  0
 15 16  1  0  0  0  0
 16 17  2  0  0  0  0
 12 17  1  0  0  0  0
 15 18  1  0  0  0  0
 18 19  1  0  0  0  0
 19 20  1  0  0  0  0
 14 20  1  0  0  0  0
  1 21  1  0  0  0  0
  1 22  1  0  0  0  0
  2 23  1  0  0  0  0
  2 24  1  0  0  0  0
  3 25  1  0  0  0  0
  3 26  1  0  0  0  0
  5 27  1  0  0  0  0
  5 28  1  0  0  0  0
  8 29  1  0  0  0  0
  9 30  1  0  0  0  0
 10 31  1  0  0  0  0
 11 32  1  0  0  0  0
 13 33  1  0  0  0  0
 16 34  1  0  0  0  0
 17 35  1  0  0  0  0
 19 36  1  0  0  0  0
 19 37  1  0  0  0  0
M  END
$$$$
