C13H13NO2
APtclcactv06231803063D 0   0.00000     0.00000
 
 29 30  0  0  0  0  0  0  0  0999 V2000
   -1.2571    1.3284    1.0292 C   0  0  0  0  0  0  0  0  0  0  0  0
   -0.7671   -0.0938    0.9084 C   0  0  0  0  0  0  0  0  0  0  0  0
   -1.4849   -0.9901    0.2002 C   0  0  0  0  0  0  0  0  0  0  0  0
   -2.7185   -0.5626   -0.4906 C   0  0  0  0  0  0  0  0  0  0  0  0
   -2.9716    0.7436   -0.6388 C   0  0  0  0  0  0  0  0  0  0  0  0
   -2.0525    1.6655   -0.1569 N   0  0  0  0  0  0  0  0  0  0  0  0
   -1.8851    2.9152   -0.8012 O   0  0  0  0  0  0  0  0  0  0  0  0
   -1.0396   -2.3904    0.1158 C   0  0  0  0  0  0  0  0  0  0  0  0
   -1.6860   -3.1948   -0.5212 O   0  0  0  0  0  0  0  0  0  0  0  0
    0.5183   -0.5107    1.5754 C   0  0  0  0  0  0  0  0  0  0  0  0
    1.6807   -0.1877    0.6723 C   0  0  0  0  0  0  0  0  0  0  0  0
    2.3039    1.0430    0.7612 C   0  0  0  0  0  0  0  0  0  0  0  0
    3.3700    1.3393   -0.0672 C   0  0  0  0  0  0  0  0  0  0  0  0
    3.8133    0.4047   -0.9843 C   0  0  0  0  0  0  0  0  0  0  0  0
    3.1907   -0.8263   -1.0726 C   0  0  0  0  0  0  0  0  0  0  0  0
    2.1273   -1.1242   -0.2411 C   0  0  0  0  0  0  0  0  0  0  0  0
   -1.8747    1.4264    1.9220 H   0  0  0  0  0  0  0  0  0  0  0  0
   -0.4038    2.0030    1.0993 H   0  0  0  0  0  0  0  0  0  0  0  0
   -3.4106   -1.2980   -0.8734 H   0  0  0  0  0  0  0  0  0  0  0  0
   -3.8766    1.0750   -1.1260 H   0  0  0  0  0  0  0  0  0  0  0  0
   -2.4556    3.0399   -1.5719 H   0  0  0  0  0  0  0  0  0  0  0  0
   -0.1373   -2.7015    0.6211 H   0  0  0  0  0  0  0  0  0  0  0  0
    0.6298    0.0265    2.5173 H   0  0  0  0  0  0  0  0  0  0  0  0
    0.4958   -1.5831    1.7693 H   0  0  0  0  0  0  0  0  0  0  0  0
    1.9575    1.7731    1.4777 H   0  0  0  0  0  0  0  0  0  0  0  0
    3.8565    2.3011    0.0017 H   0  0  0  0  0  0  0  0  0  0  0  0
    4.6458    0.6365   -1.6321 H   0  0  0  0  0  0  0  0  0  0  0  0
    3.5368   -1.5563   -1.7893 H   0  0  0  0  0  0  0  0  0  0  0  0
    1.6409   -2.0860   -0.3101 H   0  0  0  0  0  0  0  0  0  0  0  0
  1  2  1  0  0  0  0
  2  3  2  0  0  0  0
  3  4  1  0  0  0  0
  4  5  2  0  0  0  0
  5  6  1  0  0  0  0
  1  6  1  0  0  0  0
  6  7  1  0  0  0  0
  3  8  1  0  0  0  0
  8  9  2  0  0  0  0
  2 10  1  0  0  0  0
 10 11  1  0  0  0  0
 11 12  2  0  0  0  0
 12 13  1  0  0  0  0
 13 14  2  0  0  0  0
 14 15  1  0  0  0  0
 15 16  2  0  0  0  0
 11 16  1  0  0  0  0
  1 17  1  0  0  0  0
  1 18  1  0  0  0  0
  4 19  1  0  0  0  0
  5 20  1  0  0  0  0
  7 21  1  0  0  0  0
  8 22  1  0  0  0  0
 10 23  1  0  0  0  0
 10 24  1  0  0  0  0
 12 25  1  0  0  0  0
 13 26  1  0  0  0  0
 14 27  1  0  0  0  0
 15 28  1  0  0  0  0
 16 29  1  0  0  0  0
M  END
$$$$
