C12H16O3
APtclcactv06231803063D 0   0.00000     0.00000
 
 31 31  0  0  0  0  0  0  0  0999 V2000
   -0.8311    3.4465    0.1245 C   0  0  0  0  0  0  0  0  0  0  0  0
   -1.4110    2.1545    0.3155 O   0  0  0  0  0  0  0  0  0  0  0  0
   -0.5739    1.0854    0.2435 C   0  0  0  0  0  0  0  0  0  0  0  0
    0.7765    1.2782   -0.0057 C   0  0  0  0  0  0  0  0  0  0  0  0
    1.6288    0.1884   -0.0789 C   0  0  0  0  0  0  0  0  0  0  0  0
    1.1276   -1.0975    0.0979 C   0  0  0  0  0  0  0  0  0  0  0  0
   -0.2221   -1.2858    0.3467 C   0  0  0  0  0  0  0  0  0  0  0  0
   -1.0701   -0.1970    0.4251 C   0  0  0  0  0  0  0  0  0  0  0  0
   -2.5380   -0.4044    0.6963 C   0  0  0  0  0  0  0  0  0  0  0  0
   -3.2897   -0.4413   -0.6093 C   0  0  0  0  0  0  0  0  0  0  0  0
   -4.0521   -1.4670   -0.8974 C   0  0  0  0  0  0  0  0  0  0  0  0
    1.9627   -2.1694    0.0260 O   0  0  0  0  0  0  0  0  0  0  0  0
    1.3796   -3.4600    0.2175 C   0  0  0  0  0  0  0  0  0  0  0  0
    2.9534    0.3752   -0.3237 O   0  0  0  0  0  0  0  0  0  0  0  0
    3.3977    1.7224   -0.4953 C   0  0  0  0  0  0  0  0  0  0  0  0
   -0.3752    3.4976   -0.8642 H   0  0  0  0  0  0  0  0  0  0  0  0
   -1.6062    4.2084    0.2070 H   0  0  0  0  0  0  0  0  0  0  0  0
   -0.0697    3.6190    0.8851 H   0  0  0  0  0  0  0  0  0  0  0  0
    1.1635    2.2771   -0.1430 H   0  0  0  0  0  0  0  0  0  0  0  0
   -0.6114   -2.2839    0.4836 H   0  0  0  0  0  0  0  0  0  0  0  0
   -2.6802   -1.3473    1.2242 H   0  0  0  0  0  0  0  0  0  0  0  0
   -2.9136    0.4152    1.3088 H   0  0  0  0  0  0  0  0  0  0  0  0
   -3.2000    0.3778   -1.3075 H   0  0  0  0  0  0  0  0  0  0  0  0
   -4.1418   -2.2861   -0.1993 H   0  0  0  0  0  0  0  0  0  0  0  0
   -4.5908   -1.4934   -1.8331 H   0  0  0  0  0  0  0  0  0  0  0  0
    0.9238   -3.5096    1.2063 H   0  0  0  0  0  0  0  0  0  0  0  0
    0.6176   -3.6308   -0.5429 H   0  0  0  0  0  0  0  0  0  0  0  0
    2.1528   -4.2238    0.1351 H   0  0  0  0  0  0  0  0  0  0  0  0
    2.8774    2.1717   -1.3412 H   0  0  0  0  0  0  0  0  0  0  0  0
    3.1834    2.2935    0.4081 H   0  0  0  0  0  0  0  0  0  0  0  0
    4.4713    1.7297   -0.6836 H   0  0  0  0  0  0  0  0  0  0  0  0
  1  2  1  0  0  0  0
  2  3  1  0  0  0  0
  3  4  2  0  0  0  0
  4  5  1  0  0  0  0
  5  6  2  0  0  0  0
  6  7  1  0  0  0  0
  7  8  2  0  0  0  0
  3  8  1  0  0  0  0
  8  9  1  0  0  0  0
  9 10  1  0  0  0  0
 10 11  2  0  0  0  0
  6 12  1  0  0  0  0
 12 13  1  0  0  0  0
  5 14  1  0  0  0  0
 14 15  1  0  0  0  0
  1 16  1  0  0  0  0
  1 17  1  0  0  0  0
  1 18  1  0  0  0  0
  4 19  1  0  0  0  0
  7 20  1  0  0  0  0
  9 21  1  0  0  0  0
  9 22  1  0  0  0  0
 10 23  1  0  0  0  0
 11 24  1  0  0  0  0
 11 25  1  0  0  0  0
 13 26  1  0  0  0  0
 13 27  1  0  0  0  0
 13 28  1  0  0  0  0
 15 29  1  0  0  0  0
 15 30  1  0  0  0  0
 15 31  1  0  0  0  0
M  END
$$$$
