C18H18O5
APtclcactv06231803073D 0   0.00000     0.00000
 
 41 42  0  0  0  0  0  0  0  0999 V2000
    6.6619    2.6451    0.0045 C   0  0  0  0  0  0  0  0  0  0  0  0
    6.9633    1.2482   -0.0027 O   0  0  0  0  0  0  0  0  0  0  0  0
    5.9091    0.3892   -0.0060 C   0  0  0  0  0  0  0  0  0  0  0  0
    6.1317   -0.9874   -0.0131 C   0  0  0  0  0  0  0  0  0  0  0  0
    5.0583   -1.8685   -0.0166 C   0  0  0  0  0  0  0  0  0  0  0  0
    3.7677   -1.3875   -0.0130 C   0  0  0  0  0  0  0  0  0  0  0  0
    3.5359   -0.0071   -0.0054 C   0  0  0  0  0  0  0  0  0  0  0  0
    4.6186    0.8802    0.0033 C   0  0  0  0  0  0  0  0  0  0  0  0
    2.1600    0.5091   -0.0016 C   0  0  0  0  0  0  0  0  0  0  0  0
    1.1165   -0.3490   -0.0055 C   0  0  0  0  0  0  0  0  0  0  0  0
   -0.2109    0.1490   -0.0018 C   0  0  0  0  0  0  0  0  0  0  0  0
   -0.4103    1.3490    0.0048 O   0  0  0  0  0  0  0  0  0  0  0  0
   -1.2530   -0.7081   -0.0056 O   0  0  0  0  0  0  0  0  0  0  0  0
   -2.5629   -0.1369   -0.0016 C   0  0  0  0  0  0  0  0  0  0  0  0
   -3.6070   -1.2552   -0.0068 C   0  0  0  0  0  0  0  0  0  0  0  0
   -4.9883   -0.6527   -0.0025 C   0  0  0  0  0  0  0  0  0  0  0  0
   -5.6218   -0.3704   -1.1987 C   0  0  0  0  0  0  0  0  0  0  0  0
   -6.8881    0.1818   -1.1974 C   0  0  0  0  0  0  0  0  0  0  0  0
   -7.5241    0.4532    0.0053 C   0  0  0  0  0  0  0  0  0  0  0  0
   -6.8863    0.1690    1.2041 C   0  0  0  0  0  0  0  0  0  0  0  0
   -5.6223   -0.3885    1.1975 C   0  0  0  0  0  0  0  0  0  0  0  0
   -8.7696    0.9969    0.0091 O   0  0  0  0  0  0  0  0  0  0  0  0
    7.4021   -1.4678   -0.0171 O   0  0  0  0  0  0  0  0  0  0  0  0
    7.5898    3.2170    0.0066 H   0  0  0  0  0  0  0  0  0  0  0  0
    6.0822    2.8963   -0.8837 H   0  0  0  0  0  0  0  0  0  0  0  0
    6.0838    2.8874    0.8963 H   0  0  0  0  0  0  0  0  0  0  0  0
    5.2360   -2.9338   -0.0224 H   0  0  0  0  0  0  0  0  0  0  0  0
    2.9349   -2.0751   -0.0164 H   0  0  0  0  0  0  0  0  0  0  0  0
    4.4449    1.9462    0.0095 H   0  0  0  0  0  0  0  0  0  0  0  0
    1.9829    1.5745    0.0042 H   0  0  0  0  0  0  0  0  0  0  0  0
    1.2936   -1.4144   -0.0113 H   0  0  0  0  0  0  0  0  0  0  0  0
   -2.6898    0.4746    0.8918 H   0  0  0  0  0  0  0  0  0  0  0  0
   -2.6911    0.4841   -0.8882 H   0  0  0  0  0  0  0  0  0  0  0  0
   -3.4801   -1.8667   -0.9002 H   0  0  0  0  0  0  0  0  0  0  0  0
   -3.4787   -1.8762    0.8798 H   0  0  0  0  0  0  0  0  0  0  0  0
   -5.1262   -0.5815   -2.1347 H   0  0  0  0  0  0  0  0  0  0  0  0
   -7.3824    0.4025   -2.1320 H   0  0  0  0  0  0  0  0  0  0  0  0
   -7.3793    0.3793    2.1417 H   0  0  0  0  0  0  0  0  0  0  0  0
   -5.1254   -0.6099    2.1304 H   0  0  0  0  0  0  0  0  0  0  0  0
   -9.4835    0.3446    0.0060 H   0  0  0  0  0  0  0  0  0  0  0  0
    7.7711   -1.6113    0.8651 H   0  0  0  0  0  0  0  0  0  0  0  0
  1  2  1  0  0  0  0
  2  3  1  0  0  0  0
  3  4  2  0  0  0  0
  4  5  1  0  0  0  0
  5  6  2  0  0  0  0
  6  7  1  0  0  0  0
  7  8  2  0  0  0  0
  3  8  1  0  0  0  0
  7  9  1  0  0  0  0
  9 10  2  0  0  0  0
 10 11  1  0  0  0  0
 11 12  2  0  0  0  0
 11 13  1  0  0  0  0
 13 14  1  0  0  0  0
 14 15  1  0  0  0  0
 15 16  1  0  0  0  0
 16 17  2  0  0  0  0
 17 18  1  0  0  0  0
 18 19  2  0  0  0  0
 19 20  1  0  0  0  0
 20 21  2  0  0  0  0
 16 21  1  0  0  0  0
 19 22  1  0  0  0  0
  4 23  1  0  0  0  0
  1 24  1  0  0  0  0
  1 25  1  0  0  0  0
  1 26  1  0  0  0  0
  5 27  1  0  0  0  0
  6 28  1  0  0  0  0
  8 29  1  0  0  0  0
  9 30  1  0  0  0  0
 10 31  1  0  0  0  0
 14 32  1  0  0  0  0
 14 33  1  0  0  0  0
 15 34  1  0  0  0  0
 15 35  1  0  0  0  0
 17 36  1  0  0  0  0
 18 37  1  0  0  0  0
 20 38  1  0  0  0  0
 21 39  1  0  0  0  0
 22 40  1  0  0  0  0
 23 41  1  0  0  0  0
M  END
$$$$
