C9H8O3
APtclcactv06231803073D 0   0.00000     0.00000
 
 20 20  0  0  0  0  0  0  0  0999 V2000
   -0.8550   -0.9651   -0.0119 C   0  0  0  0  0  0  0  0  0  0  0  0
   -2.2061   -1.2284   -0.0166 C   0  0  0  0  0  0  0  0  0  0  0  0
   -3.1208   -0.1814   -0.0156 C   0  0  0  0  0  0  0  0  0  0  0  0
   -2.6768    1.1360   -0.0098 C   0  0  0  0  0  0  0  0  0  0  0  0
   -1.3279    1.4103   -0.0051 C   0  0  0  0  0  0  0  0  0  0  0  0
   -0.4026    0.3597   -0.0056 C   0  0  0  0  0  0  0  0  0  0  0  0
    1.0387    0.6467   -0.0001 C   0  0  0  0  0  0  0  0  0  0  0  0
    1.9296   -0.3689   -0.0006 C   0  0  0  0  0  0  0  0  0  0  0  0
    3.3201   -0.0920    0.0047 C   0  0  0  0  0  0  0  0  0  0  0  0
    3.7109    1.0599    0.0097 O   0  0  0  0  0  0  0  0  0  0  0  0
    4.2099   -1.1063    0.0042 O   0  0  0  0  0  0  0  0  0  0  0  0
   -4.4520   -0.4465   -0.0207 O   0  0  0  0  0  0  0  0  0  0  0  0
   -0.1452   -1.7791   -0.0085 H   0  0  0  0  0  0  0  0  0  0  0  0
   -2.5561   -2.2501   -0.0214 H   0  0  0  0  0  0  0  0  0  0  0  0
   -3.3915    1.9457   -0.0094 H   0  0  0  0  0  0  0  0  0  0  0  0
   -0.9840    2.4341   -0.0010 H   0  0  0  0  0  0  0  0  0  0  0  0
    1.3856    1.6694    0.0044 H   0  0  0  0  0  0  0  0  0  0  0  0
    1.5826   -1.3916   -0.0051 H   0  0  0  0  0  0  0  0  0  0  0  0
    5.1334   -0.8194    0.0081 H   0  0  0  0  0  0  0  0  0  0  0  0
   -4.8405   -0.5265    0.8613 H   0  0  0  0  0  0  0  0  0  0  0  0
  1  2  2  0  0  0  0
  2  3  1  0  0  0  0
  3  4  2  0  0  0  0
  4  5  1  0  0  0  0
  5  6  2  0  0  0  0
  1  6  1  0  0  0  0
  6  7  1  0  0  0  0
  7  8  2  0  0  0  0
  8  9  1  0  0  0  0
  9 10  2  0  0  0  0
  9 11  1  0  0  0  0
  3 12  1  0  0  0  0
  1 13  1  0  0  0  0
  2 14  1  0  0  0  0
  4 15  1  0  0  0  0
  5 16  1  0  0  0  0
  7 17  1  0  0  0  0
  8 18  1  0  0  0  0
 11 19  1  0  0  0  0
 12 20  1  0  0  0  0
M  END
$$$$
