C9H8O3
APtclcactv06231803073D 0   0.00000     0.00000
 
 20 20  0  0  0  0  0  0  0  0999 V2000
    2.0675   -1.8040    0.0027 C   0  0  0  0  0  0  0  0  0  0  0  0
    0.7665   -1.3470    0.0032 C   0  0  0  0  0  0  0  0  0  0  0  0
    0.5096    0.0281   -0.0067 C   0  0  0  0  0  0  0  0  0  0  0  0
    1.5756    0.9318   -0.0171 C   0  0  0  0  0  0  0  0  0  0  0  0
    2.8768    0.4597   -0.0175 C   0  0  0  0  0  0  0  0  0  0  0  0
    3.1208   -0.9073   -0.0076 C   0  0  0  0  0  0  0  0  0  0  0  0
    3.9166    1.3349   -0.0275 O   0  0  0  0  0  0  0  0  0  0  0  0
   -0.8772    0.5209   -0.0067 C   0  0  0  0  0  0  0  0  0  0  0  0
   -1.9041   -0.3541    0.0029 C   0  0  0  0  0  0  0  0  0  0  0  0
   -3.2820    0.1356    0.0029 C   0  0  0  0  0  0  0  0  0  0  0  0
   -3.5024    1.3316   -0.0057 O   0  0  0  0  0  0  0  0  0  0  0  0
   -4.3088   -0.7394    0.0125 O   0  0  0  0  0  0  0  0  0  0  0  0
    2.2648   -2.8658    0.0148 H   0  0  0  0  0  0  0  0  0  0  0  0
   -0.0533   -2.0500    0.0109 H   0  0  0  0  0  0  0  0  0  0  0  0
    1.3848    1.9948   -0.0251 H   0  0  0  0  0  0  0  0  0  0  0  0
    4.1373   -1.2720   -0.0079 H   0  0  0  0  0  0  0  0  0  0  0  0
    4.2203    1.5950    0.8529 H   0  0  0  0  0  0  0  0  0  0  0  0
   -1.0729    1.5830   -0.0144 H   0  0  0  0  0  0  0  0  0  0  0  0
   -1.7084   -1.4162    0.0105 H   0  0  0  0  0  0  0  0  0  0  0  0
   -5.1812   -0.3221    0.0116 H   0  0  0  0  0  0  0  0  0  0  0  0
  1  2  2  0  0  0  0
  2  3  1  0  0  0  0
  3  4  2  0  0  0  0
  4  5  1  0  0  0  0
  5  6  2  0  0  0  0
  1  6  1  0  0  0  0
  5  7  1  0  0  0  0
  3  8  1  0  0  0  0
  8  9  2  0  0  0  0
  9 10  1  0  0  0  0
 10 11  2  0  0  0  0
 10 12  1  0  0  0  0
  1 13  1  0  0  0  0
  2 14  1  0  0  0  0
  4 15  1  0  0  0  0
  6 16  1  0  0  0  0
  7 17  1  0  0  0  0
  8 18  1  0  0  0  0
  9 19  1  0  0  0  0
 12 20  1  0  0  0  0
M  END
$$$$
