C10H12O
APtclcactv06231803073D 0   0.00000     0.00000
 
 23 23  0  0  0  0  0  0  0  0999 V2000
    4.6363    0.5365   -0.0005 C   0  0  0  0  0  0  0  0  0  0  0  0
    3.1316    0.6209   -0.0009 C   0  0  0  0  0  0  0  0  0  0  0  0
    2.4054   -0.4885   -0.0002 C   0  0  0  0  0  0  0  0  0  0  0  0
    0.9300   -0.4058   -0.0005 C   0  0  0  0  0  0  0  0  0  0  0  0
    0.1638   -1.5725    0.0001 C   0  0  0  0  0  0  0  0  0  0  0  0
   -1.2124   -1.4912    0.0003 C   0  0  0  0  0  0  0  0  0  0  0  0
   -1.8364   -0.2508   -0.0002 C   0  0  0  0  0  0  0  0  0  0  0  0
   -1.0776    0.9122   -0.0014 C   0  0  0  0  0  0  0  0  0  0  0  0
    0.2990    0.8392    0.0043 C   0  0  0  0  0  0  0  0  0  0  0  0
   -3.1929   -0.1747   -0.0001 O   0  0  0  0  0  0  0  0  0  0  0  0
   -3.7694    1.1328   -0.0006 C   0  0  0  0  0  0  0  0  0  0  0  0
    5.0565    1.5423   -0.0011 H   0  0  0  0  0  0  0  0  0  0  0  0
    4.9701    0.0038    0.8899 H   0  0  0  0  0  0  0  0  0  0  0  0
    4.9704    0.0026   -0.8900 H   0  0  0  0  0  0  0  0  0  0  0  0
    2.6448    1.5849   -0.0016 H   0  0  0  0  0  0  0  0  0  0  0  0
    2.8922   -1.4526    0.0006 H   0  0  0  0  0  0  0  0  0  0  0  0
    0.6484   -2.5377    0.0002 H   0  0  0  0  0  0  0  0  0  0  0  0
   -1.8059   -2.3935    0.0005 H   0  0  0  0  0  0  0  0  0  0  0  0
   -1.5666    1.8752   -0.0025 H   0  0  0  0  0  0  0  0  0  0  0  0
    0.8885    1.7441    0.0034 H   0  0  0  0  0  0  0  0  0  0  0  0
   -3.4459    1.6722   -0.8909 H   0  0  0  0  0  0  0  0  0  0  0  0
   -4.8563    1.0507   -0.0004 H   0  0  0  0  0  0  0  0  0  0  0  0
   -3.4457    1.6730    0.8890 H   0  0  0  0  0  0  0  0  0  0  0  0
  1  2  1  0  0  0  0
  2  3  2  0  0  0  0
  3  4  1  0  0  0  0
  4  5  2  0  0  0  0
  5  6  1  0  0  0  0
  6  7  2  0  0  0  0
  7  8  1  0  0  0  0
  8  9  2  0  0  0  0
  4  9  1  0  0  0  0
  7 10  1  0  0  0  0
 10 11  1  0  0  0  0
  1 12  1  0  0  0  0
  1 13  1  0  0  0  0
  1 14  1  0  0  0  0
  2 15  1  0  0  0  0
  3 16  1  0  0  0  0
  5 17  1  0  0  0  0
  6 18  1  0  0  0  0
  8 19  1  0  0  0  0
  9 20  1  0  0  0  0
 11 21  1  0  0  0  0
 11 22  1  0  0  0  0
 11 23  1  0  0  0  0
M  END
$$$$
