C10H12O3
APtclcactv06231803073D 0   0.00000     0.00000
 
 25 25  0  0  0  0  0  0  0  0999 V2000
    5.2304   -0.1026   -0.0617 C   0  0  0  0  0  0  0  0  0  0  0  0
    3.7964    0.2944    0.1775 C   0  0  0  0  0  0  0  0  0  0  0  0
    3.5434    1.3064    0.7872 O   0  0  0  0  0  0  0  0  0  0  0  0
    2.8003   -0.4762   -0.2868 O   0  0  0  0  0  0  0  0  0  0  0  0
    1.4439   -0.0322   -0.0194 C   0  0  0  0  0  0  0  0  0  0  0  0
    0.4526   -1.0304   -0.6208 C   0  0  0  0  0  0  0  0  0  0  0  0
   -0.9551   -0.5697   -0.3432 C   0  0  0  0  0  0  0  0  0  0  0  0
   -1.5998    0.2597   -1.2423 C   0  0  0  0  0  0  0  0  0  0  0  0
   -2.8902    0.6834   -0.9902 C   0  0  0  0  0  0  0  0  0  0  0  0
   -3.5393    0.2762    0.1663 C   0  0  0  0  0  0  0  0  0  0  0  0
   -2.8903   -0.5559    1.0669 C   0  0  0  0  0  0  0  0  0  0  0  0
   -1.6019   -0.9815    0.8074 C   0  0  0  0  0  0  0  0  0  0  0  0
   -4.8086    0.6921    0.4169 O   0  0  0  0  0  0  0  0  0  0  0  0
    5.5761   -0.7287    0.7609 H   0  0  0  0  0  0  0  0  0  0  0  0
    5.3024   -0.6585   -0.9965 H   0  0  0  0  0  0  0  0  0  0  0  0
    5.8498    0.7922   -0.1225 H   0  0  0  0  0  0  0  0  0  0  0  0
    1.2879    0.0307    1.0576 H   0  0  0  0  0  0  0  0  0  0  0  0
    1.2880    0.9493   -0.4671 H   0  0  0  0  0  0  0  0  0  0  0  0
    0.6086   -1.0934   -1.6978 H   0  0  0  0  0  0  0  0  0  0  0  0
    0.6086   -2.0120   -0.1731 H   0  0  0  0  0  0  0  0  0  0  0  0
   -1.0939    0.5767   -2.1423 H   0  0  0  0  0  0  0  0  0  0  0  0
   -3.3932    1.3315   -1.6926 H   0  0  0  0  0  0  0  0  0  0  0  0
   -3.3934   -0.8743    1.9679 H   0  0  0  0  0  0  0  0  0  0  0  0
   -1.0962   -1.6293    1.5081 H   0  0  0  0  0  0  0  0  0  0  0  0
   -5.4916    0.1058    0.0634 H   0  0  0  0  0  0  0  0  0  0  0  0
  1  2  1  0  0  0  0
  2  3  2  0  0  0  0
  2  4  1  0  0  0  0
  4  5  1  0  0  0  0
  5  6  1  0  0  0  0
  6  7  1  0  0  0  0
  7  8  2  0  0  0  0
  8  9  1  0  0  0  0
  9 10  2  0  0  0  0
 10 11  1  0  0  0  0
 11 12  2  0  0  0  0
  7 12  1  0  0  0  0
 10 13  1  0  0  0  0
  1 14  1  0  0  0  0
  1 15  1  0  0  0  0
  1 16  1  0  0  0  0
  5 17  1  0  0  0  0
  5 18  1  0  0  0  0
  6 19  1  0  0  0  0
  6 20  1  0  0  0  0
  8 21  1  0  0  0  0
  9 22  1  0  0  0  0
 11 23  1  0  0  0  0
 12 24  1  0  0  0  0
 13 25  1  0  0  0  0
M  END
$$$$
