C13H20O
APtclcactv06231803073D 0   0.00000     0.00000
 
 34 34  0  0  0  0  0  0  0  0999 V2000
    0.2505   -2.2879   -0.5460 C   0  0  0  0  0  0  0  0  0  0  0  0
   -0.8634   -1.3068   -0.2855 C   0  0  0  0  0  0  0  0  0  0  0  0
   -0.5614   -0.0212   -0.2292 C   0  0  0  0  0  0  0  0  0  0  0  0
   -1.5690    1.0605    0.0313 C   0  0  0  0  0  0  0  0  0  0  0  0
   -2.9843    0.5300   -0.2062 C   0  0  0  0  0  0  0  0  0  0  0  0
   -3.1439   -0.7912    0.5559 C   0  0  0  0  0  0  0  0  0  0  0  0
   -2.2539   -1.8443   -0.1108 C   0  0  0  0  0  0  0  0  0  0  0  0
   -1.4414    1.5341    1.4806 C   0  0  0  0  0  0  0  0  0  0  0  0
   -1.3040    2.2377   -0.9093 C   0  0  0  0  0  0  0  0  0  0  0  0
    0.8320    0.3690   -0.4315 C   0  0  0  0  0  0  0  0  0  0  0  0
    1.8032   -0.1439    0.3662 C   0  0  0  0  0  0  0  0  0  0  0  0
    3.1567    0.1300    0.0924 C   0  0  0  0  0  0  0  0  0  0  0  0
    3.4555    0.8253   -0.8577 O   0  0  0  0  0  0  0  0  0  0  0  0
    4.2349   -0.4394    0.9780 C   0  0  0  0  0  0  0  0  0  0  0  0
    0.7425   -2.5370    0.3942 H   0  0  0  0  0  0  0  0  0  0  0  0
   -0.1601   -3.1936   -0.9924 H   0  0  0  0  0  0  0  0  0  0  0  0
    0.9747   -1.8427   -1.2282 H   0  0  0  0  0  0  0  0  0  0  0  0
   -3.7127    1.2538    0.1594 H   0  0  0  0  0  0  0  0  0  0  0  0
   -3.1372    0.3588   -1.2717 H   0  0  0  0  0  0  0  0  0  0  0  0
   -2.8400   -0.6543    1.5937 H   0  0  0  0  0  0  0  0  0  0  0  0
   -4.1843   -1.1138    0.5156 H   0  0  0  0  0  0  0  0  0  0  0  0
   -2.6708   -2.1066   -1.0831 H   0  0  0  0  0  0  0  0  0  0  0  0
   -2.2165   -2.7351    0.5163 H   0  0  0  0  0  0  0  0  0  0  0  0
   -0.4372    1.9235    1.6485 H   0  0  0  0  0  0  0  0  0  0  0  0
   -2.1724    2.3198    1.6717 H   0  0  0  0  0  0  0  0  0  0  0  0
   -1.6236    0.6966    2.1539 H   0  0  0  0  0  0  0  0  0  0  0  0
   -1.4620    1.9216   -1.9404 H   0  0  0  0  0  0  0  0  0  0  0  0
   -1.9861    3.0539   -0.6710 H   0  0  0  0  0  0  0  0  0  0  0  0
   -0.2753    2.5764   -0.7867 H   0  0  0  0  0  0  0  0  0  0  0  0
    1.0893    1.0655   -1.2158 H   0  0  0  0  0  0  0  0  0  0  0  0
    1.5375   -0.7621    1.2110 H   0  0  0  0  0  0  0  0  0  0  0  0
    3.7785   -1.0317    1.7711 H   0  0  0  0  0  0  0  0  0  0  0  0
    4.8950   -1.0728    0.3855 H   0  0  0  0  0  0  0  0  0  0  0  0
    4.8110    0.3745    1.4182 H   0  0  0  0  0  0  0  0  0  0  0  0
  1  2  1  0  0  0  0
  2  3  2  0  0  0  0
  3  4  1  0  0  0  0
  4  5  1  0  0  0  0
  5  6  1  0  0  0  0
  6  7  1  0  0  0  0
  2  7  1  0  0  0  0
  4  8  1  0  0  0  0
  4  9  1  0  0  0  0
  3 10  1  0  0  0  0
 10 11  2  0  0  0  0
 11 12  1  0  0  0  0
 12 13  2  0  0  0  0
 12 14  1  0  0  0  0
  1 15  1  0  0  0  0
  1 16  1  0  0  0  0
  1 17  1  0  0  0  0
  5 18  1  0  0  0  0
  5 19  1  0  0  0  0
  6 20  1  0  0  0  0
  6 21  1  0  0  0  0
  7 22  1  0  0  0  0
  7 23  1  0  0  0  0
  8 24  1  0  0  0  0
  8 25  1  0  0  0  0
  8 26  1  0  0  0  0
  9 27  1  0  0  0  0
  9 28  1  0  0  0  0
  9 29  1  0  0  0  0
 10 30  1  0  0  0  0
 11 31  1  0  0  0  0
 14 32  1  0  0  0  0
 14 33  1  0  0  0  0
 14 34  1  0  0  0  0
M  END
$$$$
