C20H20O5
APtclcactv06231803073D 0   0.00000     0.00000
 
 45 46  0  0  0  0  0  0  0  0999 V2000
    6.1174   -1.6921    2.5522 C   0  0  0  0  0  0  0  0  0  0  0  0
    6.7556   -1.5492    1.2816 O   0  0  0  0  0  0  0  0  0  0  0  0
    6.1298   -0.7684    0.3606 C   0  0  0  0  0  0  0  0  0  0  0  0
    6.6949   -0.5853   -0.8977 C   0  0  0  0  0  0  0  0  0  0  0  0
    6.0534    0.2113   -1.8326 C   0  0  0  0  0  0  0  0  0  0  0  0
    4.8547    0.8220   -1.5143 C   0  0  0  0  0  0  0  0  0  0  0  0
    4.2935    0.6404   -0.2639 C   0  0  0  0  0  0  0  0  0  0  0  0
    4.9252   -0.1580    0.6713 C   0  0  0  0  0  0  0  0  0  0  0  0
    2.9869    1.3088    0.0780 C   0  0  0  0  0  0  0  0  0  0  0  0
    1.8274    0.3831   -0.2955 C   0  0  0  0  0  0  0  0  0  0  0  0
    0.5207    1.0516    0.0464 C   0  0  0  0  0  0  0  0  0  0  0  0
    0.5172    2.1627    0.5418 O   0  0  0  0  0  0  0  0  0  0  0  0
   -0.6839    0.3967   -0.2049 C   0  0  0  0  0  0  0  0  0  0  0  0
   -1.8838    1.0105    0.1091 C   0  0  0  0  0  0  0  0  0  0  0  0
   -3.1061    0.3460   -0.1459 C   0  0  0  0  0  0  0  0  0  0  0  0
   -4.2735    0.8993    0.2559 C   0  0  0  0  0  0  0  0  0  0  0  0
   -5.5312    0.1571    0.0970 C   0  0  0  0  0  0  0  0  0  0  0  0
   -6.7409    0.7275    0.5119 C   0  0  0  0  0  0  0  0  0  0  0  0
   -7.9165    0.0276    0.3607 C   0  0  0  0  0  0  0  0  0  0  0  0
   -7.9043   -1.2433   -0.2028 C   0  0  0  0  0  0  0  0  0  0  0  0
   -6.7061   -1.8143   -0.6166 C   0  0  0  0  0  0  0  0  0  0  0  0
   -5.5254   -1.1208   -0.4753 C   0  0  0  0  0  0  0  0  0  0  0  0
   -9.0665   -1.9293   -0.3493 O   0  0  0  0  0  0  0  0  0  0  0  0
   -1.8876    2.2457    0.6598 O   0  0  0  0  0  0  0  0  0  0  0  0
    7.8744   -1.1863   -1.2092 O   0  0  0  0  0  0  0  0  0  0  0  0
    6.0151   -0.7127    3.0195 H   0  0  0  0  0  0  0  0  0  0  0  0
    5.1305   -2.1342    2.4154 H   0  0  0  0  0  0  0  0  0  0  0  0
    6.7197   -2.3382    3.1907 H   0  0  0  0  0  0  0  0  0  0  0  0
    6.4900    0.3554   -2.8099 H   0  0  0  0  0  0  0  0  0  0  0  0
    4.3557    1.4426   -2.2438 H   0  0  0  0  0  0  0  0  0  0  0  0
    4.4848   -0.2983    1.6474 H   0  0  0  0  0  0  0  0  0  0  0  0
    2.9547    1.5182    1.1473 H   0  0  0  0  0  0  0  0  0  0  0  0
    2.9000    2.2424   -0.4777 H   0  0  0  0  0  0  0  0  0  0  0  0
    1.8595    0.1738   -1.3647 H   0  0  0  0  0  0  0  0  0  0  0  0
    1.9142   -0.5505    0.2603 H   0  0  0  0  0  0  0  0  0  0  0  0
   -0.6809   -0.5897   -0.6446 H   0  0  0  0  0  0  0  0  0  0  0  0
   -3.1075   -0.6030   -0.6613 H   0  0  0  0  0  0  0  0  0  0  0  0
   -4.2807    1.8867    0.6935 H   0  0  0  0  0  0  0  0  0  0  0  0
   -6.7514    1.7145    0.9502 H   0  0  0  0  0  0  0  0  0  0  0  0
   -8.8500    0.4664    0.6808 H   0  0  0  0  0  0  0  0  0  0  0  0
   -6.7022   -2.8020   -1.0534 H   0  0  0  0  0  0  0  0  0  0  0  0
   -4.5952   -1.5653   -0.7971 H   0  0  0  0  0  0  0  0  0  0  0  0
   -9.5115   -1.7736   -1.1935 H   0  0  0  0  0  0  0  0  0  0  0  0
   -2.7656    2.5590    0.9167 H   0  0  0  0  0  0  0  0  0  0  0  0
    7.7767   -2.0659   -1.5990 H   0  0  0  0  0  0  0  0  0  0  0  0
  1  2  1  0  0  0  0
  2  3  1  0  0  0  0
  3  4  2  0  0  0  0
  4  5  1  0  0  0  0
  5  6  2  0  0  0  0
  6  7  1  0  0  0  0
  7  8  2  0  0  0  0
  3  8  1  0  0  0  0
  7  9  1  0  0  0  0
  9 10  1  0  0  0  0
 10 11  1  0  0  0  0
 11 12  2  0  0  0  0
 11 13  1  0  0  0  0
 13 14  2  0  0  0  0
 14 15  1  0  0  0  0
 15 16  2  0  0  0  0
 16 17  1  0  0  0  0
 17 18  2  0  0  0  0
 18 19  1  0  0  0  0
 19 20  2  0  0  0  0
 20 21  1  0  0  0  0
 21 22  2  0  0  0  0
 17 22  1  0  0  0  0
 20 23  1  0  0  0  0
 14 24  1  0  0  0  0
  4 25  1  0  0  0  0
  1 26  1  0  0  0  0
  1 27  1  0  0  0  0
  1 28  1  0  0  0  0
  5 29  1  0  0  0  0
  6 30  1  0  0  0  0
  8 31  1  0  0  0  0
  9 32  1  0  0  0  0
  9 33  1  0  0  0  0
 10 34  1  0  0  0  0
 10 35  1  0  0  0  0
 13 36  1  0  0  0  0
 15 37  1  0  0  0  0
 16 38  1  0  0  0  0
 18 39  1  0  0  0  0
 19 40  1  0  0  0  0
 21 41  1  0  0  0  0
 22 42  1  0  0  0  0
 23 43  1  0  0  0  0
 24 44  1  0  0  0  0
 25 45  1  0  0  0  0
M  END
$$$$
