C40H56
APtclcactv06281817193D 0   0.00000     0.00000
 
 96 96  0  0  0  0  0  0  0  0999 V2000
  -12.1637    0.7951    2.8100 C   0  0  0  0  0  0  0  0  0  0  0  0
  -12.6194    0.7107    1.3760 C   0  0  0  0  0  0  0  0  0  0  0  0
  -13.6038    1.4657    1.0065 C   0  0  0  0  0  0  0  0  0  0  0  0
  -14.1731    1.4855   -0.3818 C   0  0  0  0  0  0  0  0  0  0  0  0
  -13.1913    0.8420   -1.3634 C   0  0  0  0  0  0  0  0  0  0  0  0
  -12.7428   -0.5069   -0.7868 C   0  0  0  0  0  0  0  0  0  0  0  0
  -11.8997   -0.2390    0.4637 C   0  0  0  0  0  0  0  0  0  0  0  0
  -10.5757    0.3542    0.0560 C   0  0  0  0  0  0  0  0  0  0  0  0
   -9.4379   -0.2759    0.3641 C   0  0  0  0  0  0  0  0  0  0  0  0
   -8.1925    0.2821   -0.0195 C   0  0  0  0  0  0  0  0  0  0  0  0
   -7.0356   -0.3586    0.2937 C   0  0  0  0  0  0  0  0  0  0  0  0
   -5.8005    0.1947   -0.0866 C   0  0  0  0  0  0  0  0  0  0  0  0
   -4.6385   -0.4487    0.2280 C   0  0  0  0  0  0  0  0  0  0  0  0
   -3.4070    0.1030   -0.1513 C   0  0  0  0  0  0  0  0  0  0  0  0
   -2.2349   -0.5460    0.1661 C   0  0  0  0  0  0  0  0  0  0  0  0
   -1.0048    0.0050   -0.2127 C   0  0  0  0  0  0  0  0  0  0  0  0
    0.1682   -0.6445    0.1049 C   0  0  0  0  0  0  0  0  0  0  0  0
    1.3978   -0.0937   -0.2738 C   0  0  0  0  0  0  0  0  0  0  0  0
    2.5708   -0.7432    0.0438 C   0  0  0  0  0  0  0  0  0  0  0  0
    2.5296   -2.0467    0.7990 C   0  0  0  0  0  0  0  0  0  0  0  0
    3.8008   -0.1922   -0.3350 C   0  0  0  0  0  0  0  0  0  0  0  0
    4.9729   -0.8412   -0.0176 C   0  0  0  0  0  0  0  0  0  0  0  0
    6.2044   -0.2896   -0.3969 C   0  0  0  0  0  0  0  0  0  0  0  0
    7.3664   -0.9330   -0.0822 C   0  0  0  0  0  0  0  0  0  0  0  0
    7.3252   -2.2365    0.6729 C   0  0  0  0  0  0  0  0  0  0  0  0
    8.6015   -0.3797   -0.4626 C   0  0  0  0  0  0  0  0  0  0  0  0
    9.7584   -1.0203   -0.1493 C   0  0  0  0  0  0  0  0  0  0  0  0
   11.0039   -0.4623   -0.5329 C   0  0  0  0  0  0  0  0  0  0  0  0
   12.1416   -1.0924   -0.2248 C   0  0  0  0  0  0  0  0  0  0  0  0
   12.1005   -2.3959    0.5303 C   0  0  0  0  0  0  0  0  0  0  0  0
   13.4656   -0.4992   -0.6326 C   0  0  0  0  0  0  0  0  0  0  0  0
   14.0346    0.3227    0.5256 C   0  0  0  0  0  0  0  0  0  0  0  0
   15.3586    0.9159    0.1179 C   0  0  0  0  0  0  0  0  0  0  0  0
   15.5289    2.2146    0.1392 C   0  0  0  0  0  0  0  0  0  0  0  0
   14.3649    3.1223    0.4428 C   0  0  0  0  0  0  0  0  0  0  0  0
   16.8888    2.8009   -0.1400 C   0  0  0  0  0  0  0  0  0  0  0  0
   -3.3659    1.4065   -0.9064 C   0  0  0  0  0  0  0  0  0  0  0  0
   -8.1513    1.5856   -0.7747 C   0  0  0  0  0  0  0  0  0  0  0  0
  -13.9704   -1.3416   -0.4165 C   0  0  0  0  0  0  0  0  0  0  0  0
  -11.9006   -1.2544   -1.8226 C   0  0  0  0  0  0  0  0  0  0  0  0
  -12.7737    1.5246    3.3427 H   0  0  0  0  0  0  0  0  0  0  0  0
  -12.2693   -0.1813    3.2828 H   0  0  0  0  0  0  0  0  0  0  0  0
  -11.1186    1.1030    2.8416 H   0  0  0  0  0  0  0  0  0  0  0  0
  -14.0428    2.1220    1.7433 H   0  0  0  0  0  0  0  0  0  0  0  0
  -15.1121    0.9322   -0.3951 H   0  0  0  0  0  0  0  0  0  0  0  0
  -14.3596    2.5168   -0.6812 H   0  0  0  0  0  0  0  0  0  0  0  0
  -13.6829    0.6849   -2.3234 H   0  0  0  0  0  0  0  0  0  0  0  0
  -12.3252    1.4909   -1.4937 H   0  0  0  0  0  0  0  0  0  0  0  0
  -11.7261   -1.1774    0.9903 H   0  0  0  0  0  0  0  0  0  0  0  0
  -10.5462    1.2883   -0.4852 H   0  0  0  0  0  0  0  0  0  0  0  0
   -9.4674   -1.2100    0.9052 H   0  0  0  0  0  0  0  0  0  0  0  0
   -7.0650   -1.2927    0.8349 H   0  0  0  0  0  0  0  0  0  0  0  0
   -5.7710    1.1289   -0.6278 H   0  0  0  0  0  0  0  0  0  0  0  0
   -4.6680   -1.3828    0.7692 H   0  0  0  0  0  0  0  0  0  0  0  0
   -2.2644   -1.4802    0.7073 H   0  0  0  0  0  0  0  0  0  0  0  0
   -0.9754    0.9392   -0.7539 H   0  0  0  0  0  0  0  0  0  0  0  0
    0.1387   -1.5787    0.6461 H   0  0  0  0  0  0  0  0  0  0  0  0
    1.4272    0.8405   -0.8150 H   0  0  0  0  0  0  0  0  0  0  0  0
    2.4760   -2.8746    0.0920 H   0  0  0  0  0  0  0  0  0  0  0  0
    3.4304   -2.1441    1.4050 H   0  0  0  0  0  0  0  0  0  0  0  0
    1.6527   -2.0642    1.4462 H   0  0  0  0  0  0  0  0  0  0  0  0
    3.8303    0.7420   -0.8762 H   0  0  0  0  0  0  0  0  0  0  0  0
    4.9434   -1.7754    0.5236 H   0  0  0  0  0  0  0  0  0  0  0  0
    6.2339    0.6446   -0.9380 H   0  0  0  0  0  0  0  0  0  0  0  0
    7.2716   -3.0644   -0.0340 H   0  0  0  0  0  0  0  0  0  0  0  0
    8.2260   -2.3339    1.2789 H   0  0  0  0  0  0  0  0  0  0  0  0
    6.4483   -2.2539    1.3201 H   0  0  0  0  0  0  0  0  0  0  0  0
    8.6310    0.5545   -1.0038 H   0  0  0  0  0  0  0  0  0  0  0  0
    9.7289   -1.9545    0.3918 H   0  0  0  0  0  0  0  0  0  0  0  0
   11.0333    0.4718   -1.0741 H   0  0  0  0  0  0  0  0  0  0  0  0
   12.0469   -3.2238   -0.1766 H   0  0  0  0  0  0  0  0  0  0  0  0
   13.0013   -2.4933    1.1363 H   0  0  0  0  0  0  0  0  0  0  0  0
   11.2236   -2.4133    1.1775 H   0  0  0  0  0  0  0  0  0  0  0  0
   14.1603   -1.3003   -0.8853 H   0  0  0  0  0  0  0  0  0  0  0  0
   13.3233    0.1453   -1.5000 H   0  0  0  0  0  0  0  0  0  0  0  0
   13.3400    1.1238    0.7783 H   0  0  0  0  0  0  0  0  0  0  0  0
   14.1769   -0.3218    1.3931 H   0  0  0  0  0  0  0  0  0  0  0  0
   16.1671    0.2702   -0.1919 H   0  0  0  0  0  0  0  0  0  0  0  0
   14.2531    3.2210    1.5226 H   0  0  0  0  0  0  0  0  0  0  0  0
   14.5458    4.1040    0.0051 H   0  0  0  0  0  0  0  0  0  0  0  0
   13.4538    2.6984    0.0205 H   0  0  0  0  0  0  0  0  0  0  0  0
   16.9913    2.9882   -1.2088 H   0  0  0  0  0  0  0  0  0  0  0  0
   16.9993    3.7381    0.4054 H   0  0  0  0  0  0  0  0  0  0  0  0
   17.6595    2.1003    0.1817 H   0  0  0  0  0  0  0  0  0  0  0  0
   -3.3123    2.2345   -0.1995 H   0  0  0  0  0  0  0  0  0  0  0  0
   -2.4890    1.4240   -1.5536 H   0  0  0  0  0  0  0  0  0  0  0  0
   -4.2666    1.5040   -1.5124 H   0  0  0  0  0  0  0  0  0  0  0  0
   -8.0977    2.4135   -0.0677 H   0  0  0  0  0  0  0  0  0  0  0  0
   -7.2744    1.6030   -1.4218 H   0  0  0  0  0  0  0  0  0  0  0  0
   -9.0521    1.6830   -1.3806 H   0  0  0  0  0  0  0  0  0  0  0  0
  -14.5759   -1.5119   -1.3066 H   0  0  0  0  0  0  0  0  0  0  0  0
  -13.6486   -2.2992   -0.0072 H   0  0  0  0  0  0  0  0  0  0  0  0
  -14.5612   -0.8082    0.3283 H   0  0  0  0  0  0  0  0  0  0  0  0
  -11.0231   -0.6593   -2.0754 H   0  0  0  0  0  0  0  0  0  0  0  0
  -11.5835   -2.2123   -1.4101 H   0  0  0  0  0  0  0  0  0  0  0  0
  -12.4953   -1.4243   -2.7202 H   0  0  0  0  0  0  0  0  0  0  0  0
  1  2  1  0  0  0  0
  2  3  2  0  0  0  0
  3  4  1  0  0  0  0
  4  5  1  0  0  0  0
  5  6  1  0  0  0  0
  6  7  1  0  0  0  0
  2  7  1  0  0  0  0
  7  8  1  0  0  0  0
  8  9  2  0  0  0  0
  9 10  1  0  0  0  0
 10 11  2  0  0  0  0
 11 12  1  0  0  0  0
 12 13  2  0  0  0  0
 13 14  1  0  0  0  0
 14 15  2  0  0  0  0
 15 16  1  0  0  0  0
 16 17  2  0  0  0  0
 17 18  1  0  0  0  0
 18 19  2  0  0  0  0
 19 20  1  0  0  0  0
 19 21  1  0  0  0  0
 21 22  2  0  0  0  0
 22 23  1  0  0  0  0
 23 24  2  0  0  0  0
 24 25  1  0  0  0  0
 24 26  1  0  0  0  0
 26 27  2  0  0  0  0
 27 28  1  0  0  0  0
 28 29  2  0  0  0  0
 29 30  1  0  0  0  0
 29 31  1  0  0  0  0
 31 32  1  0  0  0  0
 32 33  1  0  0  0  0
 33 34  2  0  0  0  0
 34 35  1  0  0  0  0
 34 36  1  0  0  0  0
 14 37  1  0  0  0  0
 10 38  1  0  0  0  0
  6 39  1  0  0  0  0
  6 40  1  0  0  0  0
  1 41  1  0  0  0  0
  1 42  1  0  0  0  0
  1 43  1  0  0  0  0
  3 44  1  0  0  0  0
  4 45  1  0  0  0  0
  4 46  1  0  0  0  0
  5 47  1  0  0  0  0
  5 48  1  0  0  0  0
  7 49  1  0  0  0  0
  8 50  1  0  0  0  0
  9 51  1  0  0  0  0
 11 52  1  0  0  0  0
 12 53  1  0  0  0  0
 13 54  1  0  0  0  0
 15 55  1  0  0  0  0
 16 56  1  0  0  0  0
 17 57  1  0  0  0  0
 18 58  1  0  0  0  0
 20 59  1  0  0  0  0
 20 60  1  0  0  0  0
 20 61  1  0  0  0  0
 21 62  1  0  0  0  0
 22 63  1  0  0  0  0
 23 64  1  0  0  0  0
 25 65  1  0  0  0  0
 25 66  1  0  0  0  0
 25 67  1  0  0  0  0
 26 68  1  0  0  0  0
 27 69  1  0  0  0  0
 28 70  1  0  0  0  0
 30 71  1  0  0  0  0
 30 72  1  0  0  0  0
 30 73  1  0  0  0  0
 31 74  1  0  0  0  0
 31 75  1  0  0  0  0
 32 76  1  0  0  0  0
 32 77  1  0  0  0  0
 33 78  1  0  0  0  0
 35 79  1  0  0  0  0
 35 80  1  0  0  0  0
 35 81  1  0  0  0  0
 36 82  1  0  0  0  0
 36 83  1  0  0  0  0
 36 84  1  0  0  0  0
 37 85  1  0  0  0  0
 37 86  1  0  0  0  0
 37 87  1  0  0  0  0
 38 88  1  0  0  0  0
 38 89  1  0  0  0  0
 38 90  1  0  0  0  0
 39 91  1  0  0  0  0
 39 92  1  0  0  0  0
 39 93  1  0  0  0  0
 40 94  1  0  0  0  0
 40 95  1  0  0  0  0
 40 96  1  0  0  0  0
M  END
$$$$
