C10H10O2
APtclcactv06231803083D 0   0.00000     0.00000
 
 22 22  0  0  0  0  0  0  0  0999 V2000
    2.6964    2.3638   -0.0016 C   0  0  0  0  0  0  0  0  0  0  0  0
    1.4003    1.7620   -0.0013 O   0  0  0  0  0  0  0  0  0  0  0  0
    1.3507    0.4063   -0.0009 C   0  0  0  0  0  0  0  0  0  0  0  0
    2.5225   -0.3333   -0.0007 C   0  0  0  0  0  0  0  0  0  0  0  0
    2.4708   -1.7140   -0.0007 C   0  0  0  0  0  0  0  0  0  0  0  0
    1.2509   -2.3713   -0.0005 C   0  0  0  0  0  0  0  0  0  0  0  0
    0.0746   -1.6547   -0.0006 C   0  0  0  0  0  0  0  0  0  0  0  0
    0.1106   -0.2551    0.0053 C   0  0  0  0  0  0  0  0  0  0  0  0
   -1.1377    0.5160    0.0057 C   0  0  0  0  0  0  0  0  0  0  0  0
   -2.3314   -0.1267    0.0003 C   0  0  0  0  0  0  0  0  0  0  0  0
   -3.5291    0.6130    0.0007 C   0  0  0  0  0  0  0  0  0  0  0  0
   -4.5986    0.0372   -0.0041 O   0  0  0  0  0  0  0  0  0  0  0  0
    3.2424    2.0511    0.8884 H   0  0  0  0  0  0  0  0  0  0  0  0
    3.2422    2.0505   -0.8916 H   0  0  0  0  0  0  0  0  0  0  0  0
    2.5931    3.4489   -0.0020 H   0  0  0  0  0  0  0  0  0  0  0  0
    3.4779    0.1703   -0.0009 H   0  0  0  0  0  0  0  0  0  0  0  0
    3.3875   -2.2849   -0.0013 H   0  0  0  0  0  0  0  0  0  0  0  0
    1.2223   -3.4509   -0.0005 H   0  0  0  0  0  0  0  0  0  0  0  0
   -0.8738   -2.1715   -0.0011 H   0  0  0  0  0  0  0  0  0  0  0  0
   -1.1056    1.5955    0.0102 H   0  0  0  0  0  0  0  0  0  0  0  0
   -2.3635   -1.2063   -0.0042 H   0  0  0  0  0  0  0  0  0  0  0  0
   -3.4970    1.6925    0.0053 H   0  0  0  0  0  0  0  0  0  0  0  0
  1  2  1  0  0  0  0
  2  3  1  0  0  0  0
  3  4  2  0  0  0  0
  4  5  1  0  0  0  0
  5  6  2  0  0  0  0
  6  7  1  0  0  0  0
  7  8  2  0  0  0  0
  3  8  1  0  0  0  0
  8  9  1  0  0  0  0
  9 10  2  0  0  0  0
 10 11  1  0  0  0  0
 11 12  2  0  0  0  0
  1 13  1  0  0  0  0
  1 14  1  0  0  0  0
  1 15  1  0  0  0  0
  4 16  1  0  0  0  0
  5 17  1  0  0  0  0
  6 18  1  0  0  0  0
  7 19  1  0  0  0  0
  9 20  1  0  0  0  0
 10 21  1  0  0  0  0
 11 22  1  0  0  0  0
M  END
$$$$
