C19H18O4
APtclcactv06231803083D 0   0.00000     0.00000
 
 41 43  0  0  0  0  0  0  0  0999 V2000
    1.2525   -2.5525    0.2311 C   0  0  0  0  0  0  0  0  0  0  0  0
    0.0875   -2.8635   -0.6728 C   0  0  0  0  0  0  0  0  0  0  0  0
   -1.1212   -2.4863   -0.3368 C   0  0  0  0  0  0  0  0  0  0  0  0
   -1.3284   -1.6097    0.8714 C   0  0  0  0  0  0  0  0  0  0  0  0
   -2.1394   -0.4007    0.4818 C   0  0  0  0  0  0  0  0  0  0  0  0
   -3.5214   -0.4382    0.5602 C   0  0  0  0  0  0  0  0  0  0  0  0
   -4.2691    0.6744    0.2016 C   0  0  0  0  0  0  0  0  0  0  0  0
   -3.6363    1.8285   -0.2367 C   0  0  0  0  0  0  0  0  0  0  0  0
   -2.2542    1.8744   -0.3187 C   0  0  0  0  0  0  0  0  0  0  0  0
   -1.4984    0.7601    0.0468 C   0  0  0  0  0  0  0  0  0  0  0  0
   -0.0235    0.8046   -0.0386 C   0  0  0  0  0  0  0  0  0  0  0  0
    0.6814    1.2109   -1.1208 C   0  0  0  0  0  0  0  0  0  0  0  0
    2.0948    1.0881   -0.7548 C   0  0  0  0  0  0  0  0  0  0  0  0
    2.1041    0.6006    0.5643 C   0  0  0  0  0  0  0  0  0  0  0  0
    0.8209    0.4523    0.9516 O   0  0  0  0  0  0  0  0  0  0  0  0
    3.3201    0.3772    1.1964 C   0  0  0  0  0  0  0  0  0  0  0  0
    4.5020    0.6353    0.5249 C   0  0  0  0  0  0  0  0  0  0  0  0
    4.4841    1.1183   -0.7808 C   0  0  0  0  0  0  0  0  0  0  0  0
    3.2965    1.3430   -1.4179 C   0  0  0  0  0  0  0  0  0  0  0  0
    5.6910    0.4159    1.1456 O   0  0  0  0  0  0  0  0  0  0  0  0
   -4.3732    2.9154   -0.5867 O   0  0  0  0  0  0  0  0  0  0  0  0
   -4.1464   -1.5664    0.9886 O   0  0  0  0  0  0  0  0  0  0  0  0
    0.3129   -3.6086   -1.9632 C   0  0  0  0  0  0  0  0  0  0  0  0
    0.8990   -2.4496    1.2571 H   0  0  0  0  0  0  0  0  0  0  0  0
    1.9805   -3.3619    0.1771 H   0  0  0  0  0  0  0  0  0  0  0  0
    1.7207   -1.6210   -0.0870 H   0  0  0  0  0  0  0  0  0  0  0  0
   -1.9691   -2.8034   -0.9256 H   0  0  0  0  0  0  0  0  0  0  0  0
   -1.8591   -2.1707    1.6406 H   0  0  0  0  0  0  0  0  0  0  0  0
   -0.3609   -1.2891    1.2579 H   0  0  0  0  0  0  0  0  0  0  0  0
   -5.3468    0.6417    0.2637 H   0  0  0  0  0  0  0  0  0  0  0  0
   -1.7623    2.7731   -0.6604 H   0  0  0  0  0  0  0  0  0  0  0  0
    0.2825    1.5555   -2.0635 H   0  0  0  0  0  0  0  0  0  0  0  0
    3.3433    0.0033    2.2094 H   0  0  0  0  0  0  0  0  0  0  0  0
    5.4141    1.3159   -1.2931 H   0  0  0  0  0  0  0  0  0  0  0  0
    3.2875    1.7175   -2.4308 H   0  0  0  0  0  0  0  0  0  0  0  0
    6.0420   -0.4762    1.0190 H   0  0  0  0  0  0  0  0  0  0  0  0
   -4.5473    3.5244    0.1439 H   0  0  0  0  0  0  0  0  0  0  0  0
   -4.2880   -1.5988    1.9446 H   0  0  0  0  0  0  0  0  0  0  0  0
    0.2251   -4.6802   -1.7841 H   0  0  0  0  0  0  0  0  0  0  0  0
   -0.4330   -3.3003   -2.6958 H   0  0  0  0  0  0  0  0  0  0  0  0
    1.3096   -3.3841   -2.3430 H   0  0  0  0  0  0  0  0  0  0  0  0
  1  2  1  0  0  0  0
  2  3  2  0  0  0  0
  3  4  1  0  0  0  0
  4  5  1  0  0  0  0
  5  6  2  0  0  0  0
  6  7  1  0  0  0  0
  7  8  2  0  0  0  0
  8  9  1  0  0  0  0
  9 10  2  0  0  0  0
  5 10  1  0  0  0  0
 10 11  1  0  0  0  0
 11 12  2  0  0  0  0
 12 13  1  0  0  0  0
 13 14  2  0  0  0  0
 14 15  1  0  0  0  0
 11 15  1  0  0  0  0
 14 16  1  0  0  0  0
 16 17  2  0  0  0  0
 17 18  1  0  0  0  0
 18 19  2  0  0  0  0
 13 19  1  0  0  0  0
 17 20  1  0  0  0  0
  8 21  1  0  0  0  0
  6 22  1  0  0  0  0
  2 23  1  0  0  0  0
  1 24  1  0  0  0  0
  1 25  1  0  0  0  0
  1 26  1  0  0  0  0
  3 27  1  0  0  0  0
  4 28  1  0  0  0  0
  4 29  1  0  0  0  0
  7 30  1  0  0  0  0
  9 31  1  0  0  0  0
 12 32  1  0  0  0  0
 16 33  1  0  0  0  0
 18 34  1  0  0  0  0
 19 35  1  0  0  0  0
 20 36  1  0  0  0  0
 21 37  1  0  0  0  0
 22 38  1  0  0  0  0
 23 39  1  0  0  0  0
 23 40  1  0  0  0  0
 23 41  1  0  0  0  0
M  END
$$$$
