C9H8O2
APtclcactv06231803083D 0   0.00000     0.00000
 
 19 19  0  0  0  0  0  0  0  0999 V2000
   -0.3855   -0.8949   -0.0122 C   0  0  0  0  0  0  0  0  0  0  0  0
   -1.7200   -1.2304   -0.0182 C   0  0  0  0  0  0  0  0  0  0  0  0
   -2.6902   -0.2340   -0.0165 C   0  0  0  0  0  0  0  0  0  0  0  0
   -2.3181    1.1060   -0.0082 C   0  0  0  0  0  0  0  0  0  0  0  0
   -0.9864    1.4529   -0.0021 C   0  0  0  0  0  0  0  0  0  0  0  0
   -0.0049    0.4533   -0.0038 C   0  0  0  0  0  0  0  0  0  0  0  0
    1.4170    0.8172    0.0032 C   0  0  0  0  0  0  0  0  0  0  0  0
    2.3647   -0.1520    0.0015 C   0  0  0  0  0  0  0  0  0  0  0  0
    3.7286    0.1971    0.0082 C   0  0  0  0  0  0  0  0  0  0  0  0
    4.5779   -0.6714    0.0066 O   0  0  0  0  0  0  0  0  0  0  0  0
   -4.0048   -0.5705   -0.0234 O   0  0  0  0  0  0  0  0  0  0  0  0
    0.3671   -1.6695   -0.0094 H   0  0  0  0  0  0  0  0  0  0  0  0
   -2.0146   -2.2694   -0.0247 H   0  0  0  0  0  0  0  0  0  0  0  0
   -3.0756    1.8757   -0.0069 H   0  0  0  0  0  0  0  0  0  0  0  0
   -0.6986    2.4938    0.0037 H   0  0  0  0  0  0  0  0  0  0  0  0
    1.7082    1.8572    0.0096 H   0  0  0  0  0  0  0  0  0  0  0  0
    2.0735   -1.1920   -0.0050 H   0  0  0  0  0  0  0  0  0  0  0  0
    4.0198    1.2371    0.0146 H   0  0  0  0  0  0  0  0  0  0  0  0
   -4.3893   -0.6728    0.8580 H   0  0  0  0  0  0  0  0  0  0  0  0
  1  2  2  0  0  0  0
  2  3  1  0  0  0  0
  3  4  2  0  0  0  0
  4  5  1  0  0  0  0
  5  6  2  0  0  0  0
  1  6  1  0  0  0  0
  6  7  1  0  0  0  0
  7  8  2  0  0  0  0
  8  9  1  0  0  0  0
  9 10  2  0  0  0  0
  3 11  1  0  0  0  0
  1 12  1  0  0  0  0
  2 13  1  0  0  0  0
  4 14  1  0  0  0  0
  5 15  1  0  0  0  0
  7 16  1  0  0  0  0
  8 17  1  0  0  0  0
  9 18  1  0  0  0  0
 11 19  1  0  0  0  0
M  END
$$$$
