C20H26O4
APtclcactv06231803083D 0   0.00000     0.00000
 
 50 51  0  0  0  0  0  0  0  0999 V2000
    0.5068    2.3729    1.4595 C   0  0  0  0  0  0  0  0  0  0  0  0
    1.3445    1.2909    0.8281 C   0  0  0  0  0  0  0  0  0  0  0  0
    2.7177    1.2932    0.9925 C   0  0  0  0  0  0  0  0  0  0  0  0
    3.4902    0.2923    0.4081 C   0  0  0  0  0  0  0  0  0  0  0  0
    2.8848   -0.7063   -0.3387 C   0  0  0  0  0  0  0  0  0  0  0  0
    1.5145   -0.7123   -0.5058 C   0  0  0  0  0  0  0  0  0  0  0  0
    0.7361    0.2826    0.0820 C   0  0  0  0  0  0  0  0  0  0  0  0
   -0.7365    0.2767   -0.0971 C   0  0  0  0  0  0  0  0  0  0  0  0
   -1.5071   -0.7232    0.4926 C   0  0  0  0  0  0  0  0  0  0  0  0
   -2.8774   -0.7282    0.3256 C   0  0  0  0  0  0  0  0  0  0  0  0
   -3.4899    0.2605   -0.4286 C   0  0  0  0  0  0  0  0  0  0  0  0
   -2.7246    1.2625   -1.0205 C   0  0  0  0  0  0  0  0  0  0  0  0
   -1.3521    1.2747   -0.8510 C   0  0  0  0  0  0  0  0  0  0  0  0
   -0.5221    2.3579   -1.4906 C   0  0  0  0  0  0  0  0  0  0  0  0
   -3.3273    2.2313   -1.7604 O   0  0  0  0  0  0  0  0  0  0  0  0
   -4.8399    0.2518   -0.5913 O   0  0  0  0  0  0  0  0  0  0  0  0
   -3.7089   -1.8109    0.9639 C   0  0  0  0  0  0  0  0  0  0  0  0
   -3.2658   -3.1750    0.4315 C   0  0  0  0  0  0  0  0  0  0  0  0
   -3.5209   -1.7702    2.4818 C   0  0  0  0  0  0  0  0  0  0  0  0
    3.7242   -1.7871   -0.9698 C   0  0  0  0  0  0  0  0  0  0  0  0
    3.2913   -3.1508   -0.4279 C   0  0  0  0  0  0  0  0  0  0  0  0
    3.5355   -1.7584   -2.4879 C   0  0  0  0  0  0  0  0  0  0  0  0
    4.8403    0.2951    0.5700 O   0  0  0  0  0  0  0  0  0  0  0  0
    3.3135    2.2726    1.7240 O   0  0  0  0  0  0  0  0  0  0  0  0
    0.4926    3.2475    0.8091 H   0  0  0  0  0  0  0  0  0  0  0  0
   -0.5108    2.0086    1.6008 H   0  0  0  0  0  0  0  0  0  0  0  0
    0.9327    2.6451    2.4252 H   0  0  0  0  0  0  0  0  0  0  0  0
    1.0452   -1.4910   -1.0887 H   0  0  0  0  0  0  0  0  0  0  0  0
   -1.0321   -1.4947    1.0804 H   0  0  0  0  0  0  0  0  0  0  0  0
   -0.3748    3.1705   -0.7792 H   0  0  0  0  0  0  0  0  0  0  0  0
    0.4458    1.9499   -1.7816 H   0  0  0  0  0  0  0  0  0  0  0  0
   -1.0371    2.7367   -2.3734 H   0  0  0  0  0  0  0  0  0  0  0  0
   -3.5921    3.0086   -1.2498 H   0  0  0  0  0  0  0  0  0  0  0  0
   -5.3209    0.7462    0.0865 H   0  0  0  0  0  0  0  0  0  0  0  0
   -4.7600   -1.6510    0.7236 H   0  0  0  0  0  0  0  0  0  0  0  0
   -2.2147   -3.3349    0.6718 H   0  0  0  0  0  0  0  0  0  0  0  0
   -3.8672   -3.9581    0.8932 H   0  0  0  0  0  0  0  0  0  0  0  0
   -3.3997   -3.2040   -0.6499 H   0  0  0  0  0  0  0  0  0  0  0  0
   -2.4698   -1.9300    2.7221 H   0  0  0  0  0  0  0  0  0  0  0  0
   -3.8366   -0.7983    2.8611 H   0  0  0  0  0  0  0  0  0  0  0  0
   -4.1223   -2.5533    2.9435 H   0  0  0  0  0  0  0  0  0  0  0  0
    4.7741   -1.6178   -0.7309 H   0  0  0  0  0  0  0  0  0  0  0  0
    2.2413   -3.3201   -0.6668 H   0  0  0  0  0  0  0  0  0  0  0  0
    3.8984   -3.9326   -0.8843 H   0  0  0  0  0  0  0  0  0  0  0  0
    3.4257   -3.1713    0.6536 H   0  0  0  0  0  0  0  0  0  0  0  0
    2.4856   -1.9276   -2.7268 H   0  0  0  0  0  0  0  0  0  0  0  0
    3.8439   -0.7868   -2.8740 H   0  0  0  0  0  0  0  0  0  0  0  0
    4.1426   -2.5401   -2.9443 H   0  0  0  0  0  0  0  0  0  0  0  0
    5.1444   -0.1962    1.3454 H   0  0  0  0  0  0  0  0  0  0  0  0
    3.3995    2.0641    2.6644 H   0  0  0  0  0  0  0  0  0  0  0  0
  1  2  1  0  0  0  0
  2  3  2  0  0  0  0
  3  4  1  0  0  0  0
  4  5  2  0  0  0  0
  5  6  1  0  0  0  0
  6  7  2  0  0  0  0
  2  7  1  0  0  0  0
  7  8  1  0  0  0  0
  8  9  2  0  0  0  0
  9 10  1  0  0  0  0
 10 11  2  0  0  0  0
 11 12  1  0  0  0  0
 12 13  2  0  0  0  0
  8 13  1  0  0  0  0
 13 14  1  0  0  0  0
 12 15  1  0  0  0  0
 11 16  1  0  0  0  0
 10 17  1  0  0  0  0
 17 18  1  0  0  0  0
 17 19  1  0  0  0  0
  5 20  1  0  0  0  0
 20 21  1  0  0  0  0
 20 22  1  0  0  0  0
  4 23  1  0  0  0  0
  3 24  1  0  0  0  0
  1 25  1  0  0  0  0
  1 26  1  0  0  0  0
  1 27  1  0  0  0  0
  6 28  1  0  0  0  0
  9 29  1  0  0  0  0
 14 30  1  0  0  0  0
 14 31  1  0  0  0  0
 14 32  1  0  0  0  0
 15 33  1  0  0  0  0
 16 34  1  0  0  0  0
 17 35  1  0  0  0  0
 18 36  1  0  0  0  0
 18 37  1  0  0  0  0
 18 38  1  0  0  0  0
 19 39  1  0  0  0  0
 19 40  1  0  0  0  0
 19 41  1  0  0  0  0
 20 42  1  0  0  0  0
 21 43  1  0  0  0  0
 21 44  1  0  0  0  0
 21 45  1  0  0  0  0
 22 46  1  0  0  0  0
 22 47  1  0  0  0  0
 22 48  1  0  0  0  0
 23 49  1  0  0  0  0
 24 50  1  0  0  0  0
M  END
$$$$
