C8H14O
APtclcactv06281816503D 0   0.00000     0.00000
 
 23 22  0  0  0  0  0  0  0  0999 V2000
    4.8427   -0.1393    0.3716 C   0  0  0  0  0  0  0  0  0  0  0  0
    3.5061   -0.6496   -0.1706 C   0  0  0  0  0  0  0  0  0  0  0  0
    2.4008    0.3508    0.1732 C   0  0  0  0  0  0  0  0  0  0  0  0
    1.0642   -0.1595   -0.3691 C   0  0  0  0  0  0  0  0  0  0  0  0
   -0.0411    0.8410   -0.0252 C   0  0  0  0  0  0  0  0  0  0  0  0
   -1.3576    0.3383   -0.5593 C   0  0  0  0  0  0  0  0  0  0  0  0
   -2.4012    0.1994    0.2609 C   0  0  0  0  0  0  0  0  0  0  0  0
   -3.6789   -0.2884   -0.2575 C   0  0  0  0  0  0  0  0  0  0  0  0
   -4.6276   -0.4147    0.4881 O   0  0  0  0  0  0  0  0  0  0  0  0
    5.0731    0.8259   -0.0794 H   0  0  0  0  0  0  0  0  0  0  0  0
    4.7770   -0.0282    1.4540 H   0  0  0  0  0  0  0  0  0  0  0  0
    5.6301   -0.8521    0.1267 H   0  0  0  0  0  0  0  0  0  0  0  0
    3.5717   -0.7608   -1.2530 H   0  0  0  0  0  0  0  0  0  0  0  0
    3.2757   -1.6148    0.2804 H   0  0  0  0  0  0  0  0  0  0  0  0
    2.3351    0.4620    1.2555 H   0  0  0  0  0  0  0  0  0  0  0  0
    2.6312    1.3160   -0.2778 H   0  0  0  0  0  0  0  0  0  0  0  0
    1.1299   -0.2706   -1.4514 H   0  0  0  0  0  0  0  0  0  0  0  0
    0.8338   -1.1247    0.0820 H   0  0  0  0  0  0  0  0  0  0  0  0
   -0.1067    0.9521    1.0571 H   0  0  0  0  0  0  0  0  0  0  0  0
    0.1893    1.8061   -0.4763 H   0  0  0  0  0  0  0  0  0  0  0  0
   -1.4565    0.0905   -1.6058 H   0  0  0  0  0  0  0  0  0  0  0  0
   -2.3023    0.4473    1.3074 H   0  0  0  0  0  0  0  0  0  0  0  0
   -3.7778   -0.5363   -1.3040 H   0  0  0  0  0  0  0  0  0  0  0  0
  1  2  1  0  0  0  0
  2  3  1  0  0  0  0
  3  4  1  0  0  0  0
  4  5  1  0  0  0  0
  5  6  1  0  0  0  0
  6  7  2  0  0  0  0
  7  8  1  0  0  0  0
  8  9  2  0  0  0  0
  1 10  1  0  0  0  0
  1 11  1  0  0  0  0
  1 12  1  0  0  0  0
  2 13  1  0  0  0  0
  2 14  1  0  0  0  0
  3 15  1  0  0  0  0
  3 16  1  0  0  0  0
  4 17  1  0  0  0  0
  4 18  1  0  0  0  0
  5 19  1  0  0  0  0
  5 20  1  0  0  0  0
  6 21  1  0  0  0  0
  7 22  1  0  0  0  0
  8 23  1  0  0  0  0
M  END
$$$$
