C10H16O
APtclcactv06281817193D 0   0.00000     0.00000
 
 27 28  0  0  0  0  0  0  0  0999 V2000
   -1.9290    1.7194   -0.4619 C   0  0  0  0  0  0  0  0  0  0  0  0
   -1.0338    0.5313   -0.8198 C   0  0  0  0  0  0  0  0  0  0  0  0
    0.4494    0.9288   -0.6835 C   0  0  0  0  0  0  0  0  0  0  0  0
    0.7401    1.5276    0.7055 C   0  0  0  0  0  0  0  0  0  0  0  0
    0.8390    0.0751    1.2084 C   0  0  0  0  0  0  0  0  0  0  0  0
    1.3009   -0.2713   -0.2217 C   0  0  0  0  0  0  0  0  0  0  0  0
    0.7859   -1.6214   -0.7248 C   0  0  0  0  0  0  0  0  0  0  0  0
    2.8026   -0.0831   -0.4460 C   0  0  0  0  0  0  0  0  0  0  0  0
   -0.5575   -0.5123    1.4933 C   0  0  0  0  0  0  0  0  0  0  0  0
   -1.2719   -0.6113    0.1547 C   0  0  0  0  0  0  0  0  0  0  0  0
   -1.9881   -1.5443   -0.1188 O   0  0  0  0  0  0  0  0  0  0  0  0
   -1.7169    2.5499   -1.1353 H   0  0  0  0  0  0  0  0  0  0  0  0
   -2.9749    1.4292   -0.5611 H   0  0  0  0  0  0  0  0  0  0  0  0
   -1.7327    2.0256    0.5657 H   0  0  0  0  0  0  0  0  0  0  0  0
   -1.2398    0.2034   -1.8386 H   0  0  0  0  0  0  0  0  0  0  0  0
    0.8413    1.4945   -1.5288 H   0  0  0  0  0  0  0  0  0  0  0  0
    1.6814    2.0747    0.7585 H   0  0  0  0  0  0  0  0  0  0  0  0
   -0.0983    2.0814    1.1280 H   0  0  0  0  0  0  0  0  0  0  0  0
    1.5745   -0.0996    1.9936 H   0  0  0  0  0  0  0  0  0  0  0  0
   -0.1810   -1.4839   -1.2089 H   0  0  0  0  0  0  0  0  0  0  0  0
    1.4949   -2.0368   -1.4409 H   0  0  0  0  0  0  0  0  0  0  0  0
    0.6768   -2.3052    0.1170 H   0  0  0  0  0  0  0  0  0  0  0  0
    3.3410   -0.9384   -0.0378 H   0  0  0  0  0  0  0  0  0  0  0  0
    3.0033   -0.0038   -1.5145 H   0  0  0  0  0  0  0  0  0  0  0  0
    3.1335    0.8270    0.0543 H   0  0  0  0  0  0  0  0  0  0  0  0
   -0.4616   -1.5025    1.9388 H   0  0  0  0  0  0  0  0  0  0  0  0
   -1.1098    0.1471    2.1628 H   0  0  0  0  0  0  0  0  0  0  0  0
  1  2  1  0  0  0  0
  2  3  1  0  0  0  0
  3  4  1  0  0  0  0
  4  5  1  0  0  0  0
  5  6  1  0  0  0  0
  3  6  1  0  0  0  0
  6  7  1  0  0  0  0
  6  8  1  0  0  0  0
  5  9  1  0  0  0  0
  9 10  1  0  0  0  0
  2 10  1  0  0  0  0
 10 11  2  0  0  0  0
  1 12  1  0  0  0  0
  1 13  1  0  0  0  0
  1 14  1  0  0  0  0
  2 15  1  0  0  0  0
  3 16  1  0  0  0  0
  4 17  1  0  0  0  0
  4 18  1  0  0  0  0
  5 19  1  0  0  0  0
  7 20  1  0  0  0  0
  7 21  1  0  0  0  0
  7 22  1  0  0  0  0
  8 23  1  0  0  0  0
  8 24  1  0  0  0  0
  8 25  1  0  0  0  0
  9 26  1  0  0  0  0
  9 27  1  0  0  0  0
M  END
$$$$
