C15H24
APtclcactv06281817193D 0   0.00000     0.00000
 
 39 40  0  0  0  0  0  0  0  0999 V2000
   -2.3402    2.7988    0.2611 C   0  0  0  0  0  0  0  0  0  0  0  0
   -1.2162    2.0187   -0.4237 C   0  0  0  0  0  0  0  0  0  0  0  0
    0.1231    2.6924   -0.1207 C   0  0  0  0  0  0  0  0  0  0  0  0
    1.2355    1.7500   -0.6040 C   0  0  0  0  0  0  0  0  0  0  0  0
    1.3139    0.5756    0.3681 C   0  0  0  0  0  0  0  0  0  0  0  0
    0.0012   -0.1481    0.4980 C   0  0  0  0  0  0  0  0  0  0  0  0
   -1.2184    0.6061    0.0771 C   0  0  0  0  0  0  0  0  0  0  0  0
   -2.3692   -0.0587    0.1051 C   0  0  0  0  0  0  0  0  0  0  0  0
   -2.3070   -1.5094    0.5388 C   0  0  0  0  0  0  0  0  0  0  0  0
   -1.1345   -2.1663   -0.1617 C   0  0  0  0  0  0  0  0  0  0  0  0
    0.0107   -1.4958   -0.1812 C   0  0  0  0  0  0  0  0  0  0  0  0
   -1.2631   -3.5218   -0.8075 C   0  0  0  0  0  0  0  0  0  0  0  0
    2.3755   -0.4083   -0.1277 C   0  0  0  0  0  0  0  0  0  0  0  0
    3.6947    0.3341   -0.3500 C   0  0  0  0  0  0  0  0  0  0  0  0
    2.5788   -1.5081    0.9163 C   0  0  0  0  0  0  0  0  0  0  0  0
   -2.3531    3.8221   -0.1142 H   0  0  0  0  0  0  0  0  0  0  0  0
   -3.2965    2.3214    0.0472 H   0  0  0  0  0  0  0  0  0  0  0  0
   -2.1719    2.8088    1.3379 H   0  0  0  0  0  0  0  0  0  0  0  0
   -1.3831    2.0182   -1.5008 H   0  0  0  0  0  0  0  0  0  0  0  0
    0.1873    3.6429   -0.6504 H   0  0  0  0  0  0  0  0  0  0  0  0
    0.2192    2.8586    0.9523 H   0  0  0  0  0  0  0  0  0  0  0  0
    1.0010    1.3855   -1.6041 H   0  0  0  0  0  0  0  0  0  0  0  0
    2.1875    2.2806   -0.6183 H   0  0  0  0  0  0  0  0  0  0  0  0
    1.6105    0.9479    1.3486 H   0  0  0  0  0  0  0  0  0  0  0  0
   -0.1259   -0.3619    1.5593 H   0  0  0  0  0  0  0  0  0  0  0  0
   -3.3022    0.4116   -0.1681 H   0  0  0  0  0  0  0  0  0  0  0  0
   -2.1676   -1.5643    1.6185 H   0  0  0  0  0  0  0  0  0  0  0  0
   -3.2315   -2.0157    0.2610 H   0  0  0  0  0  0  0  0  0  0  0  0
    0.8969   -1.8910   -0.6553 H   0  0  0  0  0  0  0  0  0  0  0  0
   -2.2799   -3.8920   -0.6757 H   0  0  0  0  0  0  0  0  0  0  0  0
   -1.0413   -3.4399   -1.8715 H   0  0  0  0  0  0  0  0  0  0  0  0
   -0.5613   -4.2140   -0.3422 H   0  0  0  0  0  0  0  0  0  0  0  0
    2.0471   -0.8546   -1.0664 H   0  0  0  0  0  0  0  0  0  0  0  0
    3.5499    1.1176   -1.0938 H   0  0  0  0  0  0  0  0  0  0  0  0
    4.0231    0.7804    0.5887 H   0  0  0  0  0  0  0  0  0  0  0  0
    4.4510   -0.3669   -0.7032 H   0  0  0  0  0  0  0  0  0  0  0  0
    1.6170   -1.9589    1.1612 H   0  0  0  0  0  0  0  0  0  0  0  0
    3.2460   -2.2710    0.5152 H   0  0  0  0  0  0  0  0  0  0  0  0
    3.0181   -1.0780    1.8163 H   0  0  0  0  0  0  0  0  0  0  0  0
  1  2  1  0  0  0  0
  2  3  1  0  0  0  0
  3  4  1  0  0  0  0
  4  5  1  0  0  0  0
  5  6  1  0  0  0  0
  6  7  1  0  0  0  0
  2  7  1  0  0  0  0
  7  8  2  0  0  0  0
  8  9  1  0  0  0  0
  9 10  1  0  0  0  0
 10 11  2  0  0  0  0
  6 11  1  0  0  0  0
 10 12  1  0  0  0  0
  5 13  1  0  0  0  0
 13 14  1  0  0  0  0
 13 15  1  0  0  0  0
  1 16  1  0  0  0  0
  1 17  1  0  0  0  0
  1 18  1  0  0  0  0
  2 19  1  0  0  0  0
  3 20  1  0  0  0  0
  3 21  1  0  0  0  0
  4 22  1  0  0  0  0
  4 23  1  0  0  0  0
  5 24  1  0  0  0  0
  6 25  1  0  0  0  0
  8 26  1  0  0  0  0
  9 27  1  0  0  0  0
  9 28  1  0  0  0  0
 11 29  1  0  0  0  0
 12 30  1  0  0  0  0
 12 31  1  0  0  0  0
 12 32  1  0  0  0  0
 13 33  1  0  0  0  0
 14 34  1  0  0  0  0
 14 35  1  0  0  0  0
 14 36  1  0  0  0  0
 15 37  1  0  0  0  0
 15 38  1  0  0  0  0
 15 39  1  0  0  0  0
M  END
$$$$
