C12H20O2
APtclcactv06281817193D 0   0.00000     0.00000
 
 34 35  0  0  0  0  0  0  0  0999 V2000
    3.2784    1.3857   -0.3988 C   0  0  0  0  0  0  0  0  0  0  0  0
    3.0323   -0.1228   -0.4682 C   0  0  0  0  0  0  0  0  0  0  0  0
    3.6453   -0.7966    0.7612 C   0  0  0  0  0  0  0  0  0  0  0  0
    1.5267   -0.3930   -0.5003 C   0  0  0  0  0  0  0  0  0  0  0  0
    0.6701    0.4714   -1.4483 C   0  0  0  0  0  0  0  0  0  0  0  0
   -0.2704    1.2566   -0.5006 C   0  0  0  0  0  0  0  0  0  0  0  0
   -0.6055    0.2109    0.5918 C   0  0  0  0  0  0  0  0  0  0  0  0
    0.7157   -0.5587    0.7968 C   0  0  0  0  0  0  0  0  0  0  0  0
    1.0068   -1.7806   -0.1192 C   0  0  0  0  0  0  0  0  0  0  0  0
   -1.0266    0.9066    1.8878 C   0  0  0  0  0  0  0  0  0  0  0  0
   -1.6504   -0.6866    0.1326 O   0  0  0  0  0  0  0  0  0  0  0  0
   -2.8390   -0.1375   -0.1630 C   0  0  0  0  0  0  0  0  0  0  0  0
   -3.0009    1.0538   -0.0421 O   0  0  0  0  0  0  0  0  0  0  0  0
   -3.9715   -1.0067   -0.6457 C   0  0  0  0  0  0  0  0  0  0  0  0
    4.3510    1.5781   -0.3759 H   0  0  0  0  0  0  0  0  0  0  0  0
    2.8418    1.8657   -1.2746 H   0  0  0  0  0  0  0  0  0  0  0  0
    2.8178    1.7878    0.5035 H   0  0  0  0  0  0  0  0  0  0  0  0
    3.4930   -0.5250   -1.3705 H   0  0  0  0  0  0  0  0  0  0  0  0
    3.1846   -0.3944    1.6635 H   0  0  0  0  0  0  0  0  0  0  0  0
    3.4700   -1.8713    0.7118 H   0  0  0  0  0  0  0  0  0  0  0  0
    4.7179   -0.6041    0.7841 H   0  0  0  0  0  0  0  0  0  0  0  0
    1.3010    1.1572   -2.0138 H   0  0  0  0  0  0  0  0  0  0  0  0
    0.0917   -0.1603   -2.1225 H   0  0  0  0  0  0  0  0  0  0  0  0
    0.2448    2.1147   -0.0689 H   0  0  0  0  0  0  0  0  0  0  0  0
   -1.1730    1.5703   -1.0250 H   0  0  0  0  0  0  0  0  0  0  0  0
    1.1909   -0.4882    1.7753 H   0  0  0  0  0  0  0  0  0  0  0  0
    0.1768   -2.1816   -0.7010 H   0  0  0  0  0  0  0  0  0  0  0  0
    1.7286   -2.5154    0.2372 H   0  0  0  0  0  0  0  0  0  0  0  0
   -1.9238    1.4987    1.7073 H   0  0  0  0  0  0  0  0  0  0  0  0
   -1.2334    0.1572    2.6518 H   0  0  0  0  0  0  0  0  0  0  0  0
   -0.2226    1.5596    2.2275 H   0  0  0  0  0  0  0  0  0  0  0  0
   -3.6396   -2.0440   -0.6907 H   0  0  0  0  0  0  0  0  0  0  0  0
   -4.8122   -0.9238    0.0431 H   0  0  0  0  0  0  0  0  0  0  0  0
   -4.2818   -0.6810   -1.6385 H   0  0  0  0  0  0  0  0  0  0  0  0
  1  2  1  0  0  0  0
  2  3  1  0  0  0  0
  2  4  1  0  0  0  0
  4  5  1  0  0  0  0
  5  6  1  0  0  0  0
  6  7  1  0  0  0  0
  7  8  1  0  0  0  0
  4  8  1  0  0  0  0
  8  9  1  0  0  0  0
  4  9  1  0  0  0  0
  7 10  1  0  0  0  0
  7 11  1  0  0  0  0
 11 12  1  0  0  0  0
 12 13  2  0  0  0  0
 12 14  1  0  0  0  0
  1 15  1  0  0  0  0
  1 16  1  0  0  0  0
  1 17  1  0  0  0  0
  2 18  1  0  0  0  0
  3 19  1  0  0  0  0
  3 20  1  0  0  0  0
  3 21  1  0  0  0  0
  5 22  1  0  0  0  0
  5 23  1  0  0  0  0
  6 24  1  0  0  0  0
  6 25  1  0  0  0  0
  8 26  1  0  0  0  0
  9 27  1  0  0  0  0
  9 28  1  0  0  0  0
 10 29  1  0  0  0  0
 10 30  1  0  0  0  0
 10 31  1  0  0  0  0
 14 32  1  0  0  0  0
 14 33  1  0  0  0  0
 14 34  1  0  0  0  0
M  END
$$$$
