C14H22O
APtclcactv06281817193D 0   0.00000     0.00000
 
 37 40  0  0  0  0  0  0  0  0999 V2000
    2.9798    1.6308    0.5431 C   0  0  0  0  0  0  0  0  0  0  0  0
    2.4227    0.5372   -0.3704 C   0  0  0  0  0  0  0  0  0  0  0  0
    3.0330   -0.8335    0.0083 C   0  0  0  0  0  0  0  0  0  0  0  0
    1.8548   -1.8321   -0.1410 C   0  0  0  0  0  0  0  0  0  0  0  0
    0.6460   -1.0168    0.3762 C   0  0  0  0  0  0  0  0  0  0  0  0
    0.9261    0.4066   -0.1727 C   0  0  0  0  0  0  0  0  0  0  0  0
    0.3013    1.4406    0.7562 C   0  0  0  0  0  0  0  0  0  0  0  0
   -1.0810    0.9234    1.1414 C   0  0  0  0  0  0  0  0  0  0  0  0
   -1.9396    0.4923   -0.0501 C   0  0  0  0  0  0  0  0  0  0  0  0
   -1.1384   -0.2727   -1.1299 C   0  0  0  0  0  0  0  0  0  0  0  0
    0.1492    0.4804   -1.5014 C   0  0  0  0  0  0  0  0  0  0  0  0
   -0.6472   -1.4997   -0.2999 C   0  0  0  0  0  0  0  0  0  0  0  0
   -1.7618   -1.6538    0.7573 C   0  0  0  0  0  0  0  0  0  0  0  0
   -2.7315   -0.6150    0.4994 O   0  0  0  0  0  0  0  0  0  0  0  0
   -2.7750    1.6374   -0.6259 C   0  0  0  0  0  0  0  0  0  0  0  0
    4.0602    1.6964    0.4143 H   0  0  0  0  0  0  0  0  0  0  0  0
    2.5244    2.5869    0.2849 H   0  0  0  0  0  0  0  0  0  0  0  0
    2.7518    1.3883    1.5811 H   0  0  0  0  0  0  0  0  0  0  0  0
    2.6445    0.7709   -1.4117 H   0  0  0  0  0  0  0  0  0  0  0  0
    3.8414   -1.0928   -0.6754 H   0  0  0  0  0  0  0  0  0  0  0  0
    3.3926   -0.8194    1.0372 H   0  0  0  0  0  0  0  0  0  0  0  0
    1.7145   -2.1102   -1.1855 H   0  0  0  0  0  0  0  0  0  0  0  0
    2.0171   -2.7157    0.4764 H   0  0  0  0  0  0  0  0  0  0  0  0
    0.5808   -1.0304    1.4641 H   0  0  0  0  0  0  0  0  0  0  0  0
    0.9160    1.5574    1.6487 H   0  0  0  0  0  0  0  0  0  0  0  0
    0.2095    2.3962    0.2398 H   0  0  0  0  0  0  0  0  0  0  0  0
   -0.9589    0.0698    1.8082 H   0  0  0  0  0  0  0  0  0  0  0  0
   -1.6076    1.7097    1.6823 H   0  0  0  0  0  0  0  0  0  0  0  0
   -1.7403   -0.5382   -1.9991 H   0  0  0  0  0  0  0  0  0  0  0  0
   -0.0651    1.5137   -1.7742 H   0  0  0  0  0  0  0  0  0  0  0  0
    0.6869   -0.0312   -2.2997 H   0  0  0  0  0  0  0  0  0  0  0  0
   -0.4986   -2.3933   -0.9060 H   0  0  0  0  0  0  0  0  0  0  0  0
   -2.2312   -2.6331    0.6633 H   0  0  0  0  0  0  0  0  0  0  0  0
   -1.3453   -1.5345    1.7575 H   0  0  0  0  0  0  0  0  0  0  0  0
   -2.1133    2.4298   -0.9755 H   0  0  0  0  0  0  0  0  0  0  0  0
   -3.3718    1.2680   -1.4599 H   0  0  0  0  0  0  0  0  0  0  0  0
   -3.4352    2.0301    0.1474 H   0  0  0  0  0  0  0  0  0  0  0  0
  1  2  1  0  0  0  0
  2  3  1  0  0  0  0
  3  4  1  0  0  0  0
  4  5  1  0  0  0  0
  5  6  1  0  0  0  0
  2  6  1  0  0  0  0
  6  7  1  0  0  0  0
  7  8  1  0  0  0  0
  8  9  1  0  0  0  0
  9 10  1  0  0  0  0
 10 11  1  0  0  0  0
  6 11  1  0  0  0  0
 10 12  1  0  0  0  0
  5 12  1  0  0  0  0
 12 13  1  0  0  0  0
 13 14  1  0  0  0  0
  9 14  1  0  0  0  0
  9 15  1  0  0  0  0
  1 16  1  0  0  0  0
  1 17  1  0  0  0  0
  1 18  1  0  0  0  0
  2 19  1  0  0  0  0
  3 20  1  0  0  0  0
  3 21  1  0  0  0  0
  4 22  1  0  0  0  0
  4 23  1  0  0  0  0
  5 24  1  0  0  0  0
  7 25  1  0  0  0  0
  7 26  1  0  0  0  0
  8 27  1  0  0  0  0
  8 28  1  0  0  0  0
 10 29  1  0  0  0  0
 11 30  1  0  0  0  0
 11 31  1  0  0  0  0
 12 32  1  0  0  0  0
 13 33  1  0  0  0  0
 13 34  1  0  0  0  0
 15 35  1  0  0  0  0
 15 36  1  0  0  0  0
 15 37  1  0  0  0  0
M  END
$$$$
