C15H24
APtclcactv06281817203D 0   0.00000     0.00000
 
 39 40  0  0  0  0  0  0  0  0999 V2000
    2.7141    2.5480   -0.3397 C   0  0  0  0  0  0  0  0  0  0  0  0
    2.5303    1.0878   -0.0154 C   0  0  0  0  0  0  0  0  0  0  0  0
    3.4848    0.2140   -0.2391 C   0  0  0  0  0  0  0  0  0  0  0  0
    3.2633   -1.2383    0.1077 C   0  0  0  0  0  0  0  0  0  0  0  0
    1.8315   -1.4341    0.6248 C   0  0  0  0  0  0  0  0  0  0  0  0
    1.5054   -0.4147    1.7354 C   0  0  0  0  0  0  0  0  0  0  0  0
    1.2362    0.5707    0.5885 C   0  0  0  0  0  0  0  0  0  0  0  0
    0.7857   -0.6800   -0.2143 C   0  0  0  0  0  0  0  0  0  0  0  0
    1.1183   -0.6118   -1.7062 C   0  0  0  0  0  0  0  0  0  0  0  0
   -0.6575   -1.1067    0.0614 C   0  0  0  0  0  0  0  0  0  0  0  0
   -1.6138   -0.2124   -0.7302 C   0  0  0  0  0  0  0  0  0  0  0  0
   -3.0353   -0.6327   -0.4586 C   0  0  0  0  0  0  0  0  0  0  0  0
   -3.8885    0.2268    0.0407 C   0  0  0  0  0  0  0  0  0  0  0  0
   -3.4187    1.5938    0.4670 C   0  0  0  0  0  0  0  0  0  0  0  0
   -5.3397   -0.1514    0.1889 C   0  0  0  0  0  0  0  0  0  0  0  0
    3.7087    2.7050   -0.7571 H   0  0  0  0  0  0  0  0  0  0  0  0
    1.9624    2.8563   -1.0662 H   0  0  0  0  0  0  0  0  0  0  0  0
    2.6043    3.1387    0.5697 H   0  0  0  0  0  0  0  0  0  0  0  0
    4.4229    0.5326   -0.6691 H   0  0  0  0  0  0  0  0  0  0  0  0
    3.4148   -1.8507   -0.7812 H   0  0  0  0  0  0  0  0  0  0  0  0
    3.9719   -1.5391    0.8795 H   0  0  0  0  0  0  0  0  0  0  0  0
    1.5871   -2.4689    0.8643 H   0  0  0  0  0  0  0  0  0  0  0  0
    0.6196   -0.6661    2.3188 H   0  0  0  0  0  0  0  0  0  0  0  0
    2.3625   -0.1456    2.3528 H   0  0  0  0  0  0  0  0  0  0  0  0
    0.4819    1.3341    0.7788 H   0  0  0  0  0  0  0  0  0  0  0  0
    2.1106   -0.1803   -1.8378 H   0  0  0  0  0  0  0  0  0  0  0  0
    1.1000   -1.6163   -2.1288 H   0  0  0  0  0  0  0  0  0  0  0  0
    0.3814    0.0099   -2.2147 H   0  0  0  0  0  0  0  0  0  0  0  0
   -0.7941   -2.1442   -0.2435 H   0  0  0  0  0  0  0  0  0  0  0  0
   -0.8677   -1.0104    1.1265 H   0  0  0  0  0  0  0  0  0  0  0  0
   -1.4772    0.8251   -0.4253 H   0  0  0  0  0  0  0  0  0  0  0  0
   -1.4036   -0.3087   -1.7954 H   0  0  0  0  0  0  0  0  0  0  0  0
   -3.3506   -1.6426   -0.6757 H   0  0  0  0  0  0  0  0  0  0  0  0
   -3.4078    2.2597   -0.3959 H   0  0  0  0  0  0  0  0  0  0  0  0
   -4.0953    1.9909    1.2238 H   0  0  0  0  0  0  0  0  0  0  0  0
   -2.4133    1.5196    0.8814 H   0  0  0  0  0  0  0  0  0  0  0  0
   -5.4995   -0.6022    1.1684 H   0  0  0  0  0  0  0  0  0  0  0  0
   -5.9591    0.7405    0.0939 H   0  0  0  0  0  0  0  0  0  0  0  0
   -5.6101   -0.8660   -0.5885 H   0  0  0  0  0  0  0  0  0  0  0  0
  1  2  1  0  0  0  0
  2  3  2  0  0  0  0
  3  4  1  0  0  0  0
  4  5  1  0  0  0  0
  5  6  1  0  0  0  0
  6  7  1  0  0  0  0
  2  7  1  0  0  0  0
  7  8  1  0  0  0  0
  5  8  1  0  0  0  0
  8  9  1  0  0  0  0
  8 10  1  0  0  0  0
 10 11  1  0  0  0  0
 11 12  1  0  0  0  0
 12 13  2  0  0  0  0
 13 14  1  0  0  0  0
 13 15  1  0  0  0  0
  1 16  1  0  0  0  0
  1 17  1  0  0  0  0
  1 18  1  0  0  0  0
  3 19  1  0  0  0  0
  4 20  1  0  0  0  0
  4 21  1  0  0  0  0
  5 22  1  0  0  0  0
  6 23  1  0  0  0  0
  6 24  1  0  0  0  0
  7 25  1  0  0  0  0
  9 26  1  0  0  0  0
  9 27  1  0  0  0  0
  9 28  1  0  0  0  0
 10 29  1  0  0  0  0
 10 30  1  0  0  0  0
 11 31  1  0  0  0  0
 11 32  1  0  0  0  0
 12 33  1  0  0  0  0
 14 34  1  0  0  0  0
 14 35  1  0  0  0  0
 14 36  1  0  0  0  0
 15 37  1  0  0  0  0
 15 38  1  0  0  0  0
 15 39  1  0  0  0  0
M  END
$$$$
