C10H14O
APtclcactv06281817203D 0   0.00000     0.00000
 
 25 25  0  0  0  0  0  0  0  0999 V2000
   -3.3235   -0.1242    1.0434 C   0  0  0  0  0  0  0  0  0  0  0  0
   -2.5168   -0.4714   -0.2094 C   0  0  0  0  0  0  0  0  0  0  0  0
   -2.9648    0.4216   -1.3682 C   0  0  0  0  0  0  0  0  0  0  0  0
   -1.0508   -0.2480    0.0593 C   0  0  0  0  0  0  0  0  0  0  0  0
   -0.2426   -1.2567   -0.0488 C   0  0  0  0  0  0  0  0  0  0  0  0
    1.2327   -1.1543    0.1938 C   0  0  0  0  0  0  0  0  0  0  0  0
    1.7008    0.2671    0.0989 C   0  0  0  0  0  0  0  0  0  0  0  0
    0.8758    1.2969    0.2093 C   0  0  0  0  0  0  0  0  0  0  0  0
   -0.5959    1.1303    0.4325 C   0  0  0  0  0  0  0  0  0  0  0  0
    3.1230    0.5259   -0.1236 C   0  0  0  0  0  0  0  0  0  0  0  0
    3.8992   -0.4008   -0.2277 O   0  0  0  0  0  0  0  0  0  0  0  0
   -3.1572    0.9208    1.3047 H   0  0  0  0  0  0  0  0  0  0  0  0
   -4.3838   -0.2858    0.8491 H   0  0  0  0  0  0  0  0  0  0  0  0
   -3.0044   -0.7604    1.8690 H   0  0  0  0  0  0  0  0  0  0  0  0
   -2.6832   -1.5164   -0.4706 H   0  0  0  0  0  0  0  0  0  0  0  0
   -2.7984    1.4666   -1.1069 H   0  0  0  0  0  0  0  0  0  0  0  0
   -2.3900    0.1743   -2.2607 H   0  0  0  0  0  0  0  0  0  0  0  0
   -4.0251    0.2600   -1.5624 H   0  0  0  0  0  0  0  0  0  0  0  0
   -0.6525   -2.2165   -0.3266 H   0  0  0  0  0  0  0  0  0  0  0  0
    1.4588   -1.5392    1.1882 H   0  0  0  0  0  0  0  0  0  0  0  0
    1.7593   -1.7541   -0.5485 H   0  0  0  0  0  0  0  0  0  0  0  0
    1.2788    2.2958    0.1315 H   0  0  0  0  0  0  0  0  0  0  0  0
   -1.1336    1.8646   -0.1673 H   0  0  0  0  0  0  0  0  0  0  0  0
   -0.8187    1.2989    1.4861 H   0  0  0  0  0  0  0  0  0  0  0  0
    3.4822    1.5419   -0.1952 H   0  0  0  0  0  0  0  0  0  0  0  0
  1  2  1  0  0  0  0
  2  3  1  0  0  0  0
  2  4  1  0  0  0  0
  4  5  2  0  0  0  0
  5  6  1  0  0  0  0
  6  7  1  0  0  0  0
  7  8  2  0  0  0  0
  8  9  1  0  0  0  0
  4  9  1  0  0  0  0
  7 10  1  0  0  0  0
 10 11  2  0  0  0  0
  1 12  1  0  0  0  0
  1 13  1  0  0  0  0
  1 14  1  0  0  0  0
  2 15  1  0  0  0  0
  3 16  1  0  0  0  0
  3 17  1  0  0  0  0
  3 18  1  0  0  0  0
  5 19  1  0  0  0  0
  6 20  1  0  0  0  0
  6 21  1  0  0  0  0
  8 22  1  0  0  0  0
  9 23  1  0  0  0  0
  9 24  1  0  0  0  0
 10 25  1  0  0  0  0
M  END
$$$$
