C25H28O4
APtclcactv06231803083D 0   0.00000     0.00000
 
 57 58  0  0  0  0  0  0  0  0999 V2000
   -4.3459   -3.4972   -1.3994 C   0  0  0  0  0  0  0  0  0  0  0  0
   -5.7194   -3.4879   -0.7791 C   0  0  0  0  0  0  0  0  0  0  0  0
   -6.0036   -2.6310    0.1701 C   0  0  0  0  0  0  0  0  0  0  0  0
   -4.9981   -1.5788    0.5612 C   0  0  0  0  0  0  0  0  0  0  0  0
   -5.6467   -0.1958    0.4733 C   0  0  0  0  0  0  0  0  0  0  0  0
   -4.6412    0.8564    0.8643 C   0  0  0  0  0  0  0  0  0  0  0  0
   -3.9427    1.4700   -0.0586 C   0  0  0  0  0  0  0  0  0  0  0  0
   -3.0051    2.5862    0.3237 C   0  0  0  0  0  0  0  0  0  0  0  0
   -1.6285    2.2923   -0.2145 C   0  0  0  0  0  0  0  0  0  0  0  0
   -1.2692    2.7354   -1.4788 C   0  0  0  0  0  0  0  0  0  0  0  0
    0.0007    2.4673   -1.9819 C   0  0  0  0  0  0  0  0  0  0  0  0
    0.9094    1.7611   -1.2285 C   0  0  0  0  0  0  0  0  0  0  0  0
    0.5579    1.3099    0.0478 C   0  0  0  0  0  0  0  0  0  0  0  0
   -0.7212    1.5851    0.5555 C   0  0  0  0  0  0  0  0  0  0  0  0
   -1.0704    1.1517    1.7927 O   0  0  0  0  0  0  0  0  0  0  0  0
    1.5286    0.5523    0.8584 C   0  0  0  0  0  0  0  0  0  0  0  0
    1.2199    0.1605    1.9697 O   0  0  0  0  0  0  0  0  0  0  0  0
    2.8618    0.2712    0.3285 C   0  0  0  0  0  0  0  0  0  0  0  0
    3.7517   -0.4233    1.0715 C   0  0  0  0  0  0  0  0  0  0  0  0
    5.0916   -0.7058    0.5389 C   0  0  0  0  0  0  0  0  0  0  0  0
    6.0155   -1.4251    1.3066 C   0  0  0  0  0  0  0  0  0  0  0  0
    7.2694   -1.6870    0.8030 C   0  0  0  0  0  0  0  0  0  0  0  0
    7.6194   -1.2382   -0.4656 C   0  0  0  0  0  0  0  0  0  0  0  0
    6.7058   -0.5235   -1.2322 C   0  0  0  0  0  0  0  0  0  0  0  0
    5.4471   -0.2615   -0.7405 C   0  0  0  0  0  0  0  0  0  0  0  0
    8.8575   -1.4984   -0.9572 O   0  0  0  0  0  0  0  0  0  0  0  0
   -2.1598    3.4329   -2.2288 O   0  0  0  0  0  0  0  0  0  0  0  0
   -4.4392    1.2027    2.3170 C   0  0  0  0  0  0  0  0  0  0  0  0
   -6.7658   -4.4643   -1.2508 C   0  0  0  0  0  0  0  0  0  0  0  0
   -3.5950   -3.6108   -0.6175 H   0  0  0  0  0  0  0  0  0  0  0  0
   -4.2694   -4.3285   -2.1002 H   0  0  0  0  0  0  0  0  0  0  0  0
   -4.1801   -2.5591   -1.9290 H   0  0  0  0  0  0  0  0  0  0  0  0
   -6.9584   -2.6786    0.6724 H   0  0  0  0  0  0  0  0  0  0  0  0
   -4.6627   -1.7585    1.5826 H   0  0  0  0  0  0  0  0  0  0  0  0
   -4.1441   -1.6232   -0.1148 H   0  0  0  0  0  0  0  0  0  0  0  0
   -5.9821   -0.0161   -0.5482 H   0  0  0  0  0  0  0  0  0  0  0  0
   -6.5006   -0.1514    1.1492 H   0  0  0  0  0  0  0  0  0  0  0  0
   -4.0388    1.1760   -1.0933 H   0  0  0  0  0  0  0  0  0  0  0  0
   -3.3668    3.5245   -0.0967 H   0  0  0  0  0  0  0  0  0  0  0  0
   -2.9609    2.6677    1.4097 H   0  0  0  0  0  0  0  0  0  0  0  0
    0.2735    2.8148   -2.9674 H   0  0  0  0  0  0  0  0  0  0  0  0
    1.8936    1.5549   -1.6225 H   0  0  0  0  0  0  0  0  0  0  0  0
   -0.8709    1.7798    2.5004 H   0  0  0  0  0  0  0  0  0  0  0  0
    3.1355    0.6186   -0.6568 H   0  0  0  0  0  0  0  0  0  0  0  0
    3.4779   -0.7707    2.0568 H   0  0  0  0  0  0  0  0  0  0  0  0
    5.7448   -1.7736    2.2924 H   0  0  0  0  0  0  0  0  0  0  0  0
    7.9828   -2.2418    1.3943 H   0  0  0  0  0  0  0  0  0  0  0  0
    6.9826   -0.1771   -2.2169 H   0  0  0  0  0  0  0  0  0  0  0  0
    4.7381    0.2938   -1.3367 H   0  0  0  0  0  0  0  0  0  0  0  0
    8.9190   -2.3288   -1.4489 H   0  0  0  0  0  0  0  0  0  0  0  0
   -2.1205    4.3901   -2.0970 H   0  0  0  0  0  0  0  0  0  0  0  0
   -3.5997    0.6316    2.7133 H   0  0  0  0  0  0  0  0  0  0  0  0
   -4.2303    2.2683    2.4108 H   0  0  0  0  0  0  0  0  0  0  0  0
   -5.3416    0.9586    2.8776 H   0  0  0  0  0  0  0  0  0  0  0  0
   -6.7040   -5.3774   -0.6588 H   0  0  0  0  0  0  0  0  0  0  0  0
   -7.7550   -4.0216   -1.1337 H   0  0  0  0  0  0  0  0  0  0  0  0
   -6.5955   -4.7002   -2.3013 H   0  0  0  0  0  0  0  0  0  0  0  0
  1  2  1  0  0  0  0
  2  3  2  0  0  0  0
  3  4  1  0  0  0  0
  4  5  1  0  0  0  0
  5  6  1  0  0  0  0
  6  7  2  0  0  0  0
  7  8  1  0  0  0  0
  8  9  1  0  0  0  0
  9 10  2  0  0  0  0
 10 11  1  0  0  0  0
 11 12  2  0  0  0  0
 12 13  1  0  0  0  0
 13 14  2  0  0  0  0
  9 14  1  0  0  0  0
 14 15  1  0  0  0  0
 13 16  1  0  0  0  0
 16 17  2  0  0  0  0
 16 18  1  0  0  0  0
 18 19  2  0  0  0  0
 19 20  1  0  0  0  0
 20 21  2  0  0  0  0
 21 22  1  0  0  0  0
 22 23  2  0  0  0  0
 23 24  1  0  0  0  0
 24 25  2  0  0  0  0
 20 25  1  0  0  0  0
 23 26  1  0  0  0  0
 10 27  1  0  0  0  0
  6 28  1  0  0  0  0
  2 29  1  0  0  0  0
  1 30  1  0  0  0  0
  1 31  1  0  0  0  0
  1 32  1  0  0  0  0
  3 33  1  0  0  0  0
  4 34  1  0  0  0  0
  4 35  1  0  0  0  0
  5 36  1  0  0  0  0
  5 37  1  0  0  0  0
  7 38  1  0  0  0  0
  8 39  1  0  0  0  0
  8 40  1  0  0  0  0
 11 41  1  0  0  0  0
 12 42  1  0  0  0  0
 15 43  1  0  0  0  0
 18 44  1  0  0  0  0
 19 45  1  0  0  0  0
 21 46  1  0  0  0  0
 22 47  1  0  0  0  0
 24 48  1  0  0  0  0
 25 49  1  0  0  0  0
 26 50  1  0  0  0  0
 27 51  1  0  0  0  0
 28 52  1  0  0  0  0
 28 53  1  0  0  0  0
 28 54  1  0  0  0  0
 29 55  1  0  0  0  0
 29 56  1  0  0  0  0
 29 57  1  0  0  0  0
M  END
$$$$
