C15H26O
APtclcactv06281817203D 0   0.00000     0.00000
 
 42 43  0  0  0  0  0  0  0  0999 V2000
    1.3730    3.1150   -0.8110 C   0  0  0  0  0  0  0  0  0  0  0  0
    1.2905    1.7617   -0.1531 C   0  0  0  0  0  0  0  0  0  0  0  0
    2.2479    1.4021    0.6459 C   0  0  0  0  0  0  0  0  0  0  0  0
    2.2965    0.0984    1.3852 C   0  0  0  0  0  0  0  0  0  0  0  0
    1.2756   -0.8905    0.8145 C   0  0  0  0  0  0  0  0  0  0  0  0
   -0.0561   -0.1576    0.6486 C   0  0  0  0  0  0  0  0  0  0  0  0
    0.1054    0.8964   -0.4462 C   0  0  0  0  0  0  0  0  0  0  0  0
   -1.1850    1.7046   -0.5554 C   0  0  0  0  0  0  0  0  0  0  0  0
   -2.3282    0.7585   -0.9381 C   0  0  0  0  0  0  0  0  0  0  0  0
   -2.4791   -0.3362    0.1182 C   0  0  0  0  0  0  0  0  0  0  0  0
   -1.1727   -1.1207    0.2521 C   0  0  0  0  0  0  0  0  0  0  0  0
   -2.8260    0.3023    1.4646 C   0  0  0  0  0  0  0  0  0  0  0  0
   -3.5298   -1.2248   -0.2670 O   0  0  0  0  0  0  0  0  0  0  0  0
    1.7563   -1.4023   -0.5449 C   0  0  0  0  0  0  0  0  0  0  0  0
    3.1816   -1.9424   -0.4115 C   0  0  0  0  0  0  0  0  0  0  0  0
    0.8298   -2.5210   -1.0253 C   0  0  0  0  0  0  0  0  0  0  0  0
    2.2862    3.6184   -0.4933 H   0  0  0  0  0  0  0  0  0  0  0  0
    1.3837    2.9925   -1.8940 H   0  0  0  0  0  0  0  0  0  0  0  0
    0.5089    3.7131   -0.5215 H   0  0  0  0  0  0  0  0  0  0  0  0
    3.0678    2.0904    0.7881 H   0  0  0  0  0  0  0  0  0  0  0  0
    3.2961   -0.3270    1.2962 H   0  0  0  0  0  0  0  0  0  0  0  0
    2.0752    0.2748    2.4378 H   0  0  0  0  0  0  0  0  0  0  0  0
    1.1515   -1.7282    1.5008 H   0  0  0  0  0  0  0  0  0  0  0  0
   -0.3186    0.3345    1.5851 H   0  0  0  0  0  0  0  0  0  0  0  0
    0.2726    0.3920   -1.3979 H   0  0  0  0  0  0  0  0  0  0  0  0
   -1.4045    2.1738    0.4036 H   0  0  0  0  0  0  0  0  0  0  0  0
   -1.0725    2.4709   -1.3224 H   0  0  0  0  0  0  0  0  0  0  0  0
   -3.2574    1.3239   -1.0081 H   0  0  0  0  0  0  0  0  0  0  0  0
   -2.1114    0.3017   -1.9038 H   0  0  0  0  0  0  0  0  0  0  0  0
   -0.9269   -1.5870   -0.7021 H   0  0  0  0  0  0  0  0  0  0  0  0
   -1.2840   -1.8880    1.0182 H   0  0  0  0  0  0  0  0  0  0  0  0
   -3.7621    0.8535    1.3749 H   0  0  0  0  0  0  0  0  0  0  0  0
   -2.9340   -0.4769    2.2191 H   0  0  0  0  0  0  0  0  0  0  0  0
   -2.0290    0.9852    1.7590 H   0  0  0  0  0  0  0  0  0  0  0  0
   -4.3920   -0.7970   -0.3611 H   0  0  0  0  0  0  0  0  0  0  0  0
    1.7435   -0.5850   -1.2660 H   0  0  0  0  0  0  0  0  0  0  0  0
    3.1944   -2.7597    0.3096 H   0  0  0  0  0  0  0  0  0  0  0  0
    3.5240   -2.3070   -1.3799 H   0  0  0  0  0  0  0  0  0  0  0  0
    3.8416   -1.1454   -0.0692 H   0  0  0  0  0  0  0  0  0  0  0  0
    1.4070   -3.2537   -1.5894 H   0  0  0  0  0  0  0  0  0  0  0  0
    0.3691   -3.0060   -0.1647 H   0  0  0  0  0  0  0  0  0  0  0  0
    0.0532   -2.1004   -1.6642 H   0  0  0  0  0  0  0  0  0  0  0  0
  1  2  1  0  0  0  0
  2  3  2  0  0  0  0
  3  4  1  0  0  0  0
  4  5  1  0  0  0  0
  5  6  1  0  0  0  0
  6  7  1  0  0  0  0
  2  7  1  0  0  0  0
  7  8  1  0  0  0  0
  8  9  1  0  0  0  0
  9 10  1  0  0  0  0
 10 11  1  0  0  0  0
  6 11  1  0  0  0  0
 10 12  1  0  0  0  0
 10 13  1  0  0  0  0
  5 14  1  0  0  0  0
 14 15  1  0  0  0  0
 14 16  1  0  0  0  0
  1 17  1  0  0  0  0
  1 18  1  0  0  0  0
  1 19  1  0  0  0  0
  3 20  1  0  0  0  0
  4 21  1  0  0  0  0
  4 22  1  0  0  0  0
  5 23  1  0  0  0  0
  6 24  1  0  0  0  0
  7 25  1  0  0  0  0
  8 26  1  0  0  0  0
  8 27  1  0  0  0  0
  9 28  1  0  0  0  0
  9 29  1  0  0  0  0
 11 30  1  0  0  0  0
 11 31  1  0  0  0  0
 12 32  1  0  0  0  0
 12 33  1  0  0  0  0
 12 34  1  0  0  0  0
 13 35  1  0  0  0  0
 14 36  1  0  0  0  0
 15 37  1  0  0  0  0
 15 38  1  0  0  0  0
 15 39  1  0  0  0  0
 16 40  1  0  0  0  0
 16 41  1  0  0  0  0
 16 42  1  0  0  0  0
M  END
$$$$
