C15H24
APtclcactv06281816283D 0   0.00000     0.00000
 
 39 41  0  0  0  0  0  0  0  0999 V2000
    3.0023    1.6721    0.1967 C   0  0  0  0  0  0  0  0  0  0  0  0
    2.3172    0.4592   -0.4361 C   0  0  0  0  0  0  0  0  0  0  0  0
    2.8208   -0.8423    0.2298 C   0  0  0  0  0  0  0  0  0  0  0  0
    1.5585   -1.7388    0.3210 C   0  0  0  0  0  0  0  0  0  0  0  0
    0.4404   -0.7239    0.6590 C   0  0  0  0  0  0  0  0  0  0  0  0
    0.8175    0.5169   -0.1856 C   0  0  0  0  0  0  0  0  0  0  0  0
    0.3510    1.7930    0.4969 C   0  0  0  0  0  0  0  0  0  0  0  0
   -1.1548    1.8439    0.4969 C   0  0  0  0  0  0  0  0  0  0  0  0
   -1.9107    0.9969   -0.1340 C   0  0  0  0  0  0  0  0  0  0  0  0
   -1.3381   -0.1539   -0.9395 C   0  0  0  0  0  0  0  0  0  0  0  0
    0.0232    0.3487   -1.5004 C   0  0  0  0  0  0  0  0  0  0  0  0
   -0.9031   -1.2221    0.1010 C   0  0  0  0  0  0  0  0  0  0  0  0
   -0.7235   -2.5812   -0.5783 C   0  0  0  0  0  0  0  0  0  0  0  0
   -1.9388   -1.3219    1.2228 C   0  0  0  0  0  0  0  0  0  0  0  0
   -3.4068    1.1632   -0.0637 C   0  0  0  0  0  0  0  0  0  0  0  0
    4.0784    1.6064    0.0359 H   0  0  0  0  0  0  0  0  0  0  0  0
    2.6215    2.5847   -0.2618 H   0  0  0  0  0  0  0  0  0  0  0  0
    2.7952    1.6892    1.2666 H   0  0  0  0  0  0  0  0  0  0  0  0
    2.5177    0.4333   -1.5072 H   0  0  0  0  0  0  0  0  0  0  0  0
    3.5819   -1.3174   -0.3891 H   0  0  0  0  0  0  0  0  0  0  0  0
    3.2131   -0.6340    1.2252 H   0  0  0  0  0  0  0  0  0  0  0  0
    1.3615   -2.2264   -0.6337 H   0  0  0  0  0  0  0  0  0  0  0  0
    1.6648   -2.4754    1.1173 H   0  0  0  0  0  0  0  0  0  0  0  0
    0.3991   -0.4996    1.7249 H   0  0  0  0  0  0  0  0  0  0  0  0
    0.7148    1.8090    1.5243 H   0  0  0  0  0  0  0  0  0  0  0  0
    0.7435    2.6564   -0.0403 H   0  0  0  0  0  0  0  0  0  0  0  0
   -1.6352    2.6331    1.0561 H   0  0  0  0  0  0  0  0  0  0  0  0
   -2.0162   -0.5243   -1.7082 H   0  0  0  0  0  0  0  0  0  0  0  0
   -0.0902    1.3013   -2.0179 H   0  0  0  0  0  0  0  0  0  0  0  0
    0.4836   -0.3978   -2.1476 H   0  0  0  0  0  0  0  0  0  0  0  0
   -0.0663   -2.4722   -1.4410 H   0  0  0  0  0  0  0  0  0  0  0  0
   -0.2825   -3.2849    0.1278 H   0  0  0  0  0  0  0  0  0  0  0  0
   -1.6937   -2.9549   -0.9056 H   0  0  0  0  0  0  0  0  0  0  0  0
   -2.8972   -1.6312    0.8060 H   0  0  0  0  0  0  0  0  0  0  0  0
   -1.6085   -2.0556    1.9580 H   0  0  0  0  0  0  0  0  0  0  0  0
   -2.0484   -0.3498    1.7035 H   0  0  0  0  0  0  0  0  0  0  0  0
   -3.6475    2.0314    0.5498 H   0  0  0  0  0  0  0  0  0  0  0  0
   -3.8040    1.3070   -1.0686 H   0  0  0  0  0  0  0  0  0  0  0  0
   -3.8512    0.2715    0.3784 H   0  0  0  0  0  0  0  0  0  0  0  0
  1  2  1  0  0  0  0
  2  3  1  0  0  0  0
  3  4  1  0  0  0  0
  4  5  1  0  0  0  0
  5  6  1  0  0  0  0
  2  6  1  0  0  0  0
  6  7  1  0  0  0  0
  7  8  1  0  0  0  0
  8  9  2  0  0  0  0
  9 10  1  0  0  0  0
 10 11  1  0  0  0  0
  6 11  1  0  0  0  0
 10 12  1  0  0  0  0
  5 12  1  0  0  0  0
 12 13  1  0  0  0  0
 12 14  1  0  0  0  0
  9 15  1  0  0  0  0
  1 16  1  0  0  0  0
  1 17  1  0  0  0  0
  1 18  1  0  0  0  0
  2 19  1  0  0  0  0
  3 20  1  0  0  0  0
  3 21  1  0  0  0  0
  4 22  1  0  0  0  0
  4 23  1  0  0  0  0
  5 24  1  0  0  0  0
  7 25  1  0  0  0  0
  7 26  1  0  0  0  0
  8 27  1  0  0  0  0
 10 28  1  0  0  0  0
 11 29  1  0  0  0  0
 11 30  1  0  0  0  0
 13 31  1  0  0  0  0
 13 32  1  0  0  0  0
 13 33  1  0  0  0  0
 14 34  1  0  0  0  0
 14 35  1  0  0  0  0
 14 36  1  0  0  0  0
 15 37  1  0  0  0  0
 15 38  1  0  0  0  0
 15 39  1  0  0  0  0
M  END
$$$$
