C6H10O
APtclcactv06231803083D 0   0.00000     0.00000
 
 17 16  0  0  0  0  0  0  0  0999 V2000
    3.2471    0.8308    0.1928 C   0  0  0  0  0  0  0  0  0  0  0  0
    2.4463   -0.3032   -0.4502 C   0  0  0  0  0  0  0  0  0  0  0  0
    1.1536   -0.4938    0.3007 C   0  0  0  0  0  0  0  0  0  0  0  0
    0.0114   -0.4467   -0.3390 C   0  0  0  0  0  0  0  0  0  0  0  0
   -1.2812   -0.6373    0.4118 C   0  0  0  0  0  0  0  0  0  0  0  0
   -2.1879    0.5393    0.1578 C   0  0  0  0  0  0  0  0  0  0  0  0
   -3.3034    0.3608   -0.2689 O   0  0  0  0  0  0  0  0  0  0  0  0
    4.1821    0.9686   -0.3503 H   0  0  0  0  0  0  0  0  0  0  0  0
    2.6662    1.7523    0.1557 H   0  0  0  0  0  0  0  0  0  0  0  0
    3.4637    0.5793    1.2310 H   0  0  0  0  0  0  0  0  0  0  0  0
    2.2297   -0.0518   -1.4884 H   0  0  0  0  0  0  0  0  0  0  0  0
    3.0272   -1.2248   -0.4131 H   0  0  0  0  0  0  0  0  0  0  0  0
    1.1689   -0.6692    1.3663 H   0  0  0  0  0  0  0  0  0  0  0  0
   -0.0039   -0.2713   -1.4046 H   0  0  0  0  0  0  0  0  0  0  0  0
   -1.7679   -1.5513    0.0713 H   0  0  0  0  0  0  0  0  0  0  0  0
   -1.0737   -0.7123    1.4793 H   0  0  0  0  0  0  0  0  0  0  0  0
   -1.8400    1.5421    0.3573 H   0  0  0  0  0  0  0  0  0  0  0  0
  1  2  1  0  0  0  0
  2  3  1  0  0  0  0
  3  4  2  0  0  0  0
  4  5  1  0  0  0  0
  5  6  1  0  0  0  0
  6  7  2  0  0  0  0
  1  8  1  0  0  0  0
  1  9  1  0  0  0  0
  1 10  1  0  0  0  0
  2 11  1  0  0  0  0
  2 12  1  0  0  0  0
  3 13  1  0  0  0  0
  4 14  1  0  0  0  0
  5 15  1  0  0  0  0
  5 16  1  0  0  0  0
  6 17  1  0  0  0  0
M  END
$$$$
