C10H16
APtclcactv06281817203D 0   0.00000     0.00000
 
 26 27  0  0  0  0  0  0  0  0999 V2000
    2.5621   -0.9442    0.4135 C   0  0  0  0  0  0  0  0  0  0  0  0
    1.3171   -0.1107    0.7234 C   0  0  0  0  0  0  0  0  0  0  0  0
    1.3592    1.1704   -0.0738 C   0  0  0  0  0  0  0  0  0  0  0  0
    0.4303    1.4073   -0.9714 C   0  0  0  0  0  0  0  0  0  0  0  0
   -0.6548    0.3595   -1.1483 C   0  0  0  0  0  0  0  0  0  0  0  0
   -0.0596   -1.0605   -1.1794 C   0  0  0  0  0  0  0  0  0  0  0  0
    0.0613   -0.9106    0.3509 C   0  0  0  0  0  0  0  0  0  0  0  0
   -1.1972   -0.0320    0.2482 C   0  0  0  0  0  0  0  0  0  0  0  0
   -1.2283    1.1257    1.2480 C   0  0  0  0  0  0  0  0  0  0  0  0
   -2.5050   -0.8250    0.2052 C   0  0  0  0  0  0  0  0  0  0  0  0
    3.4543   -0.3782    0.6815 H   0  0  0  0  0  0  0  0  0  0  0  0
    2.5324   -1.8695    0.9889 H   0  0  0  0  0  0  0  0  0  0  0  0
    2.5868   -1.1788   -0.6507 H   0  0  0  0  0  0  0  0  0  0  0  0
    1.2940    0.1249    1.7874 H   0  0  0  0  0  0  0  0  0  0  0  0
    2.1486    1.8883    0.0932 H   0  0  0  0  0  0  0  0  0  0  0  0
    0.4375    2.3124   -1.5607 H   0  0  0  0  0  0  0  0  0  0  0  0
   -1.3917    0.5880   -1.9184 H   0  0  0  0  0  0  0  0  0  0  0  0
   -0.7667   -1.8285   -1.4930 H   0  0  0  0  0  0  0  0  0  0  0  0
    0.8994   -1.1257   -1.6935 H   0  0  0  0  0  0  0  0  0  0  0  0
   -0.0545   -1.8366    0.9142 H   0  0  0  0  0  0  0  0  0  0  0  0
   -0.3680    1.7736    1.0804 H   0  0  0  0  0  0  0  0  0  0  0  0
   -2.1460    1.6980    1.1128 H   0  0  0  0  0  0  0  0  0  0  0  0
   -1.1930    0.7301    2.2631 H   0  0  0  0  0  0  0  0  0  0  0  0
   -2.5997   -1.4192    1.1141 H   0  0  0  0  0  0  0  0  0  0  0  0
   -3.3459   -0.1353    0.1327 H   0  0  0  0  0  0  0  0  0  0  0  0
   -2.5010   -1.4856   -0.6618 H   0  0  0  0  0  0  0  0  0  0  0  0
  1  2  1  0  0  0  0
  2  3  1  0  0  0  0
  3  4  2  0  0  0  0
  4  5  1  0  0  0  0
  5  6  1  0  0  0  0
  6  7  1  0  0  0  0
  2  7  1  0  0  0  0
  7  8  1  0  0  0  0
  5  8  1  0  0  0  0
  8  9  1  0  0  0  0
  8 10  1  0  0  0  0
  1 11  1  0  0  0  0
  1 12  1  0  0  0  0
  1 13  1  0  0  0  0
  2 14  1  0  0  0  0
  3 15  1  0  0  0  0
  4 16  1  0  0  0  0
  5 17  1  0  0  0  0
  6 18  1  0  0  0  0
  6 19  1  0  0  0  0
  7 20  1  0  0  0  0
  9 21  1  0  0  0  0
  9 22  1  0  0  0  0
  9 23  1  0  0  0  0
 10 24  1  0  0  0  0
 10 25  1  0  0  0  0
 10 26  1  0  0  0  0
M  END
$$$$
