C10H18O
APtclcactv06281817203D 0   0.00000     0.00000
 
 29 29  0  0  0  0  0  0  0  0999 V2000
    3.6962    0.1142   -0.1091 C   0  0  0  0  0  0  0  0  0  0  0  0
    2.2234    0.1016    0.3051 C   0  0  0  0  0  0  0  0  0  0  0  0
    1.5502    1.3921   -0.1650 C   0  0  0  0  0  0  0  0  0  0  0  0
    0.1006    1.4279    0.3220 C   0  0  0  0  0  0  0  0  0  0  0  0
   -0.6801    0.2753   -0.3184 C   0  0  0  0  0  0  0  0  0  0  0  0
    0.0448   -1.0191   -0.0231 C   0  0  0  0  0  0  0  0  0  0  0  0
   -0.5413   -1.9631    0.4498 O   0  0  0  0  0  0  0  0  0  0  0  0
    1.5226   -1.1009   -0.3358 C   0  0  0  0  0  0  0  0  0  0  0  0
   -2.0909    0.2203    0.2712 C   0  0  0  0  0  0  0  0  0  0  0  0
   -2.8125    1.5400   -0.0088 C   0  0  0  0  0  0  0  0  0  0  0  0
   -2.8671   -0.9315   -0.3705 C   0  0  0  0  0  0  0  0  0  0  0  0
    4.1943    0.9703    0.3460 H   0  0  0  0  0  0  0  0  0  0  0  0
    4.1758   -0.8055    0.2260 H   0  0  0  0  0  0  0  0  0  0  0  0
    3.7679    0.1868   -1.1943 H   0  0  0  0  0  0  0  0  0  0  0  0
    2.1516    0.0285    1.3903 H   0  0  0  0  0  0  0  0  0  0  0  0
    2.0891    2.2495    0.2382 H   0  0  0  0  0  0  0  0  0  0  0  0
    1.5677    1.4339   -1.2540 H   0  0  0  0  0  0  0  0  0  0  0  0
    0.0788    1.3233    1.4067 H   0  0  0  0  0  0  0  0  0  0  0  0
   -0.3546    2.3769    0.0388 H   0  0  0  0  0  0  0  0  0  0  0  0
   -0.7364    0.4257   -1.3965 H   0  0  0  0  0  0  0  0  0  0  0  0
    1.6701   -1.0779   -1.4155 H   0  0  0  0  0  0  0  0  0  0  0  0
    1.9327   -2.0244    0.0730 H   0  0  0  0  0  0  0  0  0  0  0  0
   -2.0288    0.0613    1.3477 H   0  0  0  0  0  0  0  0  0  0  0  0
   -2.8745    1.6990   -1.0854 H   0  0  0  0  0  0  0  0  0  0  0  0
   -3.8176    1.5008    0.4112 H   0  0  0  0  0  0  0  0  0  0  0  0
   -2.2595    2.3606    0.4483 H   0  0  0  0  0  0  0  0  0  0  0  0
   -3.8722   -0.9708    0.0495 H   0  0  0  0  0  0  0  0  0  0  0  0
   -2.9292   -0.7726   -1.4471 H   0  0  0  0  0  0  0  0  0  0  0  0
   -2.3531   -1.8717   -0.1710 H   0  0  0  0  0  0  0  0  0  0  0  0
  1  2  1  0  0  0  0
  2  3  1  0  0  0  0
  3  4  1  0  0  0  0
  4  5  1  0  0  0  0
  5  6  1  0  0  0  0
  6  7  2  0  0  0  0
  6  8  1  0  0  0  0
  2  8  1  0  0  0  0
  5  9  1  0  0  0  0
  9 10  1  0  0  0  0
  9 11  1  0  0  0  0
  1 12  1  0  0  0  0
  1 13  1  0  0  0  0
  1 14  1  0  0  0  0
  2 15  1  0  0  0  0
  3 16  1  0  0  0  0
  3 17  1  0  0  0  0
  4 18  1  0  0  0  0
  4 19  1  0  0  0  0
  5 20  1  0  0  0  0
  8 21  1  0  0  0  0
  8 22  1  0  0  0  0
  9 23  1  0  0  0  0
 10 24  1  0  0  0  0
 10 25  1  0  0  0  0
 10 26  1  0  0  0  0
 11 27  1  0  0  0  0
 11 28  1  0  0  0  0
 11 29  1  0  0  0  0
M  END
$$$$
