C15H24
APtclcactv06281817203D 0   0.00000     0.00000
 
 39 39  0  0  0  0  0  0  0  0999 V2000
    3.9762    0.7677   -0.2468 C   0  0  0  0  0  0  0  0  0  0  0  0
    2.8940   -0.2811   -0.2432 C   0  0  0  0  0  0  0  0  0  0  0  0
    1.7038    0.0074    0.2217 C   0  0  0  0  0  0  0  0  0  0  0  0
    1.3576    1.4176    0.6459 C   0  0  0  0  0  0  0  0  0  0  0  0
    0.0545    1.8288   -0.0475 C   0  0  0  0  0  0  0  0  0  0  0  0
   -1.0310    0.7948    0.2561 C   0  0  0  0  0  0  0  0  0  0  0  0
   -0.6368   -0.5597   -0.3350 C   0  0  0  0  0  0  0  0  0  0  0  0
    0.6384   -1.0597    0.3422 C   0  0  0  0  0  0  0  0  0  0  0  0
   -1.7498   -1.5501   -0.1082 C   0  0  0  0  0  0  0  0  0  0  0  0
   -1.6500   -2.4399    0.8480 C   0  0  0  0  0  0  0  0  0  0  0  0
   -2.9775   -1.5170   -0.9815 C   0  0  0  0  0  0  0  0  0  0  0  0
   -1.1953    0.6600    1.7713 C   0  0  0  0  0  0  0  0  0  0  0  0
   -2.3353    1.2453   -0.3496 C   0  0  0  0  0  0  0  0  0  0  0  0
   -2.3946    2.3737   -1.0124 C   0  0  0  0  0  0  0  0  0  0  0  0
    3.1811   -1.6618   -0.7745 C   0  0  0  0  0  0  0  0  0  0  0  0
    4.1025    1.1629    0.7611 H   0  0  0  0  0  0  0  0  0  0  0  0
    4.9127    0.3223   -0.5825 H   0  0  0  0  0  0  0  0  0  0  0  0
    3.6960    1.5765   -0.9217 H   0  0  0  0  0  0  0  0  0  0  0  0
    1.2237    1.4522    1.7271 H   0  0  0  0  0  0  0  0  0  0  0  0
    2.1587    2.0955    0.3515 H   0  0  0  0  0  0  0  0  0  0  0  0
   -0.2605    2.8053    0.3203 H   0  0  0  0  0  0  0  0  0  0  0  0
    0.2163    1.8805   -1.1242 H   0  0  0  0  0  0  0  0  0  0  0  0
   -0.4586   -0.4515   -1.4049 H   0  0  0  0  0  0  0  0  0  0  0  0
    0.9773   -1.9740   -0.1449 H   0  0  0  0  0  0  0  0  0  0  0  0
    0.4409   -1.2547    1.3962 H   0  0  0  0  0  0  0  0  0  0  0  0
   -2.4476   -3.1497    1.0106 H   0  0  0  0  0  0  0  0  0  0  0  0
   -0.7701   -2.4637    1.4739 H   0  0  0  0  0  0  0  0  0  0  0  0
   -2.8416   -0.7784   -1.7715 H   0  0  0  0  0  0  0  0  0  0  0  0
   -3.1339   -2.4998   -1.4259 H   0  0  0  0  0  0  0  0  0  0  0  0
   -3.8450   -1.2486   -0.3786 H   0  0  0  0  0  0  0  0  0  0  0  0
   -1.3981    1.6400    2.2034 H   0  0  0  0  0  0  0  0  0  0  0  0
   -2.0258   -0.0117    1.9883 H   0  0  0  0  0  0  0  0  0  0  0  0
   -0.2790    0.2558    2.2016 H   0  0  0  0  0  0  0  0  0  0  0  0
   -3.2211    0.6378   -0.2373 H   0  0  0  0  0  0  0  0  0  0  0  0
   -1.5087    2.9812   -1.1247 H   0  0  0  0  0  0  0  0  0  0  0  0
   -3.3293    2.6965   -1.4465 H   0  0  0  0  0  0  0  0  0  0  0  0
    4.2360   -1.7376   -1.0383 H   0  0  0  0  0  0  0  0  0  0  0  0
    2.9437   -2.4018   -0.0101 H   0  0  0  0  0  0  0  0  0  0  0  0
    2.5713   -1.8448   -1.6592 H   0  0  0  0  0  0  0  0  0  0  0  0
  1  2  1  0  0  0  0
  2  3  2  0  0  0  0
  3  4  1  0  0  0  0
  4  5  1  0  0  0  0
  5  6  1  0  0  0  0
  6  7  1  0  0  0  0
  7  8  1  0  0  0  0
  3  8  1  0  0  0  0
  7  9  1  0  0  0  0
  9 10  2  0  0  0  0
  9 11  1  0  0  0  0
  6 12  1  0  0  0  0
  6 13  1  0  0  0  0
 13 14  2  0  0  0  0
  2 15  1  0  0  0  0
  1 16  1  0  0  0  0
  1 17  1  0  0  0  0
  1 18  1  0  0  0  0
  4 19  1  0  0  0  0
  4 20  1  0  0  0  0
  5 21  1  0  0  0  0
  5 22  1  0  0  0  0
  7 23  1  0  0  0  0
  8 24  1  0  0  0  0
  8 25  1  0  0  0  0
 10 26  1  0  0  0  0
 10 27  1  0  0  0  0
 11 28  1  0  0  0  0
 11 29  1  0  0  0  0
 11 30  1  0  0  0  0
 12 31  1  0  0  0  0
 12 32  1  0  0  0  0
 12 33  1  0  0  0  0
 13 34  1  0  0  0  0
 14 35  1  0  0  0  0
 14 36  1  0  0  0  0
 15 37  1  0  0  0  0
 15 38  1  0  0  0  0
 15 39  1  0  0  0  0
M  END
$$$$
