C22H42O2
APtclcactv06281816293D 0   0.00000     0.00000
 
 66 65  0  0  0  0  0  0  0  0999 V2000
   14.2118   -0.0720   -0.2564 C   0  0  0  0  0  0  0  0  0  0  0  0
   12.9326    0.7376   -0.0346 C   0  0  0  0  0  0  0  0  0  0  0  0
   11.7159   -0.1739   -0.2070 C   0  0  0  0  0  0  0  0  0  0  0  0
   10.4367    0.6357    0.0148 C   0  0  0  0  0  0  0  0  0  0  0  0
    9.2200   -0.2758   -0.1577 C   0  0  0  0  0  0  0  0  0  0  0  0
    7.9408    0.5337    0.0641 C   0  0  0  0  0  0  0  0  0  0  0  0
    6.7241   -0.3777   -0.1083 C   0  0  0  0  0  0  0  0  0  0  0  0
    5.4449    0.4318    0.1135 C   0  0  0  0  0  0  0  0  0  0  0  0
    4.2282   -0.4796   -0.0589 C   0  0  0  0  0  0  0  0  0  0  0  0
    2.9490    0.3299    0.1628 C   0  0  0  0  0  0  0  0  0  0  0  0
    1.7323   -0.5816   -0.0096 C   0  0  0  0  0  0  0  0  0  0  0  0
    0.4531    0.2280    0.2122 C   0  0  0  0  0  0  0  0  0  0  0  0
   -0.7636   -0.6835    0.0398 C   0  0  0  0  0  0  0  0  0  0  0  0
   -2.0428    0.1261    0.2616 C   0  0  0  0  0  0  0  0  0  0  0  0
   -3.2595   -0.7854    0.0892 C   0  0  0  0  0  0  0  0  0  0  0  0
   -4.5387    0.0242    0.3109 C   0  0  0  0  0  0  0  0  0  0  0  0
   -5.7555   -0.8873    0.1385 C   0  0  0  0  0  0  0  0  0  0  0  0
   -7.0347   -0.0778    0.3603 C   0  0  0  0  0  0  0  0  0  0  0  0
   -8.2514   -0.9892    0.1879 C   0  0  0  0  0  0  0  0  0  0  0  0
   -9.5113   -0.1919    0.4063 C   0  0  0  0  0  0  0  0  0  0  0  0
  -10.4566   -0.1714   -0.5302 C   0  0  0  0  0  0  0  0  0  0  0  0
  -11.6852    0.6062   -0.3172 C   0  0  0  0  0  0  0  0  0  0  0  0
  -11.8381    1.2305    0.7142 O   0  0  0  0  0  0  0  0  0  0  0  0
  -12.6427    0.6269   -1.2658 O   0  0  0  0  0  0  0  0  0  0  0  0
   14.2593   -0.8828    0.4706 H   0  0  0  0  0  0  0  0  0  0  0  0
   14.2089   -0.4873   -1.2642 H   0  0  0  0  0  0  0  0  0  0  0  0
   15.0786    0.5774   -0.1336 H   0  0  0  0  0  0  0  0  0  0  0  0
   12.9356    1.1529    0.9732 H   0  0  0  0  0  0  0  0  0  0  0  0
   12.8852    1.5484   -0.7616 H   0  0  0  0  0  0  0  0  0  0  0  0
   11.7130   -0.5892   -1.2148 H   0  0  0  0  0  0  0  0  0  0  0  0
   11.7634   -0.9847    0.5199 H   0  0  0  0  0  0  0  0  0  0  0  0
   10.4397    1.0510    1.0225 H   0  0  0  0  0  0  0  0  0  0  0  0
   10.3892    1.4464   -0.7122 H   0  0  0  0  0  0  0  0  0  0  0  0
    9.2170   -0.6911   -1.1654 H   0  0  0  0  0  0  0  0  0  0  0  0
    9.2675   -1.0866    0.5693 H   0  0  0  0  0  0  0  0  0  0  0  0
    7.9438    0.9490    1.0719 H   0  0  0  0  0  0  0  0  0  0  0  0
    7.8933    1.3445   -0.6628 H   0  0  0  0  0  0  0  0  0  0  0  0
    6.7211   -0.7930   -1.1161 H   0  0  0  0  0  0  0  0  0  0  0  0
    6.7716   -1.1885    0.6187 H   0  0  0  0  0  0  0  0  0  0  0  0
    5.4479    0.8471    1.1213 H   0  0  0  0  0  0  0  0  0  0  0  0
    5.3974    1.2426   -0.6135 H   0  0  0  0  0  0  0  0  0  0  0  0
    4.2252   -0.8949   -1.0667 H   0  0  0  0  0  0  0  0  0  0  0  0
    4.2757   -1.2904    0.6680 H   0  0  0  0  0  0  0  0  0  0  0  0
    2.9520    0.7452    1.1706 H   0  0  0  0  0  0  0  0  0  0  0  0
    2.9015    1.1407   -0.5641 H   0  0  0  0  0  0  0  0  0  0  0  0
    1.7293   -0.9969   -1.0173 H   0  0  0  0  0  0  0  0  0  0  0  0
    1.7798   -1.3924    0.7174 H   0  0  0  0  0  0  0  0  0  0  0  0
    0.4561    0.6433    1.2200 H   0  0  0  0  0  0  0  0  0  0  0  0
    0.4056    1.0388   -0.5147 H   0  0  0  0  0  0  0  0  0  0  0  0
   -0.7666   -1.0988   -0.9680 H   0  0  0  0  0  0  0  0  0  0  0  0
   -0.7161   -1.4943    0.7668 H   0  0  0  0  0  0  0  0  0  0  0  0
   -2.0399    0.5414    1.2694 H   0  0  0  0  0  0  0  0  0  0  0  0
   -2.0903    0.9369   -0.4654 H   0  0  0  0  0  0  0  0  0  0  0  0
   -3.2625   -1.2007   -0.9186 H   0  0  0  0  0  0  0  0  0  0  0  0
   -3.2121   -1.5962    0.8161 H   0  0  0  0  0  0  0  0  0  0  0  0
   -4.5358    0.4394    1.3187 H   0  0  0  0  0  0  0  0  0  0  0  0
   -4.5862    0.8349   -0.4160 H   0  0  0  0  0  0  0  0  0  0  0  0
   -5.7584   -1.3026   -0.8692 H   0  0  0  0  0  0  0  0  0  0  0  0
   -5.7080   -1.6981    0.8655 H   0  0  0  0  0  0  0  0  0  0  0  0
   -7.0317    0.3375    1.3681 H   0  0  0  0  0  0  0  0  0  0  0  0
   -7.0821    0.7330   -0.3666 H   0  0  0  0  0  0  0  0  0  0  0  0
   -8.2543   -1.4045   -0.8199 H   0  0  0  0  0  0  0  0  0  0  0  0
   -8.2039   -1.8000    0.9149 H   0  0  0  0  0  0  0  0  0  0  0  0
   -9.6472    0.3630    1.3229 H   0  0  0  0  0  0  0  0  0  0  0  0
  -10.3208   -0.7262   -1.4468 H   0  0  0  0  0  0  0  0  0  0  0  0
  -13.4330    1.1524   -1.0805 H   0  0  0  0  0  0  0  0  0  0  0  0
  1  2  1  0  0  0  0
  2  3  1  0  0  0  0
  3  4  1  0  0  0  0
  4  5  1  0  0  0  0
  5  6  1  0  0  0  0
  6  7  1  0  0  0  0
  7  8  1  0  0  0  0
  8  9  1  0  0  0  0
  9 10  1  0  0  0  0
 10 11  1  0  0  0  0
 11 12  1  0  0  0  0
 12 13  1  0  0  0  0
 13 14  1  0  0  0  0
 14 15  1  0  0  0  0
 15 16  1  0  0  0  0
 16 17  1  0  0  0  0
 17 18  1  0  0  0  0
 18 19  1  0  0  0  0
 19 20  1  0  0  0  0
 20 21  2  0  0  0  0
 21 22  1  0  0  0  0
 22 23  2  0  0  0  0
 22 24  1  0  0  0  0
  1 25  1  0  0  0  0
  1 26  1  0  0  0  0
  1 27  1  0  0  0  0
  2 28  1  0  0  0  0
  2 29  1  0  0  0  0
  3 30  1  0  0  0  0
  3 31  1  0  0  0  0
  4 32  1  0  0  0  0
  4 33  1  0  0  0  0
  5 34  1  0  0  0  0
  5 35  1  0  0  0  0
  6 36  1  0  0  0  0
  6 37  1  0  0  0  0
  7 38  1  0  0  0  0
  7 39  1  0  0  0  0
  8 40  1  0  0  0  0
  8 41  1  0  0  0  0
  9 42  1  0  0  0  0
  9 43  1  0  0  0  0
 10 44  1  0  0  0  0
 10 45  1  0  0  0  0
 11 46  1  0  0  0  0
 11 47  1  0  0  0  0
 12 48  1  0  0  0  0
 12 49  1  0  0  0  0
 13 50  1  0  0  0  0
 13 51  1  0  0  0  0
 14 52  1  0  0  0  0
 14 53  1  0  0  0  0
 15 54  1  0  0  0  0
 15 55  1  0  0  0  0
 16 56  1  0  0  0  0
 16 57  1  0  0  0  0
 17 58  1  0  0  0  0
 17 59  1  0  0  0  0
 18 60  1  0  0  0  0
 18 61  1  0  0  0  0
 19 62  1  0  0  0  0
 19 63  1  0  0  0  0
 20 64  1  0  0  0  0
 21 65  1  0  0  0  0
 24 66  1  0  0  0  0
M  END
$$$$
