C9H16O
APtclcactv06281817203D 0   0.00000     0.00000
 
 26 25  0  0  0  0  0  0  0  0999 V2000
   -4.6270   -1.3051    0.6222 C   0  0  0  0  0  0  0  0  0  0  0  0
   -4.0057   -0.5815   -0.5742 C   0  0  0  0  0  0  0  0  0  0  0  0
   -2.9942    0.4224   -0.0841 C   0  0  0  0  0  0  0  0  0  0  0  0
   -1.7637    0.3844   -0.5318 C   0  0  0  0  0  0  0  0  0  0  0  0
   -0.7521    1.3882   -0.0418 C   0  0  0  0  0  0  0  0  0  0  0  0
    0.4464    0.6633    0.5140 C   0  0  0  0  0  0  0  0  0  0  0  0
    1.6440    0.9295    0.0547 C   0  0  0  0  0  0  0  0  0  0  0  0
    2.8426    0.2046    0.6105 C   0  0  0  0  0  0  0  0  0  0  0  0
    3.6138   -0.4573   -0.5332 C   0  0  0  0  0  0  0  0  0  0  0  0
    4.7504   -1.1447   -0.0061 O   0  0  0  0  0  0  0  0  0  0  0  0
   -5.1194   -0.5797    1.2699 H   0  0  0  0  0  0  0  0  0  0  0  0
   -5.3586   -2.0311    0.2678 H   0  0  0  0  0  0  0  0  0  0  0  0
   -3.8457   -1.8199    1.1813 H   0  0  0  0  0  0  0  0  0  0  0  0
   -3.5133   -1.3069   -1.2218 H   0  0  0  0  0  0  0  0  0  0  0  0
   -4.7870   -0.0667   -1.1332 H   0  0  0  0  0  0  0  0  0  0  0  0
   -3.2837    1.1732    0.6362 H   0  0  0  0  0  0  0  0  0  0  0  0
   -1.4741   -0.3664   -1.2522 H   0  0  0  0  0  0  0  0  0  0  0  0
   -0.4402    2.0239   -0.8705 H   0  0  0  0  0  0  0  0  0  0  0  0
   -1.1994    2.0030    0.7393 H   0  0  0  0  0  0  0  0  0  0  0  0
    0.3181   -0.0758    1.2910 H   0  0  0  0  0  0  0  0  0  0  0  0
    1.7724    1.6686   -0.7223 H   0  0  0  0  0  0  0  0  0  0  0  0
    3.4914    0.9149    1.1230 H   0  0  0  0  0  0  0  0  0  0  0  0
    2.5113   -0.5585    1.3148 H   0  0  0  0  0  0  0  0  0  0  0  0
    2.9651   -1.1676   -1.0457 H   0  0  0  0  0  0  0  0  0  0  0  0
    3.9452    0.3058   -1.2374 H   0  0  0  0  0  0  0  0  0  0  0  0
    5.2871   -1.5890   -0.6766 H   0  0  0  0  0  0  0  0  0  0  0  0
  1  2  1  0  0  0  0
  2  3  1  0  0  0  0
  3  4  2  0  0  0  0
  4  5  1  0  0  0  0
  5  6  1  0  0  0  0
  6  7  2  0  0  0  0
  7  8  1  0  0  0  0
  8  9  1  0  0  0  0
  9 10  1  0  0  0  0
  1 11  1  0  0  0  0
  1 12  1  0  0  0  0
  1 13  1  0  0  0  0
  2 14  1  0  0  0  0
  2 15  1  0  0  0  0
  3 16  1  0  0  0  0
  4 17  1  0  0  0  0
  5 18  1  0  0  0  0
  5 19  1  0  0  0  0
  6 20  1  0  0  0  0
  7 21  1  0  0  0  0
  8 22  1  0  0  0  0
  8 23  1  0  0  0  0
  9 24  1  0  0  0  0
  9 25  1  0  0  0  0
 10 26  1  0  0  0  0
M  END
$$$$
