C15H24
APtclcactv06281817003D 0   0.00000     0.00000
 
 39 39  0  0  0  0  0  0  0  0999 V2000
    2.3032    3.2322    0.2663 C   0  0  0  0  0  0  0  0  0  0  0  0
    1.7183    1.8566   -0.0137 C   0  0  0  0  0  0  0  0  0  0  0  0
    2.5791    0.9067   -0.0002 C   0  0  0  0  0  0  0  0  0  0  0  0
    2.3944   -0.5539   -0.2296 C   0  0  0  0  0  0  0  0  0  0  0  0
    1.4061   -1.1545    0.7733 C   0  0  0  0  0  0  0  0  0  0  0  0
    0.7806   -2.3918    0.1988 C   0  0  0  0  0  0  0  0  0  0  0  0
    1.5217   -3.5029    0.1836 C   0  0  0  0  0  0  0  0  0  0  0  0
   -0.5682   -2.4690   -0.3410 C   0  0  0  0  0  0  0  0  0  0  0  0
   -1.4666   -1.5259   -0.4555 C   0  0  0  0  0  0  0  0  0  0  0  0
   -1.3157   -0.0923   -0.0464 C   0  0  0  0  0  0  0  0  0  0  0  0
   -0.2941    0.6105   -0.9433 C   0  0  0  0  0  0  0  0  0  0  0  0
    0.2480    1.8437   -0.2444 C   0  0  0  0  0  0  0  0  0  0  0  0
   -2.6735    0.6073   -0.1964 C   0  0  0  0  0  0  0  0  0  0  0  0
   -3.7045   -0.0830    0.6988 C   0  0  0  0  0  0  0  0  0  0  0  0
   -2.5398    2.0743    0.2172 C   0  0  0  0  0  0  0  0  0  0  0  0
    3.3772    3.1439    0.4301 H   0  0  0  0  0  0  0  0  0  0  0  0
    2.1182    3.8860   -0.5860 H   0  0  0  0  0  0  0  0  0  0  0  0
    1.8335    3.6527    1.1554 H   0  0  0  0  0  0  0  0  0  0  0  0
    3.6059    1.2254    0.2157 H   0  0  0  0  0  0  0  0  0  0  0  0
    2.0589   -0.7425   -1.2452 H   0  0  0  0  0  0  0  0  0  0  0  0
    3.3626   -1.0566   -0.1032 H   0  0  0  0  0  0  0  0  0  0  0  0
    1.9579   -1.4320    1.6789 H   0  0  0  0  0  0  0  0  0  0  0  0
    0.6556   -0.4264    1.0401 H   0  0  0  0  0  0  0  0  0  0  0  0
    2.5281   -3.4861    0.5750 H   0  0  0  0  0  0  0  0  0  0  0  0
    1.1144   -4.4181   -0.2201 H   0  0  0  0  0  0  0  0  0  0  0  0
   -0.8744   -3.4590   -0.6981 H   0  0  0  0  0  0  0  0  0  0  0  0
   -2.4268   -1.8177   -0.8890 H   0  0  0  0  0  0  0  0  0  0  0  0
   -1.0038   -0.0304    0.9950 H   0  0  0  0  0  0  0  0  0  0  0  0
    0.5030   -0.0711   -1.2115 H   0  0  0  0  0  0  0  0  0  0  0  0
   -0.8033    0.9200   -1.8666 H   0  0  0  0  0  0  0  0  0  0  0  0
   -0.2622    1.9629    0.7170 H   0  0  0  0  0  0  0  0  0  0  0  0
   -0.0097    2.7228   -0.8542 H   0  0  0  0  0  0  0  0  0  0  0  0
   -2.9985    0.5509   -1.2353 H   0  0  0  0  0  0  0  0  0  0  0  0
   -4.6688    0.4138    0.5923 H   0  0  0  0  0  0  0  0  0  0  0  0
   -3.7997   -1.1281    0.4041 H   0  0  0  0  0  0  0  0  0  0  0  0
   -3.3795   -0.0266    1.7377 H   0  0  0  0  0  0  0  0  0  0  0  0
   -1.8053    2.5661   -0.4205 H   0  0  0  0  0  0  0  0  0  0  0  0
   -3.5041    2.5711    0.1107 H   0  0  0  0  0  0  0  0  0  0  0  0
   -2.2148    2.1307    1.2561 H   0  0  0  0  0  0  0  0  0  0  0  0
  1  2  1  0  0  0  0
  2  3  2  0  0  0  0
  3  4  1  0  0  0  0
  4  5  1  0  0  0  0
  5  6  1  0  0  0  0
  6  7  2  0  0  0  0
  6  8  1  0  0  0  0
  8  9  2  0  0  0  0
  9 10  1  0  0  0  0
 10 11  1  0  0  0  0
 11 12  1  0  0  0  0
  2 12  1  0  0  0  0
 10 13  1  0  0  0  0
 13 14  1  0  0  0  0
 13 15  1  0  0  0  0
  1 16  1  0  0  0  0
  1 17  1  0  0  0  0
  1 18  1  0  0  0  0
  3 19  1  0  0  0  0
  4 20  1  0  0  0  0
  4 21  1  0  0  0  0
  5 22  1  0  0  0  0
  5 23  1  0  0  0  0
  7 24  1  0  0  0  0
  7 25  1  0  0  0  0
  8 26  1  0  0  0  0
  9 27  1  0  0  0  0
 10 28  1  0  0  0  0
 11 29  1  0  0  0  0
 11 30  1  0  0  0  0
 12 31  1  0  0  0  0
 12 32  1  0  0  0  0
 13 33  1  0  0  0  0
 14 34  1  0  0  0  0
 14 35  1  0  0  0  0
 14 36  1  0  0  0  0
 15 37  1  0  0  0  0
 15 38  1  0  0  0  0
 15 39  1  0  0  0  0
M  END
$$$$
