C11H20O2
APtclcactv06281817213D 0   0.00000     0.00000
 
 33 32  0  0  0  0  0  0  0  0999 V2000
    5.6533    0.2035   -0.3966 C   0  0  0  0  0  0  0  0  0  0  0  0
    4.3292    0.9169   -0.1160 C   0  0  0  0  0  0  0  0  0  0  0  0
    3.1852   -0.0985   -0.1523 C   0  0  0  0  0  0  0  0  0  0  0  0
    3.3557   -1.1001    0.9916 C   0  0  0  0  0  0  0  0  0  0  0  0
    1.8499    0.6319    0.0041 C   0  0  0  0  0  0  0  0  0  0  0  0
    0.7011   -0.3657   -0.1568 C   0  0  0  0  0  0  0  0  0  0  0  0
   -0.5662    0.3274   -0.0083 O   0  0  0  0  0  0  0  0  0  0  0  0
   -1.6862   -0.4138   -0.1231 C   0  0  0  0  0  0  0  0  0  0  0  0
   -1.6058   -1.6067   -0.3412 O   0  0  0  0  0  0  0  0  0  0  0  0
   -3.0045    0.2206    0.0156 C   0  0  0  0  0  0  0  0  0  0  0  0
   -4.1103   -0.5112   -0.0977 C   0  0  0  0  0  0  0  0  0  0  0  0
   -5.4622    0.1394    0.0445 C   0  0  0  0  0  0  0  0  0  0  0  0
   -3.1042    1.6997    0.2861 C   0  0  0  0  0  0  0  0  0  0  0  0
    5.8219   -0.5611    0.3618 H   0  0  0  0  0  0  0  0  0  0  0  0
    5.6131   -0.2634   -1.3807 H   0  0  0  0  0  0  0  0  0  0  0  0
    6.4683    0.9269   -0.3707 H   0  0  0  0  0  0  0  0  0  0  0  0
    4.3694    1.3838    0.8681 H   0  0  0  0  0  0  0  0  0  0  0  0
    4.1606    1.6815   -0.8743 H   0  0  0  0  0  0  0  0  0  0  0  0
    3.2000   -0.6286   -1.1046 H   0  0  0  0  0  0  0  0  0  0  0  0
    3.3409   -0.5699    1.9439 H   0  0  0  0  0  0  0  0  0  0  0  0
    2.5407   -1.8234    0.9657 H   0  0  0  0  0  0  0  0  0  0  0  0
    4.3070   -1.6204    0.8802 H   0  0  0  0  0  0  0  0  0  0  0  0
    1.7990    1.0883    0.9926 H   0  0  0  0  0  0  0  0  0  0  0  0
    1.7679    1.4065   -0.7584 H   0  0  0  0  0  0  0  0  0  0  0  0
    0.7519   -0.8221   -1.1453 H   0  0  0  0  0  0  0  0  0  0  0  0
    0.7830   -1.1403    0.6058 H   0  0  0  0  0  0  0  0  0  0  0  0
   -4.0388   -1.5712   -0.2916 H   0  0  0  0  0  0  0  0  0  0  0  0
   -6.2419   -0.6124   -0.0783 H   0  0  0  0  0  0  0  0  0  0  0  0
   -5.5457    0.5914    1.0328 H   0  0  0  0  0  0  0  0  0  0  0  0
   -5.5768    0.9096   -0.7183 H   0  0  0  0  0  0  0  0  0  0  0  0
   -3.1462    2.2400   -0.6597 H   0  0  0  0  0  0  0  0  0  0  0  0
   -4.0072    1.9038    0.8615 H   0  0  0  0  0  0  0  0  0  0  0  0
   -2.2314    2.0253    0.8520 H   0  0  0  0  0  0  0  0  0  0  0  0
  1  2  1  0  0  0  0
  2  3  1  0  0  0  0
  3  4  1  0  0  0  0
  3  5  1  0  0  0  0
  5  6  1  0  0  0  0
  6  7  1  0  0  0  0
  7  8  1  0  0  0  0
  8  9  2  0  0  0  0
  8 10  1  0  0  0  0
 10 11  2  0  0  0  0
 11 12  1  0  0  0  0
 10 13  1  0  0  0  0
  1 14  1  0  0  0  0
  1 15  1  0  0  0  0
  1 16  1  0  0  0  0
  2 17  1  0  0  0  0
  2 18  1  0  0  0  0
  3 19  1  0  0  0  0
  4 20  1  0  0  0  0
  4 21  1  0  0  0  0
  4 22  1  0  0  0  0
  5 23  1  0  0  0  0
  5 24  1  0  0  0  0
  6 25  1  0  0  0  0
  6 26  1  0  0  0  0
 11 27  1  0  0  0  0
 12 28  1  0  0  0  0
 12 29  1  0  0  0  0
 12 30  1  0  0  0  0
 13 31  1  0  0  0  0
 13 32  1  0  0  0  0
 13 33  1  0  0  0  0
M  END
$$$$
