C16H14O5
APtclcactv06281817213D 0   0.00000     0.00000
 
 35 36  0  0  0  0  0  0  0  0999 V2000
    5.6921    2.1341   -0.0070 C   0  0  0  0  0  0  0  0  0  0  0  0
    5.7305    0.7056   -0.0127 O   0  0  0  0  0  0  0  0  0  0  0  0
    4.5358    0.0559   -0.0112 C   0  0  0  0  0  0  0  0  0  0  0  0
    4.5006   -1.3383   -0.0166 C   0  0  0  0  0  0  0  0  0  0  0  0
    3.2830   -2.0063   -0.0155 C   0  0  0  0  0  0  0  0  0  0  0  0
    2.1034   -1.2955   -0.0088 C   0  0  0  0  0  0  0  0  0  0  0  0
    2.1302    0.1042   -0.0029 C   0  0  0  0  0  0  0  0  0  0  0  0
    3.3582    0.7766    0.0013 C   0  0  0  0  0  0  0  0  0  0  0  0
    0.8734    0.8653    0.0042 C   0  0  0  0  0  0  0  0  0  0  0  0
   -0.3109    0.2141    0.0052 C   0  0  0  0  0  0  0  0  0  0  0  0
   -1.5613    0.9713    0.0124 C   0  0  0  0  0  0  0  0  0  0  0  0
   -1.5359    2.1892    0.0174 O   0  0  0  0  0  0  0  0  0  0  0  0
   -2.8532    0.2610    0.0134 C   0  0  0  0  0  0  0  0  0  0  0  0
   -4.0553    0.9851    0.0203 C   0  0  0  0  0  0  0  0  0  0  0  0
   -5.2639    0.3102    0.0207 C   0  0  0  0  0  0  0  0  0  0  0  0
   -5.2846   -1.0767    0.0149 C   0  0  0  0  0  0  0  0  0  0  0  0
   -4.0930   -1.7963    0.0085 C   0  0  0  0  0  0  0  0  0  0  0  0
   -2.8857   -1.1372    0.0017 C   0  0  0  0  0  0  0  0  0  0  0  0
   -6.4715   -1.7348    0.0158 O   0  0  0  0  0  0  0  0  0  0  0  0
   -4.0330    2.3416    0.0269 O   0  0  0  0  0  0  0  0  0  0  0  0
    5.6605   -2.0448   -0.0233 O   0  0  0  0  0  0  0  0  0  0  0  0
    6.7096    2.5249   -0.0089 H   0  0  0  0  0  0  0  0  0  0  0  0
    5.1657    2.4870   -0.8938 H   0  0  0  0  0  0  0  0  0  0  0  0
    5.1717    2.4800    0.8861 H   0  0  0  0  0  0  0  0  0  0  0  0
    3.2612   -3.0861   -0.0204 H   0  0  0  0  0  0  0  0  0  0  0  0
    1.1580   -1.8177   -0.0084 H   0  0  0  0  0  0  0  0  0  0  0  0
    3.3843    1.8563    0.0061 H   0  0  0  0  0  0  0  0  0  0  0  0
    0.8960    1.9450    0.0088 H   0  0  0  0  0  0  0  0  0  0  0  0
   -0.3334   -0.8656    0.0007 H   0  0  0  0  0  0  0  0  0  0  0  0
   -6.1911    0.8639    0.0260 H   0  0  0  0  0  0  0  0  0  0  0  0
   -4.1165   -2.8760    0.0047 H   0  0  0  0  0  0  0  0  0  0  0  0
   -1.9634   -1.6991   -0.0031 H   0  0  0  0  0  0  0  0  0  0  0  0
   -6.8182   -1.9218   -0.8673 H   0  0  0  0  0  0  0  0  0  0  0  0
   -4.0289    2.7392   -0.8546 H   0  0  0  0  0  0  0  0  0  0  0  0
    5.9994   -2.2529    0.8582 H   0  0  0  0  0  0  0  0  0  0  0  0
  1  2  1  0  0  0  0
  2  3  1  0  0  0  0
  3  4  2  0  0  0  0
  4  5  1  0  0  0  0
  5  6  2  0  0  0  0
  6  7  1  0  0  0  0
  7  8  2  0  0  0  0
  3  8  1  0  0  0  0
  7  9  1  0  0  0  0
  9 10  2  0  0  0  0
 10 11  1  0  0  0  0
 11 12  2  0  0  0  0
 11 13  1  0  0  0  0
 13 14  2  0  0  0  0
 14 15  1  0  0  0  0
 15 16  2  0  0  0  0
 16 17  1  0  0  0  0
 17 18  2  0  0  0  0
 13 18  1  0  0  0  0
 16 19  1  0  0  0  0
 14 20  1  0  0  0  0
  4 21  1  0  0  0  0
  1 22  1  0  0  0  0
  1 23  1  0  0  0  0
  1 24  1  0  0  0  0
  5 25  1  0  0  0  0
  6 26  1  0  0  0  0
  8 27  1  0  0  0  0
  9 28  1  0  0  0  0
 10 29  1  0  0  0  0
 15 30  1  0  0  0  0
 17 31  1  0  0  0  0
 18 32  1  0  0  0  0
 19 33  1  0  0  0  0
 20 34  1  0  0  0  0
 21 35  1  0  0  0  0
M  END
$$$$
