C20H26O6
APtclcactv06281817213D 0   0.00000     0.00000
 
 52 53  0  0  0  0  0  0  0  0999 V2000
    6.1629   -0.3670    0.4984 C   0  0  0  0  0  0  0  0  0  0  0  0
    4.7391    0.1256    0.4614 C   0  0  0  0  0  0  0  0  0  0  0  0
    3.7368   -0.7437    0.3576 C   0  0  0  0  0  0  0  0  0  0  0  0
    4.0255   -2.2206    0.2771 C   0  0  0  0  0  0  0  0  0  0  0  0
    2.3484   -0.2635    0.3215 C   0  0  0  0  0  0  0  0  0  0  0  0
    2.1156    0.9276    0.3864 O   0  0  0  0  0  0  0  0  0  0  0  0
    1.3332   -1.1440    0.2164 O   0  0  0  0  0  0  0  0  0  0  0  0
   -0.0121   -0.5984    0.1866 C   0  0  0  0  0  0  0  0  0  0  0  0
   -0.4131   -0.3159   -1.2619 C   0  0  0  0  0  0  0  0  0  0  0  0
    0.0803    1.0520   -1.6598 C   0  0  0  0  0  0  0  0  0  0  0  0
    1.3157    1.2090   -2.0660 C   0  0  0  0  0  0  0  0  0  0  0  0
   -0.8456    2.2386   -1.5915 C   0  0  0  0  0  0  0  0  0  0  0  0
   -0.5875    3.0176   -0.3004 C   0  0  0  0  0  0  0  0  0  0  0  0
   -1.7713    2.8345    0.6529 C   0  0  0  0  0  0  0  0  0  0  0  0
   -1.7393    1.4392    1.2237 C   0  0  0  0  0  0  0  0  0  0  0  0
   -2.3595    0.4677    0.6025 C   0  0  0  0  0  0  0  0  0  0  0  0
   -2.3227   -0.9344    1.1511 C   0  0  0  0  0  0  0  0  0  0  0  0
   -0.9802   -1.6021    0.8109 C   0  0  0  0  0  0  0  0  0  0  0  0
   -1.3496   -2.6834   -0.1855 C   0  0  0  0  0  0  0  0  0  0  0  0
   -0.5124   -3.4670   -0.8609 C   0  0  0  0  0  0  0  0  0  0  0  0
   -2.8168   -2.6929   -0.2560 C   0  0  0  0  0  0  0  0  0  0  0  0
   -3.4637   -3.4701   -0.9301 O   0  0  0  0  0  0  0  0  0  0  0  0
   -3.3519   -1.7393    0.5160 O   0  0  0  0  0  0  0  0  0  0  0  0
   -0.9954    1.1636    2.5050 C   0  0  0  0  0  0  0  0  0  0  0  0
   -1.6806    3.7865    1.7147 O   0  0  0  0  0  0  0  0  0  0  0  0
   -0.6121    3.0896   -2.7154 O   0  0  0  0  0  0  0  0  0  0  0  0
    6.8393    0.4833    0.5852 H   0  0  0  0  0  0  0  0  0  0  0  0
    6.2969   -1.0269    1.3555 H   0  0  0  0  0  0  0  0  0  0  0  0
    6.3822   -0.9135   -0.4188 H   0  0  0  0  0  0  0  0  0  0  0  0
    4.5322    1.1840    0.5190 H   0  0  0  0  0  0  0  0  0  0  0  0
    4.0459   -2.6422    1.2821 H   0  0  0  0  0  0  0  0  0  0  0  0
    3.2473   -2.7117   -0.3072 H   0  0  0  0  0  0  0  0  0  0  0  0
    4.9922   -2.3763   -0.2018 H   0  0  0  0  0  0  0  0  0  0  0  0
   -0.0386    0.3301    0.7569 H   0  0  0  0  0  0  0  0  0  0  0  0
    0.0310   -1.0669   -1.9153 H   0  0  0  0  0  0  0  0  0  0  0  0
   -1.4988   -0.3513   -1.3521 H   0  0  0  0  0  0  0  0  0  0  0  0
    1.9800    0.3590   -2.1157 H   0  0  0  0  0  0  0  0  0  0  0  0
    1.6700    2.1886   -2.3513 H   0  0  0  0  0  0  0  0  0  0  0  0
   -1.8794    1.8936   -1.6066 H   0  0  0  0  0  0  0  0  0  0  0  0
    0.3210    2.6453    0.1730 H   0  0  0  0  0  0  0  0  0  0  0  0
   -0.4684    4.0760   -0.5324 H   0  0  0  0  0  0  0  0  0  0  0  0
   -2.7036    2.9836    0.1083 H   0  0  0  0  0  0  0  0  0  0  0  0
   -2.9006    0.6730   -0.3093 H   0  0  0  0  0  0  0  0  0  0  0  0
   -2.4722   -0.9214    2.2298 H   0  0  0  0  0  0  0  0  0  0  0  0
   -0.5416   -2.0473    1.7058 H   0  0  0  0  0  0  0  0  0  0  0  0
    0.5538   -3.3641   -0.7226 H   0  0  0  0  0  0  0  0  0  0  0  0
   -0.8992   -4.2057   -1.5472 H   0  0  0  0  0  0  0  0  0  0  0  0
   -1.6683    1.2977    3.3519 H   0  0  0  0  0  0  0  0  0  0  0  0
   -0.6227    0.1393    2.4957 H   0  0  0  0  0  0  0  0  0  0  0  0
   -0.1570    1.8544    2.5941 H   0  0  0  0  0  0  0  0  0  0  0  0
   -2.4002    3.7280    2.3580 H   0  0  0  0  0  0  0  0  0  0  0  0
   -0.7590    2.6616   -3.5700 H   0  0  0  0  0  0  0  0  0  0  0  0
  1  2  1  0  0  0  0
  2  3  2  0  0  0  0
  3  4  1  0  0  0  0
  3  5  1  0  0  0  0
  5  6  2  0  0  0  0
  5  7  1  0  0  0  0
  7  8  1  0  0  0  0
  8  9  1  0  0  0  0
  9 10  1  0  0  0  0
 10 11  2  0  0  0  0
 10 12  1  0  0  0  0
 12 13  1  0  0  0  0
 13 14  1  0  0  0  0
 14 15  1  0  0  0  0
 15 16  2  0  0  0  0
 16 17  1  0  0  0  0
 17 18  1  0  0  0  0
  8 18  1  0  0  0  0
 18 19  1  0  0  0  0
 19 20  2  0  0  0  0
 19 21  1  0  0  0  0
 21 22  2  0  0  0  0
 21 23  1  0  0  0  0
 17 23  1  0  0  0  0
 15 24  1  0  0  0  0
 14 25  1  0  0  0  0
 12 26  1  0  0  0  0
  1 27  1  0  0  0  0
  1 28  1  0  0  0  0
  1 29  1  0  0  0  0
  2 30  1  0  0  0  0
  4 31  1  0  0  0  0
  4 32  1  0  0  0  0
  4 33  1  0  0  0  0
  8 34  1  0  0  0  0
  9 35  1  0  0  0  0
  9 36  1  0  0  0  0
 11 37  1  0  0  0  0
 11 38  1  0  0  0  0
 12 39  1  0  0  0  0
 13 40  1  0  0  0  0
 13 41  1  0  0  0  0
 14 42  1  0  0  0  0
 16 43  1  0  0  0  0
 17 44  1  0  0  0  0
 18 45  1  0  0  0  0
 20 46  1  0  0  0  0
 20 47  1  0  0  0  0
 24 48  1  0  0  0  0
 24 49  1  0  0  0  0
 24 50  1  0  0  0  0
 25 51  1  0  0  0  0
 26 52  1  0  0  0  0
M  END
$$$$
