C18H32O2
APtclcactv06281817213D 0   0.00000     0.00000
 
 52 51  0  0  0  0  0  0  0  0999 V2000
    9.1819    2.8818   -1.2943 C   0  0  0  0  0  0  0  0  0  0  0  0
    9.2164    2.0722    0.0034 C   0  0  0  0  0  0  0  0  0  0  0  0
    7.8074    1.7774    0.4492 C   0  0  0  0  0  0  0  0  0  0  0  0
    7.4349    0.5407    0.6683 C   0  0  0  0  0  0  0  0  0  0  0  0
    6.0258    0.2460    1.1141 C   0  0  0  0  0  0  0  0  0  0  0  0
    5.3876   -0.7608    0.1550 C   0  0  0  0  0  0  0  0  0  0  0  0
    3.9570   -1.0601    0.6076 C   0  0  0  0  0  0  0  0  0  0  0  0
    3.3187   -2.0669   -0.3515 C   0  0  0  0  0  0  0  0  0  0  0  0
    1.9097   -2.3616    0.0943 C   0  0  0  0  0  0  0  0  0  0  0  0
    0.9117   -2.1995   -0.7387 C   0  0  0  0  0  0  0  0  0  0  0  0
   -0.4974   -2.4943   -0.2929 C   0  0  0  0  0  0  0  0  0  0  0  0
   -1.3752   -1.2637   -0.5296 C   0  0  0  0  0  0  0  0  0  0  0  0
   -2.8057   -1.5630   -0.0770 C   0  0  0  0  0  0  0  0  0  0  0  0
   -3.6835   -0.3324   -0.3138 C   0  0  0  0  0  0  0  0  0  0  0  0
   -5.1141   -0.6317    0.1388 C   0  0  0  0  0  0  0  0  0  0  0  0
   -5.9919    0.5989   -0.0979 C   0  0  0  0  0  0  0  0  0  0  0  0
   -7.4224    0.2996    0.3547 C   0  0  0  0  0  0  0  0  0  0  0  0
   -8.2870    1.5117    0.1215 C   0  0  0  0  0  0  0  0  0  0  0  0
   -7.8081    2.5122   -0.3575 O   0  0  0  0  0  0  0  0  0  0  0  0
   -9.5891    1.4798    0.4460 O   0  0  0  0  0  0  0  0  0  0  0  0
   10.2011    3.0950   -1.6168 H   0  0  0  0  0  0  0  0  0  0  0  0
    8.6689    2.3087   -2.0666 H   0  0  0  0  0  0  0  0  0  0  0  0
    8.6512    3.8186   -1.1241 H   0  0  0  0  0  0  0  0  0  0  0  0
    9.7472    1.1354   -0.1667 H   0  0  0  0  0  0  0  0  0  0  0  0
    9.7295    2.6453    0.7757 H   0  0  0  0  0  0  0  0  0  0  0  0
    7.1047    2.5857    0.5881 H   0  0  0  0  0  0  0  0  0  0  0  0
    8.1376   -0.2676    0.5294 H   0  0  0  0  0  0  0  0  0  0  0  0
    6.0431   -0.1718    2.1207 H   0  0  0  0  0  0  0  0  0  0  0  0
    5.4441    1.1678    1.1132 H   0  0  0  0  0  0  0  0  0  0  0  0
    5.3703   -0.3431   -0.8516 H   0  0  0  0  0  0  0  0  0  0  0  0
    5.9693   -1.6826    0.1559 H   0  0  0  0  0  0  0  0  0  0  0  0
    3.9743   -1.4778    1.6142 H   0  0  0  0  0  0  0  0  0  0  0  0
    3.3753   -0.1383    0.6067 H   0  0  0  0  0  0  0  0  0  0  0  0
    3.3014   -1.6491   -1.3581 H   0  0  0  0  0  0  0  0  0  0  0  0
    3.9004   -2.9887   -0.3506 H   0  0  0  0  0  0  0  0  0  0  0  0
    1.7226   -2.7065    1.1005 H   0  0  0  0  0  0  0  0  0  0  0  0
    1.0987   -1.8547   -1.7449 H   0  0  0  0  0  0  0  0  0  0  0  0
   -0.8903   -3.3360   -0.8631 H   0  0  0  0  0  0  0  0  0  0  0  0
   -0.4982   -2.7425    0.7685 H   0  0  0  0  0  0  0  0  0  0  0  0
   -0.9822   -0.4220    0.0406 H   0  0  0  0  0  0  0  0  0  0  0  0
   -1.3743   -1.0156   -1.5910 H   0  0  0  0  0  0  0  0  0  0  0  0
   -3.1986   -2.4047   -0.6473 H   0  0  0  0  0  0  0  0  0  0  0  0
   -2.8066   -1.8112    0.9844 H   0  0  0  0  0  0  0  0  0  0  0  0
   -3.2906    0.5093    0.2565 H   0  0  0  0  0  0  0  0  0  0  0  0
   -3.6826   -0.0843   -1.3751 H   0  0  0  0  0  0  0  0  0  0  0  0
   -5.5070   -1.4734   -0.4314 H   0  0  0  0  0  0  0  0  0  0  0  0
   -5.1149   -0.8799    1.2002 H   0  0  0  0  0  0  0  0  0  0  0  0
   -5.5989    1.4406    0.4724 H   0  0  0  0  0  0  0  0  0  0  0  0
   -5.9910    0.8471   -1.1593 H   0  0  0  0  0  0  0  0  0  0  0  0
   -7.8153   -0.5421   -0.2156 H   0  0  0  0  0  0  0  0  0  0  0  0
   -7.4233    0.0515    1.4161 H   0  0  0  0  0  0  0  0  0  0  0  0
  -10.1032    2.2814    0.2779 H   0  0  0  0  0  0  0  0  0  0  0  0
  1  2  1  0  0  0  0
  2  3  1  0  0  0  0
  3  4  2  0  0  0  0
  4  5  1  0  0  0  0
  5  6  1  0  0  0  0
  6  7  1  0  0  0  0
  7  8  1  0  0  0  0
  8  9  1  0  0  0  0
  9 10  2  0  0  0  0
 10 11  1  0  0  0  0
 11 12  1  0  0  0  0
 12 13  1  0  0  0  0
 13 14  1  0  0  0  0
 14 15  1  0  0  0  0
 15 16  1  0  0  0  0
 16 17  1  0  0  0  0
 17 18  1  0  0  0  0
 18 19  2  0  0  0  0
 18 20  1  0  0  0  0
  1 21  1  0  0  0  0
  1 22  1  0  0  0  0
  1 23  1  0  0  0  0
  2 24  1  0  0  0  0
  2 25  1  0  0  0  0
  3 26  1  0  0  0  0
  4 27  1  0  0  0  0
  5 28  1  0  0  0  0
  5 29  1  0  0  0  0
  6 30  1  0  0  0  0
  6 31  1  0  0  0  0
  7 32  1  0  0  0  0
  7 33  1  0  0  0  0
  8 34  1  0  0  0  0
  8 35  1  0  0  0  0
  9 36  1  0  0  0  0
 10 37  1  0  0  0  0
 11 38  1  0  0  0  0
 11 39  1  0  0  0  0
 12 40  1  0  0  0  0
 12 41  1  0  0  0  0
 13 42  1  0  0  0  0
 13 43  1  0  0  0  0
 14 44  1  0  0  0  0
 14 45  1  0  0  0  0
 15 46  1  0  0  0  0
 15 47  1  0  0  0  0
 16 48  1  0  0  0  0
 16 49  1  0  0  0  0
 17 50  1  0  0  0  0
 17 51  1  0  0  0  0
 20 52  1  0  0  0  0
M  END
$$$$
