C13H18N2O2
APtclcactv06281817213D 0   0.00000     0.00000
 
 35 35  0  0  0  0  0  0  0  0999 V2000
   -3.1194   -0.9666   -0.0119 C   0  0  0  0  0  0  0  0  0  0  0  0
   -4.3870   -1.5034   -0.0139 C   0  0  0  0  0  0  0  0  0  0  0  0
   -5.4982   -0.6680   -0.0100 C   0  0  0  0  0  0  0  0  0  0  0  0
   -5.3358    0.7127   -0.0036 C   0  0  0  0  0  0  0  0  0  0  0  0
   -4.0724    1.2595   -0.0011 C   0  0  0  0  0  0  0  0  0  0  0  0
   -2.9503    0.4228   -0.0055 C   0  0  0  0  0  0  0  0  0  0  0  0
   -1.5990    1.0014   -0.0023 C   0  0  0  0  0  0  0  0  0  0  0  0
   -0.5185    0.1924   -0.0065 C   0  0  0  0  0  0  0  0  0  0  0  0
    0.8260    0.7680   -0.0034 C   0  0  0  0  0  0  0  0  0  0  0  0
    0.9707    1.9765    0.0030 O   0  0  0  0  0  0  0  0  0  0  0  0
    1.9049   -0.0398   -0.0076 N   0  0  0  0  0  0  0  0  0  0  0  0
    3.2517    0.5368   -0.0045 C   0  0  0  0  0  0  0  0  0  0  0  0
    4.2882   -0.5886   -0.0104 C   0  0  0  0  0  0  0  0  0  0  0  0
    5.6948    0.0136   -0.0071 C   0  0  0  0  0  0  0  0  0  0  0  0
    6.7313   -1.1118   -0.0130 C   0  0  0  0  0  0  0  0  0  0  0  0
    8.0818   -0.5336   -0.0099 N   0  0  0  0  0  0  0  0  0  0  0  0
   -6.7461   -1.2022   -0.0129 O   0  0  0  0  0  0  0  0  0  0  0  0
   -2.2568   -1.6165   -0.0108 H   0  0  0  0  0  0  0  0  0  0  0  0
   -4.5186   -2.5753   -0.0188 H   0  0  0  0  0  0  0  0  0  0  0  0
   -6.2023    1.3574   -0.0010 H   0  0  0  0  0  0  0  0  0  0  0  0
   -3.9473    2.3322    0.0038 H   0  0  0  0  0  0  0  0  0  0  0  0
   -1.4707    2.0737    0.0033 H   0  0  0  0  0  0  0  0  0  0  0  0
   -0.6468   -0.8800   -0.0122 H   0  0  0  0  0  0  0  0  0  0  0  0
    1.7897   -1.0029   -0.0127 H   0  0  0  0  0  0  0  0  0  0  0  0
    3.3835    1.1568   -0.8912 H   0  0  0  0  0  0  0  0  0  0  0  0
    3.3834    1.1474    0.8887 H   0  0  0  0  0  0  0  0  0  0  0  0
    4.1564   -1.2086    0.8763 H   0  0  0  0  0  0  0  0  0  0  0  0
    4.1565   -1.1992   -0.9036 H   0  0  0  0  0  0  0  0  0  0  0  0
    5.8266    0.6336   -0.8938 H   0  0  0  0  0  0  0  0  0  0  0  0
    5.8265    0.6242    0.8861 H   0  0  0  0  0  0  0  0  0  0  0  0
    6.5995   -1.7318    0.8737 H   0  0  0  0  0  0  0  0  0  0  0  0
    6.5996   -1.7224   -0.9062 H   0  0  0  0  0  0  0  0  0  0  0  0
    8.2071    0.0882    0.7748 H   0  0  0  0  0  0  0  0  0  0  0  0
    8.7849   -1.2573   -0.0136 H   0  0  0  0  0  0  0  0  0  0  0  0
   -7.1078   -1.3613    0.8696 H   0  0  0  0  0  0  0  0  0  0  0  0
  1  2  2  0  0  0  0
  2  3  1  0  0  0  0
  3  4  2  0  0  0  0
  4  5  1  0  0  0  0
  5  6  2  0  0  0  0
  1  6  1  0  0  0  0
  6  7  1  0  0  0  0
  7  8  2  0  0  0  0
  8  9  1  0  0  0  0
  9 10  2  0  0  0  0
  9 11  1  0  0  0  0
 11 12  1  0  0  0  0
 12 13  1  0  0  0  0
 13 14  1  0  0  0  0
 14 15  1  0  0  0  0
 15 16  1  0  0  0  0
  3 17  1  0  0  0  0
  1 18  1  0  0  0  0
  2 19  1  0  0  0  0
  4 20  1  0  0  0  0
  5 21  1  0  0  0  0
  7 22  1  0  0  0  0
  8 23  1  0  0  0  0
 11 24  1  0  0  0  0
 12 25  1  0  0  0  0
 12 26  1  0  0  0  0
 13 27  1  0  0  0  0
 13 28  1  0  0  0  0
 14 29  1  0  0  0  0
 14 30  1  0  0  0  0
 15 31  1  0  0  0  0
 15 32  1  0  0  0  0
 16 33  1  0  0  0  0
 16 34  1  0  0  0  0
 17 35  1  0  0  0  0
M  END
$$$$
