C24H28O2
APtclcactv06281817213D 0   0.00000     0.00000
 
 54 55  0  0  0  0  0  0  0  0999 V2000
   -4.0796   -3.4325   -0.7320 C   0  0  0  0  0  0  0  0  0  0  0  0
   -5.5196   -3.1009   -0.4363 C   0  0  0  0  0  0  0  0  0  0  0  0
   -5.8167   -2.0227    0.2460 C   0  0  0  0  0  0  0  0  0  0  0  0
   -4.7300   -1.0535    0.6344 C   0  0  0  0  0  0  0  0  0  0  0  0
   -5.0977    0.3483    0.1439 C   0  0  0  0  0  0  0  0  0  0  0  0
   -4.0110    1.3175    0.5323 C   0  0  0  0  0  0  0  0  0  0  0  0
   -3.0588    1.6095   -0.3187 C   0  0  0  0  0  0  0  0  0  0  0  0
   -2.0249    2.6474    0.0343 C   0  0  0  0  0  0  0  0  0  0  0  0
   -0.6469    2.0592   -0.1274 C   0  0  0  0  0  0  0  0  0  0  0  0
    0.0078    2.1565   -1.3470 C   0  0  0  0  0  0  0  0  0  0  0  0
    1.2740    1.6176   -1.5005 C   0  0  0  0  0  0  0  0  0  0  0  0
    1.8923    0.9756   -0.4251 C   0  0  0  0  0  0  0  0  0  0  0  0
    1.2294    0.8806    0.8006 C   0  0  0  0  0  0  0  0  0  0  0  0
   -0.0347    1.4270    0.9455 C   0  0  0  0  0  0  0  0  0  0  0  0
   -0.6806    1.3357    2.1377 O   0  0  0  0  0  0  0  0  0  0  0  0
    3.2400    0.3997   -0.5834 C   0  0  0  0  0  0  0  0  0  0  0  0
    3.8323   -0.2168    0.4515 C   0  0  0  0  0  0  0  0  0  0  0  0
    5.1798   -0.7925    0.2932 C   0  0  0  0  0  0  0  0  0  0  0  0
    5.7995   -1.4350    1.3683 C   0  0  0  0  0  0  0  0  0  0  0  0
    7.0603   -1.9718    1.2127 C   0  0  0  0  0  0  0  0  0  0  0  0
    7.7118   -1.8750   -0.0043 C   0  0  0  0  0  0  0  0  0  0  0  0
    7.1046   -1.2398   -1.0733 C   0  0  0  0  0  0  0  0  0  0  0  0
    5.8415   -0.7037   -0.9343 C   0  0  0  0  0  0  0  0  0  0  0  0
   -0.5949    2.7813   -2.3926 O   0  0  0  0  0  0  0  0  0  0  0  0
   -4.0197    1.9508    1.8998 C   0  0  0  0  0  0  0  0  0  0  0  0
   -6.6178   -4.0095   -0.9254 C   0  0  0  0  0  0  0  0  0  0  0  0
   -3.5158   -3.4669    0.2003 H   0  0  0  0  0  0  0  0  0  0  0  0
   -4.0242   -4.4024   -1.2262 H   0  0  0  0  0  0  0  0  0  0  0  0
   -3.6572   -2.6679   -1.3840 H   0  0  0  0  0  0  0  0  0  0  0  0
   -6.8404   -1.8285    0.5301 H   0  0  0  0  0  0  0  0  0  0  0  0
   -4.6236   -1.0426    1.7191 H   0  0  0  0  0  0  0  0  0  0  0  0
   -3.7885   -1.3621    0.1801 H   0  0  0  0  0  0  0  0  0  0  0  0
   -5.2041    0.3374   -0.9409 H   0  0  0  0  0  0  0  0  0  0  0  0
   -6.0392    0.6569    0.5982 H   0  0  0  0  0  0  0  0  0  0  0  0
   -3.0148    1.1063   -1.2733 H   0  0  0  0  0  0  0  0  0  0  0  0
   -2.1328    3.5073   -0.6269 H   0  0  0  0  0  0  0  0  0  0  0  0
   -2.1659    2.9639    1.0678 H   0  0  0  0  0  0  0  0  0  0  0  0
    1.7825    1.6932   -2.4503 H   0  0  0  0  0  0  0  0  0  0  0  0
    1.7034    0.3852    1.6350 H   0  0  0  0  0  0  0  0  0  0  0  0
   -0.5075    2.0750    2.7365 H   0  0  0  0  0  0  0  0  0  0  0  0
    3.7509    0.4738   -1.5321 H   0  0  0  0  0  0  0  0  0  0  0  0
    3.3214   -0.2909    1.4001 H   0  0  0  0  0  0  0  0  0  0  0  0
    5.2924   -1.5107    2.3189 H   0  0  0  0  0  0  0  0  0  0  0  0
    7.5405   -2.4687    2.0427 H   0  0  0  0  0  0  0  0  0  0  0  0
    8.6992   -2.2969   -0.1203 H   0  0  0  0  0  0  0  0  0  0  0  0
    7.6194   -1.1673   -2.0200 H   0  0  0  0  0  0  0  0  0  0  0  0
    5.3688   -0.2082   -1.7694 H   0  0  0  0  0  0  0  0  0  0  0  0
   -0.4124    3.7296   -2.4423 H   0  0  0  0  0  0  0  0  0  0  0  0
   -3.3806    1.3763    2.5703 H   0  0  0  0  0  0  0  0  0  0  0  0
   -3.6469    2.9726    1.8293 H   0  0  0  0  0  0  0  0  0  0  0  0
   -5.0378    1.9615    2.2888 H   0  0  0  0  0  0  0  0  0  0  0  0
   -6.8269   -4.7663   -0.1693 H   0  0  0  0  0  0  0  0  0  0  0  0
   -7.5179   -3.4238   -1.1119 H   0  0  0  0  0  0  0  0  0  0  0  0
   -6.3029   -4.4957   -1.8487 H   0  0  0  0  0  0  0  0  0  0  0  0
  1  2  1  0  0  0  0
  2  3  2  0  0  0  0
  3  4  1  0  0  0  0
  4  5  1  0  0  0  0
  5  6  1  0  0  0  0
  6  7  2  0  0  0  0
  7  8  1  0  0  0  0
  8  9  1  0  0  0  0
  9 10  2  0  0  0  0
 10 11  1  0  0  0  0
 11 12  2  0  0  0  0
 12 13  1  0  0  0  0
 13 14  2  0  0  0  0
  9 14  1  0  0  0  0
 14 15  1  0  0  0  0
 12 16  1  0  0  0  0
 16 17  2  0  0  0  0
 17 18  1  0  0  0  0
 18 19  2  0  0  0  0
 19 20  1  0  0  0  0
 20 21  2  0  0  0  0
 21 22  1  0  0  0  0
 22 23  2  0  0  0  0
 18 23  1  0  0  0  0
 10 24  1  0  0  0  0
  6 25  1  0  0  0  0
  2 26  1  0  0  0  0
  1 27  1  0  0  0  0
  1 28  1  0  0  0  0
  1 29  1  0  0  0  0
  3 30  1  0  0  0  0
  4 31  1  0  0  0  0
  4 32  1  0  0  0  0
  5 33  1  0  0  0  0
  5 34  1  0  0  0  0
  7 35  1  0  0  0  0
  8 36  1  0  0  0  0
  8 37  1  0  0  0  0
 11 38  1  0  0  0  0
 13 39  1  0  0  0  0
 15 40  1  0  0  0  0
 16 41  1  0  0  0  0
 17 42  1  0  0  0  0
 19 43  1  0  0  0  0
 20 44  1  0  0  0  0
 21 45  1  0  0  0  0
 22 46  1  0  0  0  0
 23 47  1  0  0  0  0
 24 48  1  0  0  0  0
 25 49  1  0  0  0  0
 25 50  1  0  0  0  0
 25 51  1  0  0  0  0
 26 52  1  0  0  0  0
 26 53  1  0  0  0  0
 26 54  1  0  0  0  0
M  END
$$$$
