C21H22NO4
APtclcactv06281816273D 0   0.00000     0.00000
 
 48 51  0  0  0  0  0  0  0  0999 V2000
    6.7507    0.8369    0.3880 C   0  0  0  0  0  0  0  0  0  0  0  0
    5.9380   -0.3161    0.1597 O   0  0  0  0  0  0  0  0  0  0  0  0
    4.5937   -0.1221    0.1018 C   0  0  0  0  0  0  0  0  0  0  0  0
    3.7448   -1.2041   -0.1181 C   0  0  0  0  0  0  0  0  0  0  0  0
    2.3759   -1.0083   -0.1838 C   0  0  0  0  0  0  0  0  0  0  0  0
    1.8553    0.2716   -0.0290 C   0  0  0  0  0  0  0  0  0  0  0  0
    2.7091    1.3502    0.2044 C   0  0  0  0  0  0  0  0  0  0  0  0
    4.0708    1.1529    0.2677 C   0  0  0  0  0  0  0  0  0  0  0  0
    2.1138    2.7187    0.4094 C   0  0  0  0  0  0  0  0  0  0  0  0
    0.8704    2.8742   -0.4604 C   0  0  0  0  0  0  0  0  0  0  0  0
   -0.0633    1.7610   -0.2581 N   0  3  0  0  0  0  0  0  0  0  0  0
   -1.3522    2.0309   -0.2627 C   0  0  0  0  0  0  0  0  0  0  0  0
   -2.3038    1.0118   -0.1197 C   0  0  0  0  0  0  0  0  0  0  0  0
   -3.6820    1.2791   -0.1055 C   0  0  0  0  0  0  0  0  0  0  0  0
   -4.5680    0.2478    0.0149 C   0  0  0  0  0  0  0  0  0  0  0  0
   -4.1219   -1.0780    0.1253 C   0  0  0  0  0  0  0  0  0  0  0  0
   -2.7874   -1.3693    0.1245 C   0  0  0  0  0  0  0  0  0  0  0  0
   -1.8536   -0.3297    0.0105 C   0  0  0  0  0  0  0  0  0  0  0  0
   -0.4697   -0.5619    0.0284 C   0  0  0  0  0  0  0  0  0  0  0  0
    0.3919    0.5145   -0.0825 C   0  0  0  0  0  0  0  0  0  0  0  0
   -5.0285   -2.0842    0.2348 O   0  0  0  0  0  0  0  0  0  0  0  0
   -4.5133   -3.4126    0.3441 C   0  0  0  0  0  0  0  0  0  0  0  0
   -5.9019    0.5090    0.0285 O   0  0  0  0  0  0  0  0  0  0  0  0
   -6.2962    1.8777   -0.0869 C   0  0  0  0  0  0  0  0  0  0  0  0
    4.2608   -2.4533   -0.2687 O   0  0  0  0  0  0  0  0  0  0  0  0
    3.3322   -3.5164   -0.4912 C   0  0  0  0  0  0  0  0  0  0  0  0
    7.8000    0.5430    0.4116 H   0  0  0  0  0  0  0  0  0  0  0  0
    6.5930    1.5573   -0.4147 H   0  0  0  0  0  0  0  0  0  0  0  0
    6.4788    1.2900    1.3414 H   0  0  0  0  0  0  0  0  0  0  0  0
    1.7156   -1.8456   -0.3550 H   0  0  0  0  0  0  0  0  0  0  0  0
    4.7312    1.9902    0.4382 H   0  0  0  0  0  0  0  0  0  0  0  0
    1.8410    2.8423    1.4574 H   0  0  0  0  0  0  0  0  0  0  0  0
    2.8462    3.4777    0.1341 H   0  0  0  0  0  0  0  0  0  0  0  0
    0.3714    3.8093   -0.2061 H   0  0  0  0  0  0  0  0  0  0  0  0
    1.1691    2.9037   -1.5083 H   0  0  0  0  0  0  0  0  0  0  0  0
   -1.6810    3.0532   -0.3781 H   0  0  0  0  0  0  0  0  0  0  0  0
   -4.0391    2.2949   -0.1891 H   0  0  0  0  0  0  0  0  0  0  0  0
   -2.4540   -2.3929    0.2111 H   0  0  0  0  0  0  0  0  0  0  0  0
   -0.0833   -1.5654    0.1284 H   0  0  0  0  0  0  0  0  0  0  0  0
   -5.3406   -4.1177    0.4247 H   0  0  0  0  0  0  0  0  0  0  0  0
   -3.9214   -3.6466   -0.5408 H   0  0  0  0  0  0  0  0  0  0  0  0
   -3.8849   -3.4867    1.2316 H   0  0  0  0  0  0  0  0  0  0  0  0
   -7.3838    1.9458   -0.0624 H   0  0  0  0  0  0  0  0  0  0  0  0
   -5.8777    2.4475    0.7427 H   0  0  0  0  0  0  0  0  0  0  0  0
   -5.9279    2.2837   -1.0290 H   0  0  0  0  0  0  0  0  0  0  0  0
    3.8740   -4.4566   -0.5940 H   0  0  0  0  0  0  0  0  0  0  0  0
    2.6465   -3.5826    0.3535 H   0  0  0  0  0  0  0  0  0  0  0  0
    2.7677   -3.3208   -1.4029 H   0  0  0  0  0  0  0  0  0  0  0  0
  1  2  1  0  0  0  0
  2  3  1  0  0  0  0
  3  4  2  0  0  0  0
  4  5  1  0  0  0  0
  5  6  2  0  0  0  0
  6  7  1  0  0  0  0
  7  8  2  0  0  0  0
  3  8  1  0  0  0  0
  7  9  1  0  0  0  0
  9 10  1  0  0  0  0
 10 11  1  0  0  0  0
 11 12  2  0  0  0  0
 12 13  1  0  0  0  0
 13 14  2  0  0  0  0
 14 15  1  0  0  0  0
 15 16  2  0  0  0  0
 16 17  1  0  0  0  0
 17 18  2  0  0  0  0
 13 18  1  0  0  0  0
 18 19  1  0  0  0  0
 19 20  2  0  0  0  0
  6 20  1  0  0  0  0
 11 20  1  0  0  0  0
 16 21  1  0  0  0  0
 21 22  1  0  0  0  0
 15 23  1  0  0  0  0
 23 24  1  0  0  0  0
  4 25  1  0  0  0  0
 25 26  1  0  0  0  0
  1 27  1  0  0  0  0
  1 28  1  0  0  0  0
  1 29  1  0  0  0  0
  5 30  1  0  0  0  0
  8 31  1  0  0  0  0
  9 32  1  0  0  0  0
  9 33  1  0  0  0  0
 10 34  1  0  0  0  0
 10 35  1  0  0  0  0
 12 36  1  0  0  0  0
 14 37  1  0  0  0  0
 17 38  1  0  0  0  0
 19 39  1  0  0  0  0
 22 40  1  0  0  0  0
 22 41  1  0  0  0  0
 22 42  1  0  0  0  0
 24 43  1  0  0  0  0
 24 44  1  0  0  0  0
 24 45  1  0  0  0  0
 26 46  1  0  0  0  0
 26 47  1  0  0  0  0
 26 48  1  0  0  0  0
M  CHG  1  11   1
M  END
$$$$
