C25H28O4
APtclcactv06281817213D 0   0.00000     0.00000
 
 57 59  0  0  0  0  0  0  0  0999 V2000
   -3.3780   -3.0296   -2.5169 C   0  0  0  0  0  0  0  0  0  0  0  0
   -3.9028   -3.9859   -1.4772 C   0  0  0  0  0  0  0  0  0  0  0  0
   -3.5184   -3.8730   -0.2299 C   0  0  0  0  0  0  0  0  0  0  0  0
   -2.6447   -2.7183    0.1877 C   0  0  0  0  0  0  0  0  0  0  0  0
   -3.3017   -1.9774    1.3540 C   0  0  0  0  0  0  0  0  0  0  0  0
   -2.4280   -0.8227    1.7716 C   0  0  0  0  0  0  0  0  0  0  0  0
   -2.6529    0.3756    1.2924 C   0  0  0  0  0  0  0  0  0  0  0  0
   -1.8399    1.5470    1.7803 C   0  0  0  0  0  0  0  0  0  0  0  0
   -1.2241    2.2566    0.6020 C   0  0  0  0  0  0  0  0  0  0  0  0
   -1.9058    3.2868   -0.0211 C   0  0  0  0  0  0  0  0  0  0  0  0
   -1.3466    3.9495   -1.1105 C   0  0  0  0  0  0  0  0  0  0  0  0
   -0.1146    3.5902   -1.5793 C   0  0  0  0  0  0  0  0  0  0  0  0
    0.5868    2.5529   -0.9622 C   0  0  0  0  0  0  0  0  0  0  0  0
    0.0315    1.8823    0.1423 C   0  0  0  0  0  0  0  0  0  0  0  0
    0.9147    0.9405    0.5316 O   0  0  0  0  0  0  0  0  0  0  0  0
    2.0114    0.9570   -0.2523 C   0  0  0  0  0  0  0  0  0  0  0  0
    1.8899    1.9239   -1.1923 C   0  0  0  0  0  0  0  0  0  0  0  0
    3.1750    0.0576   -0.1042 C   0  0  0  0  0  0  0  0  0  0  0  0
    3.1928   -0.9024    0.9082 C   0  0  0  0  0  0  0  0  0  0  0  0
    4.2849   -1.7434    1.0430 C   0  0  0  0  0  0  0  0  0  0  0  0
    5.3602   -1.6324    0.1732 C   0  0  0  0  0  0  0  0  0  0  0  0
    5.3467   -0.6788   -0.8346 C   0  0  0  0  0  0  0  0  0  0  0  0
    4.2561    0.1624   -0.9801 C   0  0  0  0  0  0  0  0  0  0  0  0
    6.4027   -0.5739   -1.6836 O   0  0  0  0  0  0  0  0  0  0  0  0
    4.3036   -2.6786    2.0290 O   0  0  0  0  0  0  0  0  0  0  0  0
   -3.1324    3.6549    0.4339 O   0  0  0  0  0  0  0  0  0  0  0  0
   -3.7846    4.7253   -0.2524 C   0  0  0  0  0  0  0  0  0  0  0  0
   -1.2956   -1.0465    2.7404 C   0  0  0  0  0  0  0  0  0  0  0  0
   -4.8698   -5.0721   -1.8722 C   0  0  0  0  0  0  0  0  0  0  0  0
   -2.2881   -3.0430   -2.5057 H   0  0  0  0  0  0  0  0  0  0  0  0
   -3.7349   -3.3317   -3.5015 H   0  0  0  0  0  0  0  0  0  0  0  0
   -3.7312   -2.0225   -2.2956 H   0  0  0  0  0  0  0  0  0  0  0  0
   -3.8277   -4.6074    0.4991 H   0  0  0  0  0  0  0  0  0  0  0  0
   -1.6700   -3.0941    0.4988 H   0  0  0  0  0  0  0  0  0  0  0  0
   -2.5194   -2.0351   -0.6524 H   0  0  0  0  0  0  0  0  0  0  0  0
   -4.2764   -1.6015    1.0428 H   0  0  0  0  0  0  0  0  0  0  0  0
   -3.4270   -2.6605    2.1940 H   0  0  0  0  0  0  0  0  0  0  0  0
   -3.4208    0.5240    0.5477 H   0  0  0  0  0  0  0  0  0  0  0  0
   -2.4862    2.2370    2.3228 H   0  0  0  0  0  0  0  0  0  0  0  0
   -1.0511    1.1910    2.4429 H   0  0  0  0  0  0  0  0  0  0  0  0
   -1.8899    4.7516   -1.5878 H   0  0  0  0  0  0  0  0  0  0  0  0
    0.3151    4.1068   -2.4249 H   0  0  0  0  0  0  0  0  0  0  0  0
    2.6060    2.1763   -1.9603 H   0  0  0  0  0  0  0  0  0  0  0  0
    2.3564   -0.9893    1.5859 H   0  0  0  0  0  0  0  0  0  0  0  0
    6.2102   -2.2898    0.2812 H   0  0  0  0  0  0  0  0  0  0  0  0
    4.2462    0.9041   -1.7651 H   0  0  0  0  0  0  0  0  0  0  0  0
    6.3277   -1.1252   -2.4746 H   0  0  0  0  0  0  0  0  0  0  0  0
    3.9281   -3.5311    1.7697 H   0  0  0  0  0  0  0  0  0  0  0  0
   -3.1690    5.6229   -0.1938 H   0  0  0  0  0  0  0  0  0  0  0  0
   -3.9298    4.4518   -1.2975 H   0  0  0  0  0  0  0  0  0  0  0  0
   -4.7524    4.9176    0.2107 H   0  0  0  0  0  0  0  0  0  0  0  0
   -0.3694   -1.2020    2.1871 H   0  0  0  0  0  0  0  0  0  0  0  0
   -1.1914   -0.1740    3.3854 H   0  0  0  0  0  0  0  0  0  0  0  0
   -1.5069   -1.9254    3.3495 H   0  0  0  0  0  0  0  0  0  0  0  0
   -5.0704   -5.0086   -2.9417 H   0  0  0  0  0  0  0  0  0  0  0  0
   -4.4373   -6.0455   -1.6408 H   0  0  0  0  0  0  0  0  0  0  0  0
   -5.8013   -4.9479   -1.3198 H   0  0  0  0  0  0  0  0  0  0  0  0
  1  2  1  0  0  0  0
  2  3  2  0  0  0  0
  3  4  1  0  0  0  0
  4  5  1  0  0  0  0
  5  6  1  0  0  0  0
  6  7  2  0  0  0  0
  7  8  1  0  0  0  0
  8  9  1  0  0  0  0
  9 10  2  0  0  0  0
 10 11  1  0  0  0  0
 11 12  2  0  0  0  0
 12 13  1  0  0  0  0
 13 14  2  0  0  0  0
  9 14  1  0  0  0  0
 14 15  1  0  0  0  0
 15 16  1  0  0  0  0
 16 17  2  0  0  0  0
 13 17  1  0  0  0  0
 16 18  1  0  0  0  0
 18 19  2  0  0  0  0
 19 20  1  0  0  0  0
 20 21  2  0  0  0  0
 21 22  1  0  0  0  0
 22 23  2  0  0  0  0
 18 23  1  0  0  0  0
 22 24  1  0  0  0  0
 20 25  1  0  0  0  0
 10 26  1  0  0  0  0
 26 27  1  0  0  0  0
  6 28  1  0  0  0  0
  2 29  1  0  0  0  0
  1 30  1  0  0  0  0
  1 31  1  0  0  0  0
  1 32  1  0  0  0  0
  3 33  1  0  0  0  0
  4 34  1  0  0  0  0
  4 35  1  0  0  0  0
  5 36  1  0  0  0  0
  5 37  1  0  0  0  0
  7 38  1  0  0  0  0
  8 39  1  0  0  0  0
  8 40  1  0  0  0  0
 11 41  1  0  0  0  0
 12 42  1  0  0  0  0
 17 43  1  0  0  0  0
 19 44  1  0  0  0  0
 21 45  1  0  0  0  0
 23 46  1  0  0  0  0
 24 47  1  0  0  0  0
 25 48  1  0  0  0  0
 27 49  1  0  0  0  0
 27 50  1  0  0  0  0
 27 51  1  0  0  0  0
 28 52  1  0  0  0  0
 28 53  1  0  0  0  0
 28 54  1  0  0  0  0
 29 55  1  0  0  0  0
 29 56  1  0  0  0  0
 29 57  1  0  0  0  0
M  END
$$$$
