C18H28O3
APtclcactv06281817213D 0   0.00000     0.00000
 
 49 48  0  0  0  0  0  0  0  0999 V2000
  -11.1580    0.6338   -1.1438 C   0  0  0  0  0  0  0  0  0  0  0  0
  -10.5800    0.2674    0.2247 C   0  0  0  0  0  0  0  0  0  0  0  0
   -9.4328   -0.6930    0.0446 C   0  0  0  0  0  0  0  0  0  0  0  0
   -8.2585   -0.4134    0.5536 C   0  0  0  0  0  0  0  0  0  0  0  0
   -7.1112   -1.3738    0.3735 C   0  0  0  0  0  0  0  0  0  0  0  0
   -5.9450   -0.6518   -0.2507 C   0  0  0  0  0  0  0  0  0  0  0  0
   -4.7557   -0.6687    0.3456 C   0  0  0  0  0  0  0  0  0  0  0  0
   -3.6193    0.0349   -0.2627 C   0  0  0  0  0  0  0  0  0  0  0  0
   -2.4238    0.0179    0.3368 C   0  0  0  0  0  0  0  0  0  0  0  0
   -1.3760    0.6667   -0.2241 O   0  0  0  0  0  0  0  0  0  0  0  0
   -0.1823    0.6230    0.4183 C   0  0  0  0  0  0  0  0  0  0  0  0
    0.8638    1.2405   -0.0925 C   0  0  0  0  0  0  0  0  0  0  0  0
    2.1901    1.1920    0.6213 C   0  0  0  0  0  0  0  0  0  0  0  0
    3.2628    0.6603   -0.3313 C   0  0  0  0  0  0  0  0  0  0  0  0
    4.6094    0.6110    0.3934 C   0  0  0  0  0  0  0  0  0  0  0  0
    5.6821    0.0792   -0.5592 C   0  0  0  0  0  0  0  0  0  0  0  0
    7.0287    0.0300    0.1655 C   0  0  0  0  0  0  0  0  0  0  0  0
    8.1013   -0.5018   -0.7871 C   0  0  0  0  0  0  0  0  0  0  0  0
    9.4277   -0.5503   -0.0733 C   0  0  0  0  0  0  0  0  0  0  0  0
    9.5069   -0.1959    1.0791 O   0  0  0  0  0  0  0  0  0  0  0  0
   10.5211   -0.9872   -0.7178 O   0  0  0  0  0  0  0  0  0  0  0  0
  -10.3839    1.1024   -1.7515 H   0  0  0  0  0  0  0  0  0  0  0  0
  -11.5140   -0.2684   -1.6412 H   0  0  0  0  0  0  0  0  0  0  0  0
  -11.9878    1.3284   -1.0135 H   0  0  0  0  0  0  0  0  0  0  0  0
  -10.2240    1.1696    0.7221 H   0  0  0  0  0  0  0  0  0  0  0  0
  -11.3542   -0.2012    0.8324 H   0  0  0  0  0  0  0  0  0  0  0  0
   -9.5786   -1.6118   -0.5040 H   0  0  0  0  0  0  0  0  0  0  0  0
   -8.1126    0.5053    1.1022 H   0  0  0  0  0  0  0  0  0  0  0  0
   -6.8148   -1.7718    1.3440 H   0  0  0  0  0  0  0  0  0  0  0  0
   -7.4213   -2.1927   -0.2757 H   0  0  0  0  0  0  0  0  0  0  0  0
   -6.0745   -0.1208   -1.1822 H   0  0  0  0  0  0  0  0  0  0  0  0
   -4.6261   -1.1997    1.2771 H   0  0  0  0  0  0  0  0  0  0  0  0
   -3.7489    0.5659   -1.1941 H   0  0  0  0  0  0  0  0  0  0  0  0
   -2.2943   -0.5131    1.2682 H   0  0  0  0  0  0  0  0  0  0  0  0
   -0.0891    0.0821    1.3484 H   0  0  0  0  0  0  0  0  0  0  0  0
    0.7706    1.7814   -1.0226 H   0  0  0  0  0  0  0  0  0  0  0  0
    2.4620    2.1947    0.9514 H   0  0  0  0  0  0  0  0  0  0  0  0
    2.1134    0.5332    1.4863 H   0  0  0  0  0  0  0  0  0  0  0  0
    2.9909   -0.3424   -0.6613 H   0  0  0  0  0  0  0  0  0  0  0  0
    3.3396    1.3191   -1.1962 H   0  0  0  0  0  0  0  0  0  0  0  0
    4.8813    1.6136    0.7234 H   0  0  0  0  0  0  0  0  0  0  0  0
    4.5326   -0.0479    1.2583 H   0  0  0  0  0  0  0  0  0  0  0  0
    5.4102   -0.9234   -0.8892 H   0  0  0  0  0  0  0  0  0  0  0  0
    5.7588    0.7381   -1.4241 H   0  0  0  0  0  0  0  0  0  0  0  0
    7.3005    1.0326    0.4955 H   0  0  0  0  0  0  0  0  0  0  0  0
    6.9519   -0.6289    1.0304 H   0  0  0  0  0  0  0  0  0  0  0  0
    7.8294   -1.5044   -1.1171 H   0  0  0  0  0  0  0  0  0  0  0  0
    8.1781    0.1571   -1.6520 H   0  0  0  0  0  0  0  0  0  0  0  0
   11.3491   -1.0002   -0.2185 H   0  0  0  0  0  0  0  0  0  0  0  0
  1  2  1  0  0  0  0
  2  3  1  0  0  0  0
  3  4  2  0  0  0  0
  4  5  1  0  0  0  0
  5  6  1  0  0  0  0
  6  7  2  0  0  0  0
  7  8  1  0  0  0  0
  8  9  2  0  0  0  0
  9 10  1  0  0  0  0
 10 11  1  0  0  0  0
 11 12  2  0  0  0  0
 12 13  1  0  0  0  0
 13 14  1  0  0  0  0
 14 15  1  0  0  0  0
 15 16  1  0  0  0  0
 16 17  1  0  0  0  0
 17 18  1  0  0  0  0
 18 19  1  0  0  0  0
 19 20  2  0  0  0  0
 19 21  1  0  0  0  0
  1 22  1  0  0  0  0
  1 23  1  0  0  0  0
  1 24  1  0  0  0  0
  2 25  1  0  0  0  0
  2 26  1  0  0  0  0
  3 27  1  0  0  0  0
  4 28  1  0  0  0  0
  5 29  1  0  0  0  0
  5 30  1  0  0  0  0
  6 31  1  0  0  0  0
  7 32  1  0  0  0  0
  8 33  1  0  0  0  0
  9 34  1  0  0  0  0
 11 35  1  0  0  0  0
 12 36  1  0  0  0  0
 13 37  1  0  0  0  0
 13 38  1  0  0  0  0
 14 39  1  0  0  0  0
 14 40  1  0  0  0  0
 15 41  1  0  0  0  0
 15 42  1  0  0  0  0
 16 43  1  0  0  0  0
 16 44  1  0  0  0  0
 17 45  1  0  0  0  0
 17 46  1  0  0  0  0
 18 47  1  0  0  0  0
 18 48  1  0  0  0  0
 21 49  1  0  0  0  0
M  END
$$$$
