C12H23O14P
APtclcactv06281816273D 0   0.00000     0.00000
 
 50 51  0  0  0  0  0  0  0  0999 V2000
    2.0637    2.3542    0.0743 C   0  0  0  0  0  0  0  0  0  0  0  0
    0.5733    2.6893    0.1598 C   0  0  0  0  0  0  0  0  0  0  0  0
    0.0168    3.0629   -1.2378 C   0  0  0  0  0  0  0  0  0  0  0  0
   -1.4888    2.7366   -1.0853 C   0  0  0  0  0  0  0  0  0  0  0  0
   -1.5439    1.7530    0.0997 C   0  0  0  0  0  0  0  0  0  0  0  0
   -0.1907    1.5198    0.5248 O   0  0  0  0  0  0  0  0  0  0  0  0
   -2.3514    2.3646    1.2464 C   0  0  0  0  0  0  0  0  0  0  0  0
   -2.2624    1.5195    2.3953 O   0  0  0  0  0  0  0  0  0  0  0  0
   -2.1411    0.5234   -0.3168 O   0  0  0  0  0  0  0  0  0  0  0  0
   -2.0782   -0.5147    0.6632 C   0  0  0  0  0  0  0  0  0  0  0  0
   -3.0664   -1.6246    0.2955 C   0  0  0  0  0  0  0  0  0  0  0  0
   -2.6621   -2.2319   -1.0514 C   0  0  0  0  0  0  0  0  0  0  0  0
   -1.2216   -2.7441   -0.9562 C   0  0  0  0  0  0  0  0  0  0  0  0
   -0.3047   -1.5909   -0.5401 C   0  0  0  0  0  0  0  0  0  0  0  0
   -0.7545   -1.0516    0.7045 O   0  0  0  0  0  0  0  0  0  0  0  0
    1.1269   -2.1081   -0.3844 C   0  0  0  0  0  0  0  0  0  0  0  0
    2.0079   -1.0077   -0.1498 O   0  0  0  0  0  0  0  0  0  0  0  0
    3.6071   -1.1692   -0.0574 P   0  0  0  0  0  0  0  0  0  0  0  0
    4.1107   -1.8089   -1.2933 O   0  0  0  0  0  0  0  0  0  0  0  0
    4.2842    0.2819    0.1101 O   0  0  0  0  0  0  0  0  0  0  0  0
    3.9815   -2.0858    1.2122 O   0  0  0  0  0  0  0  0  0  0  0  0
   -1.1491   -3.7872    0.0178 O   0  0  0  0  0  0  0  0  0  0  0  0
   -3.5356   -3.3176   -1.3677 O   0  0  0  0  0  0  0  0  0  0  0  0
   -3.0428   -2.6380    1.3027 O   0  0  0  0  0  0  0  0  0  0  0  0
   -2.2296    3.9215   -0.7866 O   0  0  0  0  0  0  0  0  0  0  0  0
    0.2125    4.4521   -1.5099 O   0  0  0  0  0  0  0  0  0  0  0  0
    2.5728    2.1091    1.3869 O   0  0  0  0  0  0  0  0  0  0  0  0
    2.2014    1.4649   -0.5407 H   0  0  0  0  0  0  0  0  0  0  0  0
    2.5993    3.1916   -0.3727 H   0  0  0  0  0  0  0  0  0  0  0  0
    0.4031    3.4988    0.8696 H   0  0  0  0  0  0  0  0  0  0  0  0
    0.4714    2.4480   -2.0146 H   0  0  0  0  0  0  0  0  0  0  0  0
   -1.8705    2.2649   -1.9907 H   0  0  0  0  0  0  0  0  0  0  0  0
   -1.9512    3.3493    1.4877 H   0  0  0  0  0  0  0  0  0  0  0  0
   -3.3947    2.4601    0.9455 H   0  0  0  0  0  0  0  0  0  0  0  0
   -2.7519    1.8462    3.1626 H   0  0  0  0  0  0  0  0  0  0  0  0
   -2.3361   -0.1076    1.6409 H   0  0  0  0  0  0  0  0  0  0  0  0
   -4.0708   -1.2078    0.2203 H   0  0  0  0  0  0  0  0  0  0  0  0
   -2.7278   -1.4708   -1.8289 H   0  0  0  0  0  0  0  0  0  0  0  0
   -0.9067   -3.1280   -1.9265 H   0  0  0  0  0  0  0  0  0  0  0  0
   -0.3294   -0.8132   -1.3034 H   0  0  0  0  0  0  0  0  0  0  0  0
    1.1744   -2.7977    0.4583 H   0  0  0  0  0  0  0  0  0  0  0  0
    1.4271   -2.6261   -1.2952 H   0  0  0  0  0  0  0  0  0  0  0  0
    5.2490    0.2609    0.1723 H   0  0  0  0  0  0  0  0  0  0  0  0
    3.6815   -1.7269    2.0585 H   0  0  0  0  0  0  0  0  0  0  0  0
   -1.7101   -4.5496   -0.1799 H   0  0  0  0  0  0  0  0  0  0  0  0
   -4.4667   -3.0660   -1.4369 H   0  0  0  0  0  0  0  0  0  0  0  0
   -3.2842   -2.3222    2.1842 H   0  0  0  0  0  0  0  0  0  0  0  0
   -2.1812    4.5995   -1.4745 H   0  0  0  0  0  0  0  0  0  0  0  0
    1.1407    4.7229   -1.5253 H   0  0  0  0  0  0  0  0  0  0  0  0
    3.5291    1.9693    1.4180 H   0  0  0  0  0  0  0  0  0  0  0  0
  1  2  1  0  0  0  0
  2  3  1  0  0  0  0
  3  4  1  0  0  0  0
  4  5  1  0  0  0  0
  5  6  1  0  0  0  0
  2  6  1  0  0  0  0
  5  7  1  0  0  0  0
  7  8  1  0  0  0  0
  5  9  1  0  0  0  0
  9 10  1  0  0  0  0
 10 11  1  0  0  0  0
 11 12  1  0  0  0  0
 12 13  1  0  0  0  0
 13 14  1  0  0  0  0
 14 15  1  0  0  0  0
 10 15  1  0  0  0  0
 14 16  1  0  0  0  0
 16 17  1  0  0  0  0
 17 18  1  0  0  0  0
 18 19  2  0  0  0  0
 18 20  1  0  0  0  0
 18 21  1  0  0  0  0
 13 22  1  0  0  0  0
 12 23  1  0  0  0  0
 11 24  1  0  0  0  0
  4 25  1  0  0  0  0
  3 26  1  0  0  0  0
  1 27  1  0  0  0  0
  1 28  1  0  0  0  0
  1 29  1  0  0  0  0
  2 30  1  0  0  0  0
  3 31  1  0  0  0  0
  4 32  1  0  0  0  0
  7 33  1  0  0  0  0
  7 34  1  0  0  0  0
  8 35  1  0  0  0  0
 10 36  1  0  0  0  0
 11 37  1  0  0  0  0
 12 38  1  0  0  0  0
 13 39  1  0  0  0  0
 14 40  1  0  0  0  0
 16 41  1  0  0  0  0
 16 42  1  0  0  0  0
 20 43  1  0  0  0  0
 21 44  1  0  0  0  0
 22 45  1  0  0  0  0
 23 46  1  0  0  0  0
 24 47  1  0  0  0  0
 25 48  1  0  0  0  0
 26 49  1  0  0  0  0
 27 50  1  0  0  0  0
M  END
$$$$
