C24H33NO3
APtclcactv06281817223D 0   0.00000     0.00000
 
 61 62  0  0  0  0  0  0  0  0999 V2000
   11.6720    1.6826    1.5191 C   0  0  0  0  0  0  0  0  0  0  0  0
   11.4725    1.8110    0.0076 C   0  0  0  0  0  0  0  0  0  0  0  0
   12.8306    1.7431   -0.6937 C   0  0  0  0  0  0  0  0  0  0  0  0
   10.5846    0.6680   -0.4886 C   0  0  0  0  0  0  0  0  0  0  0  0
    9.2461    0.8021    0.0918 N   0  0  0  0  0  0  0  0  0  0  0  0
    8.2891   -0.0988   -0.2062 C   0  0  0  0  0  0  0  0  0  0  0  0
    8.5367   -1.0239   -0.9575 O   0  0  0  0  0  0  0  0  0  0  0  0
    6.9528    0.0351    0.3732 C   0  0  0  0  0  0  0  0  0  0  0  0
    5.9929   -0.8685    0.0744 C   0  0  0  0  0  0  0  0  0  0  0  0
    4.6559   -0.7346    0.6541 C   0  0  0  0  0  0  0  0  0  0  0  0
    3.7085   -1.6263    0.3592 C   0  0  0  0  0  0  0  0  0  0  0  0
    2.3317   -1.4884    0.9562 C   0  0  0  0  0  0  0  0  0  0  0  0
    1.2900   -1.4646   -0.1642 C   0  0  0  0  0  0  0  0  0  0  0  0
   -0.1078   -1.3245    0.4419 C   0  0  0  0  0  0  0  0  0  0  0  0
   -1.1494   -1.3008   -0.6785 C   0  0  0  0  0  0  0  0  0  0  0  0
   -2.5473   -1.1607   -0.0724 C   0  0  0  0  0  0  0  0  0  0  0  0
   -3.5889   -1.1370   -1.1928 C   0  0  0  0  0  0  0  0  0  0  0  0
   -4.9657   -0.9990   -0.5958 C   0  0  0  0  0  0  0  0  0  0  0  0
   -5.7613   -0.0122   -0.9850 C   0  0  0  0  0  0  0  0  0  0  0  0
   -7.1114    0.1231   -0.3996 C   0  0  0  0  0  0  0  0  0  0  0  0
   -7.9500    1.1610   -0.8080 C   0  0  0  0  0  0  0  0  0  0  0  0
   -9.2126    1.2844   -0.2579 C   0  0  0  0  0  0  0  0  0  0  0  0
   -9.6457    0.3722    0.7035 C   0  0  0  0  0  0  0  0  0  0  0  0
   -8.8110   -0.6589    1.1087 C   0  0  0  0  0  0  0  0  0  0  0  0
   -7.5529   -0.7903    0.5589 C   0  0  0  0  0  0  0  0  0  0  0  0
  -10.9130    0.7089    1.0832 O   0  0  0  0  0  0  0  0  0  0  0  0
  -11.4032    1.5864    0.0524 C   0  0  0  0  0  0  0  0  0  0  0  0
  -10.2094    2.1908   -0.4791 O   0  0  0  0  0  0  0  0  0  0  0  0
   12.3045    2.4968    1.8725 H   0  0  0  0  0  0  0  0  0  0  0  0
   10.7044    1.7309    2.0187 H   0  0  0  0  0  0  0  0  0  0  0  0
   12.1491    0.7284    1.7428 H   0  0  0  0  0  0  0  0  0  0  0  0
   10.9953    2.7651   -0.2162 H   0  0  0  0  0  0  0  0  0  0  0  0
   13.3077    0.7889   -0.4700 H   0  0  0  0  0  0  0  0  0  0  0  0
   12.6885    1.8345   -1.7705 H   0  0  0  0  0  0  0  0  0  0  0  0
   13.4631    2.5573   -0.3402 H   0  0  0  0  0  0  0  0  0  0  0  0
   10.5149    0.7077   -1.5756 H   0  0  0  0  0  0  0  0  0  0  0  0
   11.0176   -0.2857   -0.1868 H   0  0  0  0  0  0  0  0  0  0  0  0
    9.0488    1.5393    0.6905 H   0  0  0  0  0  0  0  0  0  0  0  0
    6.7330    0.8559    1.0399 H   0  0  0  0  0  0  0  0  0  0  0  0
    6.2126   -1.6893   -0.5923 H   0  0  0  0  0  0  0  0  0  0  0  0
    4.4361    0.0862    1.3207 H   0  0  0  0  0  0  0  0  0  0  0  0
    3.9283   -2.4471   -0.3075 H   0  0  0  0  0  0  0  0  0  0  0  0
    2.1357   -2.3331    1.6166 H   0  0  0  0  0  0  0  0  0  0  0  0
    2.2739   -0.5608    1.5257 H   0  0  0  0  0  0  0  0  0  0  0  0
    1.4860   -0.6199   -0.8247 H   0  0  0  0  0  0  0  0  0  0  0  0
    1.3478   -2.3922   -0.7338 H   0  0  0  0  0  0  0  0  0  0  0  0
   -0.3037   -2.1693    1.1023 H   0  0  0  0  0  0  0  0  0  0  0  0
   -0.1656   -0.3970    1.0114 H   0  0  0  0  0  0  0  0  0  0  0  0
   -0.9535   -0.4561   -1.3389 H   0  0  0  0  0  0  0  0  0  0  0  0
   -1.0917   -2.2283   -1.2481 H   0  0  0  0  0  0  0  0  0  0  0  0
   -2.7432   -2.0054    0.5880 H   0  0  0  0  0  0  0  0  0  0  0  0
   -2.6050   -0.2332    0.4972 H   0  0  0  0  0  0  0  0  0  0  0  0
   -3.3930   -0.2923   -1.8532 H   0  0  0  0  0  0  0  0  0  0  0  0
   -3.5311   -2.0645   -1.7623 H   0  0  0  0  0  0  0  0  0  0  0  0
   -5.3044   -1.7039    0.1491 H   0  0  0  0  0  0  0  0  0  0  0  0
   -5.4226    0.6927   -1.7298 H   0  0  0  0  0  0  0  0  0  0  0  0
   -7.6132    1.8671   -1.5525 H   0  0  0  0  0  0  0  0  0  0  0  0
   -9.1491   -1.3639    1.8538 H   0  0  0  0  0  0  0  0  0  0  0  0
   -6.9060   -1.5946    0.8767 H   0  0  0  0  0  0  0  0  0  0  0  0
  -11.9212    1.0179   -0.7201 H   0  0  0  0  0  0  0  0  0  0  0  0
  -12.0607    2.3455    0.4763 H   0  0  0  0  0  0  0  0  0  0  0  0
  1  2  1  0  0  0  0
  2  3  1  0  0  0  0
  2  4  1  0  0  0  0
  4  5  1  0  0  0  0
  5  6  1  0  0  0  0
  6  7  2  0  0  0  0
  6  8  1  0  0  0  0
  8  9  2  0  0  0  0
  9 10  1  0  0  0  0
 10 11  2  0  0  0  0
 11 12  1  0  0  0  0
 12 13  1  0  0  0  0
 13 14  1  0  0  0  0
 14 15  1  0  0  0  0
 15 16  1  0  0  0  0
 16 17  1  0  0  0  0
 17 18  1  0  0  0  0
 18 19  2  0  0  0  0
 19 20  1  0  0  0  0
 20 21  2  0  0  0  0
 21 22  1  0  0  0  0
 22 23  2  0  0  0  0
 23 24  1  0  0  0  0
 24 25  2  0  0  0  0
 20 25  1  0  0  0  0
 23 26  1  0  0  0  0
 26 27  1  0  0  0  0
 27 28  1  0  0  0  0
 22 28  1  0  0  0  0
  1 29  1  0  0  0  0
  1 30  1  0  0  0  0
  1 31  1  0  0  0  0
  2 32  1  0  0  0  0
  3 33  1  0  0  0  0
  3 34  1  0  0  0  0
  3 35  1  0  0  0  0
  4 36  1  0  0  0  0
  4 37  1  0  0  0  0
  5 38  1  0  0  0  0
  8 39  1  0  0  0  0
  9 40  1  0  0  0  0
 10 41  1  0  0  0  0
 11 42  1  0  0  0  0
 12 43  1  0  0  0  0
 12 44  1  0  0  0  0
 13 45  1  0  0  0  0
 13 46  1  0  0  0  0
 14 47  1  0  0  0  0
 14 48  1  0  0  0  0
 15 49  1  0  0  0  0
 15 50  1  0  0  0  0
 16 51  1  0  0  0  0
 16 52  1  0  0  0  0
 17 53  1  0  0  0  0
 17 54  1  0  0  0  0
 18 55  1  0  0  0  0
 19 56  1  0  0  0  0
 21 57  1  0  0  0  0
 24 58  1  0  0  0  0
 25 59  1  0  0  0  0
 27 60  1  0  0  0  0
 27 61  1  0  0  0  0
M  END
$$$$
