C21H22O9
APtclcactv06281817223D 0   0.00000     0.00000
 
 52 54  0  0  0  0  0  0  0  0999 V2000
    7.2523   -2.5930    0.4983 C   0  0  0  0  0  0  0  0  0  0  0  0
    6.2175   -3.4927    0.3114 C   0  0  0  0  0  0  0  0  0  0  0  0
    4.9311   -3.0375    0.1114 C   0  0  0  0  0  0  0  0  0  0  0  0
    4.6739   -1.6637    0.0981 C   0  0  0  0  0  0  0  0  0  0  0  0
    5.7241   -0.7612    0.2880 C   0  0  0  0  0  0  0  0  0  0  0  0
    7.0053   -1.2314    0.4864 C   0  0  0  0  0  0  0  0  0  0  0  0
    3.3025   -1.1694   -0.1155 C   0  0  0  0  0  0  0  0  0  0  0  0
    3.0588    0.1527   -0.1276 C   0  0  0  0  0  0  0  0  0  0  0  0
    1.6898    0.6462   -0.3409 C   0  0  0  0  0  0  0  0  0  0  0  0
    0.6431   -0.2524   -0.5306 C   0  0  0  0  0  0  0  0  0  0  0  0
   -0.6475    0.2159   -0.7320 C   0  0  0  0  0  0  0  0  0  0  0  0
   -0.9075    1.5802   -0.7465 C   0  0  0  0  0  0  0  0  0  0  0  0
    0.1184    2.4907   -0.5599 C   0  0  0  0  0  0  0  0  0  0  0  0
    1.4279    2.0352   -0.3486 C   0  0  0  0  0  0  0  0  0  0  0  0
    2.5211    2.9946   -0.1495 C   0  0  0  0  0  0  0  0  0  0  0  0
    2.8002    3.3742    0.9713 O   0  0  0  0  0  0  0  0  0  0  0  0
    3.2158    3.4547   -1.2097 O   0  0  0  0  0  0  0  0  0  0  0  0
   -0.1434    3.8216   -0.5762 O   0  0  0  0  0  0  0  0  0  0  0  0
   -1.6629   -0.6655   -0.9167 O   0  0  0  0  0  0  0  0  0  0  0  0
   -2.9677   -0.1190   -1.1189 C   0  0  0  0  0  0  0  0  0  0  0  0
   -3.9519   -1.2493   -1.4312 C   0  0  0  0  0  0  0  0  0  0  0  0
   -4.0260   -2.1975   -0.2305 C   0  0  0  0  0  0  0  0  0  0  0  0
   -4.4326   -1.3994    1.0121 C   0  0  0  0  0  0  0  0  0  0  0  0
   -3.4299   -0.2633    1.2300 C   0  0  0  0  0  0  0  0  0  0  0  0
   -3.3874    0.5628    0.0648 O   0  0  0  0  0  0  0  0  0  0  0  0
   -3.8626    0.5751    2.4345 C   0  0  0  0  0  0  0  0  0  0  0  0
   -2.8675    1.5632    2.7092 O   0  0  0  0  0  0  0  0  0  0  0  0
   -5.7394   -0.8531    0.8223 O   0  0  0  0  0  0  0  0  0  0  0  0
   -4.9970   -3.2149   -0.4840 O   0  0  0  0  0  0  0  0  0  0  0  0
   -5.2459   -0.6990   -1.6857 O   0  0  0  0  0  0  0  0  0  0  0  0
    8.2569   -2.9555    0.6586 H   0  0  0  0  0  0  0  0  0  0  0  0
    6.4178   -4.5539    0.3219 H   0  0  0  0  0  0  0  0  0  0  0  0
    4.1246   -3.7407   -0.0351 H   0  0  0  0  0  0  0  0  0  0  0  0
    5.5329    0.3017    0.2786 H   0  0  0  0  0  0  0  0  0  0  0  0
    7.8179   -0.5353    0.6333 H   0  0  0  0  0  0  0  0  0  0  0  0
    2.4931   -1.8691   -0.2623 H   0  0  0  0  0  0  0  0  0  0  0  0
    3.8683    0.8524    0.0192 H   0  0  0  0  0  0  0  0  0  0  0  0
    0.8360   -1.3149   -0.5213 H   0  0  0  0  0  0  0  0  0  0  0  0
   -1.9161    1.9328   -0.9045 H   0  0  0  0  0  0  0  0  0  0  0  0
    3.9266    4.0849   -1.0288 H   0  0  0  0  0  0  0  0  0  0  0  0
   -0.3623    4.1900    0.2906 H   0  0  0  0  0  0  0  0  0  0  0  0
   -2.9429    0.5822   -1.9530 H   0  0  0  0  0  0  0  0  0  0  0  0
   -3.6096   -1.7983   -2.3084 H   0  0  0  0  0  0  0  0  0  0  0  0
   -3.0505   -2.6554   -0.0667 H   0  0  0  0  0  0  0  0  0  0  0  0
   -4.4341   -2.0559    1.8823 H   0  0  0  0  0  0  0  0  0  0  0  0
   -2.4407   -0.6821    1.4150 H   0  0  0  0  0  0  0  0  0  0  0  0
   -4.8106    1.0657    2.2139 H   0  0  0  0  0  0  0  0  0  0  0  0
   -3.9818   -0.0719    3.3036 H   0  0  0  0  0  0  0  0  0  0  0  0
   -3.0761    2.1327    3.4624 H   0  0  0  0  0  0  0  0  0  0  0  0
   -6.4258   -1.5178    0.6735 H   0  0  0  0  0  0  0  0  0  0  0  0
   -4.8058   -3.7557   -1.2625 H   0  0  0  0  0  0  0  0  0  0  0  0
   -5.2721   -0.0842   -2.4317 H   0  0  0  0  0  0  0  0  0  0  0  0
  1  2  2  0  0  0  0
  2  3  1  0  0  0  0
  3  4  2  0  0  0  0
  4  5  1  0  0  0  0
  5  6  2  0  0  0  0
  1  6  1  0  0  0  0
  4  7  1  0  0  0  0
  7  8  2  0  0  0  0
  8  9  1  0  0  0  0
  9 10  2  0  0  0  0
 10 11  1  0  0  0  0
 11 12  2  0  0  0  0
 12 13  1  0  0  0  0
 13 14  2  0  0  0  0
  9 14  1  0  0  0  0
 14 15  1  0  0  0  0
 15 16  2  0  0  0  0
 15 17  1  0  0  0  0
 13 18  1  0  0  0  0
 11 19  1  0  0  0  0
 19 20  1  0  0  0  0
 20 21  1  0  0  0  0
 21 22  1  0  0  0  0
 22 23  1  0  0  0  0
 23 24  1  0  0  0  0
 24 25  1  0  0  0  0
 20 25  1  0  0  0  0
 24 26  1  0  0  0  0
 26 27  1  0  0  0  0
 23 28  1  0  0  0  0
 22 29  1  0  0  0  0
 21 30  1  0  0  0  0
  1 31  1  0  0  0  0
  2 32  1  0  0  0  0
  3 33  1  0  0  0  0
  5 34  1  0  0  0  0
  6 35  1  0  0  0  0
  7 36  1  0  0  0  0
  8 37  1  0  0  0  0
 10 38  1  0  0  0  0
 12 39  1  0  0  0  0
 17 40  1  0  0  0  0
 18 41  1  0  0  0  0
 20 42  1  0  0  0  0
 21 43  1  0  0  0  0
 22 44  1  0  0  0  0
 23 45  1  0  0  0  0
 24 46  1  0  0  0  0
 26 47  1  0  0  0  0
 26 48  1  0  0  0  0
 27 49  1  0  0  0  0
 28 50  1  0  0  0  0
 29 51  1  0  0  0  0
 30 52  1  0  0  0  0
M  END
$$$$
