C12H18O4
APtclcactv06281817223D 0   0.00000     0.00000
 
 34 34  0  0  0  0  0  0  0  0999 V2000
   -2.6090   -1.4075    0.0770 C   0  0  0  0  0  0  0  0  0  0  0  0
   -1.5363   -2.5220    0.1586 C   0  0  0  0  0  0  0  0  0  0  0  0
   -0.3297   -1.8850   -0.5224 C   0  0  0  0  0  0  0  0  0  0  0  0
    0.4670   -2.4165   -1.2580 O   0  0  0  0  0  0  0  0  0  0  0  0
   -0.3511   -0.4349   -0.0719 C   0  0  0  0  0  0  0  0  0  0  0  0
   -1.8064   -0.1092    0.3091 C   0  0  0  0  0  0  0  0  0  0  0  0
   -2.3464    1.0104   -0.5828 C   0  0  0  0  0  0  0  0  0  0  0  0
   -3.7258    1.4014   -0.1185 C   0  0  0  0  0  0  0  0  0  0  0  0
   -4.2256    0.8419    0.8286 O   0  0  0  0  0  0  0  0  0  0  0  0
   -4.3991    2.3712   -0.7571 O   0  0  0  0  0  0  0  0  0  0  0  0
    0.5614   -0.2506    1.1423 C   0  0  0  0  0  0  0  0  0  0  0  0
    1.9935   -0.4813    0.7340 C   0  0  0  0  0  0  0  0  0  0  0  0
    2.8966    0.4394    0.9638 C   0  0  0  0  0  0  0  0  0  0  0  0
    4.3288    0.2087    0.5555 C   0  0  0  0  0  0  0  0  0  0  0  0
    4.7949    1.3576   -0.3411 C   0  0  0  0  0  0  0  0  0  0  0  0
    6.1529    1.1388   -0.7283 O   0  0  0  0  0  0  0  0  0  0  0  0
   -3.0772   -1.3977   -0.9072 H   0  0  0  0  0  0  0  0  0  0  0  0
   -3.3584   -1.5393    0.8575 H   0  0  0  0  0  0  0  0  0  0  0  0
   -1.3099   -2.7642    1.1969 H   0  0  0  0  0  0  0  0  0  0  0  0
   -1.8609   -3.4101   -0.3837 H   0  0  0  0  0  0  0  0  0  0  0  0
   -0.0249    0.2130   -0.8855 H   0  0  0  0  0  0  0  0  0  0  0  0
   -1.8631    0.1847    1.3572 H   0  0  0  0  0  0  0  0  0  0  0  0
   -1.6843    1.8742   -0.5226 H   0  0  0  0  0  0  0  0  0  0  0  0
   -2.3956    0.6615   -1.6143 H   0  0  0  0  0  0  0  0  0  0  0  0
   -5.2804    2.5871   -0.4228 H   0  0  0  0  0  0  0  0  0  0  0  0
    0.4524    0.7629    1.5282 H   0  0  0  0  0  0  0  0  0  0  0  0
    0.2846   -0.9660    1.9167 H   0  0  0  0  0  0  0  0  0  0  0  0
    2.2754   -1.4058    0.2519 H   0  0  0  0  0  0  0  0  0  0  0  0
    2.6147    1.3638    1.4458 H   0  0  0  0  0  0  0  0  0  0  0  0
    4.9574    0.1638    1.4448 H   0  0  0  0  0  0  0  0  0  0  0  0
    4.4040   -0.7317    0.0095 H   0  0  0  0  0  0  0  0  0  0  0  0
    4.1662    1.4025   -1.2304 H   0  0  0  0  0  0  0  0  0  0  0  0
    4.7197    2.2980    0.2049 H   0  0  0  0  0  0  0  0  0  0  0  0
    6.5153    1.8300   -1.2992 H   0  0  0  0  0  0  0  0  0  0  0  0
  1  2  1  0  0  0  0
  2  3  1  0  0  0  0
  3  4  2  0  0  0  0
  3  5  1  0  0  0  0
  5  6  1  0  0  0  0
  1  6  1  0  0  0  0
  6  7  1  0  0  0  0
  7  8  1  0  0  0  0
  8  9  2  0  0  0  0
  8 10  1  0  0  0  0
  5 11  1  0  0  0  0
 11 12  1  0  0  0  0
 12 13  2  0  0  0  0
 13 14  1  0  0  0  0
 14 15  1  0  0  0  0
 15 16  1  0  0  0  0
  1 17  1  0  0  0  0
  1 18  1  0  0  0  0
  2 19  1  0  0  0  0
  2 20  1  0  0  0  0
  5 21  1  0  0  0  0
  6 22  1  0  0  0  0
  7 23  1  0  0  0  0
  7 24  1  0  0  0  0
 10 25  1  0  0  0  0
 11 26  1  0  0  0  0
 11 27  1  0  0  0  0
 12 28  1  0  0  0  0
 13 29  1  0  0  0  0
 14 30  1  0  0  0  0
 14 31  1  0  0  0  0
 15 32  1  0  0  0  0
 15 33  1  0  0  0  0
 16 34  1  0  0  0  0
M  END
$$$$
