C28H46O
APtclcactv06281817223D 0   0.00000     0.00000
 
 75 78  0  0  0  0  0  0  0  0999 V2000
    5.3039   -3.3439    1.0808 C   0  0  0  0  0  0  0  0  0  0  0  0
    4.9869   -2.7633   -0.2988 C   0  0  0  0  0  0  0  0  0  0  0  0
    4.6064   -3.8964   -1.2539 C   0  0  0  0  0  0  0  0  0  0  0  0
    3.8374   -1.7955   -0.1844 C   0  0  0  0  0  0  0  0  0  0  0  0
    3.9995   -0.5422   -0.5295 C   0  0  0  0  0  0  0  0  0  0  0  0
    2.8313    0.4087   -0.4852 C   0  0  0  0  0  0  0  0  0  0  0  0
    3.1709    1.5919    0.4235 C   0  0  0  0  0  0  0  0  0  0  0  0
    4.4991    2.2095   -0.0184 C   0  0  0  0  0  0  0  0  0  0  0  0
    2.0679    2.6381    0.3283 C   0  0  0  0  0  0  0  0  0  0  0  0
    1.9112    3.1217   -1.1386 C   0  0  0  0  0  0  0  0  0  0  0  0
    0.5269    2.6050   -1.6247 C   0  0  0  0  0  0  0  0  0  0  0  0
    0.2695    1.4344   -0.6620 C   0  0  0  0  0  0  0  0  0  0  0  0
    0.6871    2.0594    0.6867 C   0  0  0  0  0  0  0  0  0  0  0  0
    0.6409    1.0114    1.7641 C   0  0  0  0  0  0  0  0  0  0  0  0
   -0.7222    0.3078    1.8066 C   0  0  0  0  0  0  0  0  0  0  0  0
   -1.7106    0.7980    0.7662 C   0  0  0  0  0  0  0  0  0  0  0  0
   -1.1092    0.8562   -0.6373 C   0  0  0  0  0  0  0  0  0  0  0  0
   -2.0871    1.6272   -1.5329 C   0  0  0  0  0  0  0  0  0  0  0  0
   -3.4204    0.9341   -1.4708 C   0  0  0  0  0  0  0  0  0  0  0  0
   -3.7809    0.1621   -0.4943 C   0  0  0  0  0  0  0  0  0  0  0  0
   -2.9376   -0.1222    0.7231 C   0  0  0  0  0  0  0  0  0  0  0  0
   -2.5285   -1.5897    0.6947 C   0  0  0  0  0  0  0  0  0  0  0  0
   -3.4935   -2.4040   -0.1633 C   0  0  0  0  0  0  0  0  0  0  0  0
   -4.9419   -1.9578   -0.0131 C   0  0  0  0  0  0  0  0  0  0  0  0
   -5.1279   -0.5376   -0.5608 C   0  0  0  0  0  0  0  0  0  0  0  0
   -5.7888   -2.8547   -0.7428 O   0  0  0  0  0  0  0  0  0  0  0  0
   -3.7642    0.1521    1.9805 C   0  0  0  0  0  0  0  0  0  0  0  0
   -0.1803    3.2665    1.0684 C   0  0  0  0  0  0  0  0  0  0  0  0
    2.5014   -2.2694    0.3269 C   0  0  0  0  0  0  0  0  0  0  0  0
    6.1353   -4.0439    0.9980 H   0  0  0  0  0  0  0  0  0  0  0  0
    5.5750   -2.5367    1.7612 H   0  0  0  0  0  0  0  0  0  0  0  0
    4.4274   -3.8648    1.4660 H   0  0  0  0  0  0  0  0  0  0  0  0
    5.8634   -2.2424   -0.6840 H   0  0  0  0  0  0  0  0  0  0  0  0
    3.7298   -4.4173   -0.8687 H   0  0  0  0  0  0  0  0  0  0  0  0
    4.3805   -3.4828   -2.2367 H   0  0  0  0  0  0  0  0  0  0  0  0
    5.4378   -4.5965   -1.3366 H   0  0  0  0  0  0  0  0  0  0  0  0
    4.9705   -0.1904   -0.8456 H   0  0  0  0  0  0  0  0  0  0  0  0
    2.6201    0.7719   -1.4910 H   0  0  0  0  0  0  0  0  0  0  0  0
    1.9555   -0.1096   -0.0948 H   0  0  0  0  0  0  0  0  0  0  0  0
    3.2558    1.2461    1.4537 H   0  0  0  0  0  0  0  0  0  0  0  0
    4.3941    2.6158   -1.0244 H   0  0  0  0  0  0  0  0  0  0  0  0
    4.7747    3.0089    0.6694 H   0  0  0  0  0  0  0  0  0  0  0  0
    5.2748    1.4438   -0.0150 H   0  0  0  0  0  0  0  0  0  0  0  0
    2.2847    3.4861    0.9776 H   0  0  0  0  0  0  0  0  0  0  0  0
    1.9371    4.2092   -1.1762 H   0  0  0  0  0  0  0  0  0  0  0  0
    2.7033    2.7005   -1.7549 H   0  0  0  0  0  0  0  0  0  0  0  0
   -0.2328    3.3719   -1.5534 H   0  0  0  0  0  0  0  0  0  0  0  0
    0.6045    2.2372   -2.6511 H   0  0  0  0  0  0  0  0  0  0  0  0
    0.9831    0.6257   -0.9201 H   0  0  0  0  0  0  0  0  0  0  0  0
    1.4117    0.2463    1.6099 H   0  0  0  0  0  0  0  0  0  0  0  0
    0.8334    1.4791    2.7413 H   0  0  0  0  0  0  0  0  0  0  0  0
   -0.5576   -0.7708    1.6735 H   0  0  0  0  0  0  0  0  0  0  0  0
   -1.1484    0.4423    2.8106 H   0  0  0  0  0  0  0  0  0  0  0  0
   -2.1043    1.7776    1.0486 H   0  0  0  0  0  0  0  0  0  0  0  0
   -1.0583   -0.1815   -1.0295 H   0  0  0  0  0  0  0  0  0  0  0  0
   -2.1908    2.6482   -1.1727 H   0  0  0  0  0  0  0  0  0  0  0  0
   -1.7231    1.6266   -2.5583 H   0  0  0  0  0  0  0  0  0  0  0  0
   -4.1126    1.0887   -2.2836 H   0  0  0  0  0  0  0  0  0  0  0  0
   -1.5223   -1.6800    0.2809 H   0  0  0  0  0  0  0  0  0  0  0  0
   -2.5293   -1.9857    1.7120 H   0  0  0  0  0  0  0  0  0  0  0  0
   -3.1985   -2.3131   -1.2117 H   0  0  0  0  0  0  0  0  0  0  0  0
   -3.4152   -3.4569    0.1226 H   0  0  0  0  0  0  0  0  0  0  0  0
   -5.2309   -1.9886    1.0383 H   0  0  0  0  0  0  0  0  0  0  0  0
   -5.8650    0.0031    0.0318 H   0  0  0  0  0  0  0  0  0  0  0  0
   -5.4648   -0.5854   -1.5999 H   0  0  0  0  0  0  0  0  0  0  0  0
   -6.7292   -2.6346   -0.6944 H   0  0  0  0  0  0  0  0  0  0  0  0
   -4.6434   -0.4923    1.9851 H   0  0  0  0  0  0  0  0  0  0  0  0
   -3.1597   -0.0517    2.8643 H   0  0  0  0  0  0  0  0  0  0  0  0
   -4.0786    1.1957    1.9881 H   0  0  0  0  0  0  0  0  0  0  0  0
   -1.2000    2.9342    1.2628 H   0  0  0  0  0  0  0  0  0  0  0  0
    0.2255    3.7368    1.9641 H   0  0  0  0  0  0  0  0  0  0  0  0
   -0.1824    3.9859    0.2495 H   0  0  0  0  0  0  0  0  0  0  0  0
    2.4368   -2.0856    1.3994 H   0  0  0  0  0  0  0  0  0  0  0  0
    1.7044   -1.7283   -0.1831 H   0  0  0  0  0  0  0  0  0  0  0  0
    2.3966   -3.3372    0.1344 H   0  0  0  0  0  0  0  0  0  0  0  0
  1  2  1  0  0  0  0
  2  3  1  0  0  0  0
  2  4  1  0  0  0  0
  4  5  2  0  0  0  0
  5  6  1  0  0  0  0
  6  7  1  0  0  0  0
  7  8  1  0  0  0  0
  7  9  1  0  0  0  0
  9 10  1  0  0  0  0
 10 11  1  0  0  0  0
 11 12  1  0  0  0  0
 12 13  1  0  0  0  0
  9 13  1  0  0  0  0
 13 14  1  0  0  0  0
 14 15  1  0  0  0  0
 15 16  1  0  0  0  0
 16 17  1  0  0  0  0
 12 17  1  0  0  0  0
 17 18  1  0  0  0  0
 18 19  1  0  0  0  0
 19 20  2  0  0  0  0
 20 21  1  0  0  0  0
 16 21  1  0  0  0  0
 21 22  1  0  0  0  0
 22 23  1  0  0  0  0
 23 24  1  0  0  0  0
 24 25  1  0  0  0  0
 20 25  1  0  0  0  0
 24 26  1  0  0  0  0
 21 27  1  0  0  0  0
 13 28  1  0  0  0  0
  4 29  1  0  0  0  0
  1 30  1  0  0  0  0
  1 31  1  0  0  0  0
  1 32  1  0  0  0  0
  2 33  1  0  0  0  0
  3 34  1  0  0  0  0
  3 35  1  0  0  0  0
  3 36  1  0  0  0  0
  5 37  1  0  0  0  0
  6 38  1  0  0  0  0
  6 39  1  0  0  0  0
  7 40  1  0  0  0  0
  8 41  1  0  0  0  0
  8 42  1  0  0  0  0
  8 43  1  0  0  0  0
  9 44  1  0  0  0  0
 10 45  1  0  0  0  0
 10 46  1  0  0  0  0
 11 47  1  0  0  0  0
 11 48  1  0  0  0  0
 12 49  1  0  0  0  0
 14 50  1  0  0  0  0
 14 51  1  0  0  0  0
 15 52  1  0  0  0  0
 15 53  1  0  0  0  0
 16 54  1  0  0  0  0
 17 55  1  0  0  0  0
 18 56  1  0  0  0  0
 18 57  1  0  0  0  0
 19 58  1  0  0  0  0
 22 59  1  0  0  0  0
 22 60  1  0  0  0  0
 23 61  1  0  0  0  0
 23 62  1  0  0  0  0
 24 63  1  0  0  0  0
 25 64  1  0  0  0  0
 25 65  1  0  0  0  0
 26 66  1  0  0  0  0
 27 67  1  0  0  0  0
 27 68  1  0  0  0  0
 27 69  1  0  0  0  0
 28 70  1  0  0  0  0
 28 71  1  0  0  0  0
 28 72  1  0  0  0  0
 29 73  1  0  0  0  0
 29 74  1  0  0  0  0
 29 75  1  0  0  0  0
M  END
$$$$
