C12H21NO11S3
APtclcactv06281817223D 0   0.00000     0.00000
 
 48 48  0  0  0  0  0  0  0  0999 V2000
    6.5587    1.0148    1.3175 C   0  0  0  0  0  0  0  0  0  0  0  0
    5.0517    1.9161    0.8623 S   0  0  0  0  0  0  0  0  0  0  0  0
    5.3394    2.8129   -0.2018 O   0  0  0  0  0  0  0  0  0  0  0  0
    4.0697    0.6781    0.0826 C   0  0  0  0  0  0  0  0  0  0  0  0
    2.8834    0.9804   -0.3835 C   0  0  0  0  0  0  0  0  0  0  0  0
    2.0435   -0.0784   -1.0503 C   0  0  0  0  0  0  0  0  0  0  0  0
    0.6799   -0.1567   -0.3609 C   0  0  0  0  0  0  0  0  0  0  0  0
   -0.0654    1.1357   -0.5734 C   0  0  0  0  0  0  0  0  0  0  0  0
    0.4802    2.0663   -1.1277 O   0  0  0  0  0  0  0  0  0  0  0  0
   -1.3383    1.2574   -0.1476 N   0  0  0  0  0  0  0  0  0  0  0  0
   -2.0696    2.4367   -0.4296 O   0  0  0  0  0  0  0  0  0  0  0  0
   -3.4868    2.4340    0.1252 S   0  0  0  0  0  0  0  0  0  0  0  0
   -4.1111    3.6136   -0.3628 O   0  0  0  0  0  0  0  0  0  0  0  0
   -4.0041    1.1301   -0.1019 O   0  0  0  0  0  0  0  0  0  0  0  0
   -3.3801    2.5971    1.6346 O   0  0  0  0  0  0  0  0  0  0  0  0
   -0.1260   -1.3138   -0.9548 C   0  0  0  0  0  0  0  0  0  0  0  0
    0.6655   -2.6159   -0.8075 C   0  0  0  0  0  0  0  0  0  0  0  0
    0.8753   -2.9112    0.6809 C   0  0  0  0  0  0  0  0  0  0  0  0
   -0.4891   -2.9787    1.3740 C   0  0  0  0  0  0  0  0  0  0  0  0
   -1.2360   -1.6626    1.1424 C   0  0  0  0  0  0  0  0  0  0  0  0
   -1.3701   -1.4332   -0.2617 O   0  0  0  0  0  0  0  0  0  0  0  0
   -2.6241   -1.7446    1.7808 C   0  0  0  0  0  0  0  0  0  0  0  0
   -3.2604   -0.4674    1.7029 O   0  0  0  0  0  0  0  0  0  0  0  0
   -1.2479   -4.0606    0.8301 O   0  0  0  0  0  0  0  0  0  0  0  0
    1.5495   -4.1623    0.8296 O   0  0  0  0  0  0  0  0  0  0  0  0
   -0.0627   -3.6881   -1.4090 O   0  0  0  0  0  0  0  0  0  0  0  0
   -0.4407   -0.9926   -2.7122 S   0  0  0  0  0  0  0  0  0  0  0  0
    7.2512    1.6932    1.8159 H   0  0  0  0  0  0  0  0  0  0  0  0
    6.3033    0.1968    1.9912 H   0  0  0  0  0  0  0  0  0  0  0  0
    7.0270    0.6128    0.4191 H   0  0  0  0  0  0  0  0  0  0  0  0
    4.4459   -0.3299   -0.0109 H   0  0  0  0  0  0  0  0  0  0  0  0
    2.5072    1.9885   -0.2900 H   0  0  0  0  0  0  0  0  0  0  0  0
    1.9053    0.1759   -2.1012 H   0  0  0  0  0  0  0  0  0  0  0  0
    2.5458   -1.0427   -0.9728 H   0  0  0  0  0  0  0  0  0  0  0  0
    0.8216   -0.3231    0.7069 H   0  0  0  0  0  0  0  0  0  0  0  0
   -1.7535    0.5372    0.3521 H   0  0  0  0  0  0  0  0  0  0  0  0
   -4.2329    2.6082    2.0903 H   0  0  0  0  0  0  0  0  0  0  0  0
    1.6333   -2.5113   -1.2980 H   0  0  0  0  0  0  0  0  0  0  0  0
    1.4732   -2.1177    1.1293 H   0  0  0  0  0  0  0  0  0  0  0  0
   -0.3470   -3.1336    2.4435 H   0  0  0  0  0  0  0  0  0  0  0  0
   -0.6764   -0.8429    1.5929 H   0  0  0  0  0  0  0  0  0  0  0  0
   -3.2251   -2.4829    1.2500 H   0  0  0  0  0  0  0  0  0  0  0  0
   -2.5266   -2.0388    2.8258 H   0  0  0  0  0  0  0  0  0  0  0  0
   -4.1133   -0.4247    2.1564 H   0  0  0  0  0  0  0  0  0  0  0  0
   -2.1253   -4.1625    1.2238 H   0  0  0  0  0  0  0  0  0  0  0  0
    1.6497   -4.4484    1.7479 H   0  0  0  0  0  0  0  0  0  0  0  0
    0.3811   -4.5454   -1.3526 H   0  0  0  0  0  0  0  0  0  0  0  0
   -1.1450   -2.0724   -3.0957 H   0  0  0  0  0  0  0  0  0  0  0  0
  1  2  1  0  0  0  0
  2  3  2  0  0  0  0
  2  4  1  0  0  0  0
  4  5  2  0  0  0  0
  5  6  1  0  0  0  0
  6  7  1  0  0  0  0
  7  8  1  0  0  0  0
  8  9  2  0  0  0  0
  8 10  1  0  0  0  0
 10 11  1  0  0  0  0
 11 12  1  0  0  0  0
 12 13  2  0  0  0  0
 12 14  2  0  0  0  0
 12 15  1  0  0  0  0
  7 16  1  0  0  0  0
 16 17  1  0  0  0  0
 17 18  1  0  0  0  0
 18 19  1  0  0  0  0
 19 20  1  0  0  0  0
 20 21  1  0  0  0  0
 16 21  1  0  0  0  0
 20 22  1  0  0  0  0
 22 23  1  0  0  0  0
 19 24  1  0  0  0  0
 18 25  1  0  0  0  0
 17 26  1  0  0  0  0
 16 27  1  0  0  0  0
  1 28  1  0  0  0  0
  1 29  1  0  0  0  0
  1 30  1  0  0  0  0
  4 31  1  0  0  0  0
  5 32  1  0  0  0  0
  6 33  1  0  0  0  0
  6 34  1  0  0  0  0
  7 35  1  0  0  0  0
 10 36  1  0  0  0  0
 15 37  1  0  0  0  0
 17 38  1  0  0  0  0
 18 39  1  0  0  0  0
 19 40  1  0  0  0  0
 20 41  1  0  0  0  0
 22 42  1  0  0  0  0
 22 43  1  0  0  0  0
 23 44  1  0  0  0  0
 24 45  1  0  0  0  0
 25 46  1  0  0  0  0
 26 47  1  0  0  0  0
 27 48  1  0  0  0  0
M  END
$$$$
