C22H32O4
APtclcactv06281817223D 0   0.00000     0.00000
 
 58 58  0  0  0  0  0  0  0  0999 V2000
    6.4452    3.9427    0.2931 C   0  0  0  0  0  0  0  0  0  0  0  0
    5.0418    3.3359    0.3495 C   0  0  0  0  0  0  0  0  0  0  0  0
    5.1481    1.8116    0.4284 C   0  0  0  0  0  0  0  0  0  0  0  0
    3.7447    1.2048    0.4848 C   0  0  0  0  0  0  0  0  0  0  0  0
    3.8509   -0.3195    0.5637 C   0  0  0  0  0  0  0  0  0  0  0  0
    2.4687   -0.9172    0.6192 C   0  0  0  0  0  0  0  0  0  0  0  0
    1.9047   -1.2198    1.8252 C   0  0  0  0  0  0  0  0  0  0  0  0
    0.6285   -1.7721    1.8867 C   0  0  0  0  0  0  0  0  0  0  0  0
   -0.0830   -2.0205    0.7221 C   0  0  0  0  0  0  0  0  0  0  0  0
    0.4776   -1.7182   -0.5074 C   0  0  0  0  0  0  0  0  0  0  0  0
    1.7627   -1.1560   -0.5648 C   0  0  0  0  0  0  0  0  0  0  0  0
    2.3693   -0.8303   -1.8653 C   0  0  0  0  0  0  0  0  0  0  0  0
    2.2000    0.2683   -2.3567 O   0  0  0  0  0  0  0  0  0  0  0  0
    3.1127   -1.7504   -2.5115 O   0  0  0  0  0  0  0  0  0  0  0  0
   -0.2130   -1.9593   -1.6497 O   0  0  0  0  0  0  0  0  0  0  0  0
   -1.4641   -2.6192    0.7950 C   0  0  0  0  0  0  0  0  0  0  0  0
   -2.4860   -1.5152    0.8842 C   0  0  0  0  0  0  0  0  0  0  0  0
   -3.4746   -1.4668    0.0261 C   0  0  0  0  0  0  0  0  0  0  0  0
   -3.5187   -2.4350   -1.1279 C   0  0  0  0  0  0  0  0  0  0  0  0
   -4.5676   -0.4428    0.1928 C   0  0  0  0  0  0  0  0  0  0  0  0
   -4.2491    0.7867   -0.6603 C   0  0  0  0  0  0  0  0  0  0  0  0
   -5.3422    1.8107   -0.4935 C   0  0  0  0  0  0  0  0  0  0  0  0
   -5.0544    3.0100   -0.0522 C   0  0  0  0  0  0  0  0  0  0  0  0
   -3.6567    3.3259    0.4145 C   0  0  0  0  0  0  0  0  0  0  0  0
   -6.1210    4.0739   -0.0113 C   0  0  0  0  0  0  0  0  0  0  0  0
    0.0783   -2.0692    3.0910 O   0  0  0  0  0  0  0  0  0  0  0  0
    6.9983    3.6630    1.1897 H   0  0  0  0  0  0  0  0  0  0  0  0
    6.9676    3.5689   -0.5875 H   0  0  0  0  0  0  0  0  0  0  0  0
    6.3695    5.0287    0.2369 H   0  0  0  0  0  0  0  0  0  0  0  0
    4.5194    3.7098    1.2301 H   0  0  0  0  0  0  0  0  0  0  0  0
    4.4887    3.6156   -0.5471 H   0  0  0  0  0  0  0  0  0  0  0  0
    5.6704    1.4378   -0.4522 H   0  0  0  0  0  0  0  0  0  0  0  0
    5.7012    1.5319    1.3250 H   0  0  0  0  0  0  0  0  0  0  0  0
    3.2223    1.5787    1.3654 H   0  0  0  0  0  0  0  0  0  0  0  0
    3.1916    1.4845   -0.4118 H   0  0  0  0  0  0  0  0  0  0  0  0
    4.3733   -0.6933   -0.3169 H   0  0  0  0  0  0  0  0  0  0  0  0
    4.4040   -0.5992    1.4603 H   0  0  0  0  0  0  0  0  0  0  0  0
    2.4520   -1.0298    2.7366 H   0  0  0  0  0  0  0  0  0  0  0  0
    3.4906   -1.4903   -3.3627 H   0  0  0  0  0  0  0  0  0  0  0  0
   -0.7624   -1.2187   -1.9408 H   0  0  0  0  0  0  0  0  0  0  0  0
   -1.6496   -3.2146   -0.0990 H   0  0  0  0  0  0  0  0  0  0  0  0
   -1.5384   -3.2552    1.6771 H   0  0  0  0  0  0  0  0  0  0  0  0
   -2.4034   -0.7639    1.6557 H   0  0  0  0  0  0  0  0  0  0  0  0
   -3.9752   -3.3693   -0.8010 H   0  0  0  0  0  0  0  0  0  0  0  0
   -4.1079   -2.0070   -1.9389 H   0  0  0  0  0  0  0  0  0  0  0  0
   -2.5050   -2.6290   -1.4784 H   0  0  0  0  0  0  0  0  0  0  0  0
   -5.5179   -0.8705   -0.1269 H   0  0  0  0  0  0  0  0  0  0  0  0
   -4.6349   -0.1505    1.2407 H   0  0  0  0  0  0  0  0  0  0  0  0
   -3.2988    1.2144   -0.3406 H   0  0  0  0  0  0  0  0  0  0  0  0
   -4.1818    0.4944   -1.7082 H   0  0  0  0  0  0  0  0  0  0  0  0
   -6.3628    1.5557   -0.7379 H   0  0  0  0  0  0  0  0  0  0  0  0
   -3.0425    3.6060   -0.4413 H   0  0  0  0  0  0  0  0  0  0  0  0
   -3.6888    4.1523    1.1245 H   0  0  0  0  0  0  0  0  0  0  0  0
   -3.2279    2.4481    0.8978 H   0  0  0  0  0  0  0  0  0  0  0  0
   -6.9372    3.7454    0.6321 H   0  0  0  0  0  0  0  0  0  0  0  0
   -5.6975    4.9980    0.3822 H   0  0  0  0  0  0  0  0  0  0  0  0
   -6.4996    4.2477   -1.0185 H   0  0  0  0  0  0  0  0  0  0  0  0
   -0.4301   -1.3447    3.4806 H   0  0  0  0  0  0  0  0  0  0  0  0
  1  2  1  0  0  0  0
  2  3  1  0  0  0  0
  3  4  1  0  0  0  0
  4  5  1  0  0  0  0
  5  6  1  0  0  0  0
  6  7  2  0  0  0  0
  7  8  1  0  0  0  0
  8  9  2  0  0  0  0
  9 10  1  0  0  0  0
 10 11  2  0  0  0  0
  6 11  1  0  0  0  0
 11 12  1  0  0  0  0
 12 13  2  0  0  0  0
 12 14  1  0  0  0  0
 10 15  1  0  0  0  0
  9 16  1  0  0  0  0
 16 17  1  0  0  0  0
 17 18  2  0  0  0  0
 18 19  1  0  0  0  0
 18 20  1  0  0  0  0
 20 21  1  0  0  0  0
 21 22  1  0  0  0  0
 22 23  2  0  0  0  0
 23 24  1  0  0  0  0
 23 25  1  0  0  0  0
  8 26  1  0  0  0  0
  1 27  1  0  0  0  0
  1 28  1  0  0  0  0
  1 29  1  0  0  0  0
  2 30  1  0  0  0  0
  2 31  1  0  0  0  0
  3 32  1  0  0  0  0
  3 33  1  0  0  0  0
  4 34  1  0  0  0  0
  4 35  1  0  0  0  0
  5 36  1  0  0  0  0
  5 37  1  0  0  0  0
  7 38  1  0  0  0  0
 14 39  1  0  0  0  0
 15 40  1  0  0  0  0
 16 41  1  0  0  0  0
 16 42  1  0  0  0  0
 17 43  1  0  0  0  0
 19 44  1  0  0  0  0
 19 45  1  0  0  0  0
 19 46  1  0  0  0  0
 20 47  1  0  0  0  0
 20 48  1  0  0  0  0
 21 49  1  0  0  0  0
 21 50  1  0  0  0  0
 22 51  1  0  0  0  0
 24 52  1  0  0  0  0
 24 53  1  0  0  0  0
 24 54  1  0  0  0  0
 25 55  1  0  0  0  0
 25 56  1  0  0  0  0
 25 57  1  0  0  0  0
 26 58  1  0  0  0  0
M  END
$$$$
