C33H60O14
APtclcactv06281817223D 0   0.00000     0.00000
 
107108  0  0  0  0  0  0  0  0999 V2000
   17.8991    0.8254   -3.0576 C   0  0  0  0  0  0  0  0  0  0  0  0
   17.1417   -0.2720   -2.3072 C   0  0  0  0  0  0  0  0  0  0  0  0
   15.8618    0.3118   -1.7056 C   0  0  0  0  0  0  0  0  0  0  0  0
   15.1044   -0.7855   -0.9551 C   0  0  0  0  0  0  0  0  0  0  0  0
   13.8245   -0.2018   -0.3535 C   0  0  0  0  0  0  0  0  0  0  0  0
   13.0671   -1.2991    0.3969 C   0  0  0  0  0  0  0  0  0  0  0  0
   11.7872   -0.7154    0.9985 C   0  0  0  0  0  0  0  0  0  0  0  0
   11.0298   -1.8127    1.7490 C   0  0  0  0  0  0  0  0  0  0  0  0
    9.7691   -1.2377    2.3416 C   0  0  0  0  0  0  0  0  0  0  0  0
    8.6095   -1.7832    2.0696 C   0  0  0  0  0  0  0  0  0  0  0  0
    7.3489   -1.2083    2.6622 C   0  0  0  0  0  0  0  0  0  0  0  0
    6.3608   -0.8819    1.5405 C   0  0  0  0  0  0  0  0  0  0  0  0
    5.0809   -0.2982    2.1421 C   0  0  0  0  0  0  0  0  0  0  0  0
    4.0929    0.0282    1.0204 C   0  0  0  0  0  0  0  0  0  0  0  0
    2.8129    0.6119    1.6220 C   0  0  0  0  0  0  0  0  0  0  0  0
    1.8249    0.9383    0.5003 C   0  0  0  0  0  0  0  0  0  0  0  0
    0.5450    1.5220    1.1019 C   0  0  0  0  0  0  0  0  0  0  0  0
   -0.4282    1.8435   -0.0029 C   0  0  0  0  0  0  0  0  0  0  0  0
   -0.1288    1.6278   -1.1534 O   0  0  0  0  0  0  0  0  0  0  0  0
   -1.6276    2.3694    0.2912 O   0  0  0  0  0  0  0  0  0  0  0  0
   -2.5139    2.6537   -0.8232 C   0  0  0  0  0  0  0  0  0  0  0  0
   -2.9092    1.3432   -1.5108 C   0  0  0  0  0  0  0  0  0  0  0  0
   -3.6892    0.4724   -0.5224 C   0  0  0  0  0  0  0  0  0  0  0  0
   -4.8350    1.1897   -0.0590 O   0  0  0  0  0  0  0  0  0  0  0  0
   -4.5246    2.4004    0.6338 C   0  0  0  0  0  0  0  0  0  0  0  0
   -3.7781    3.3487   -0.3082 C   0  0  0  0  0  0  0  0  0  0  0  0
   -3.4157    4.5365    0.3986 O   0  0  0  0  0  0  0  0  0  0  0  0
   -4.6206    3.6865   -1.4119 O   0  0  0  0  0  0  0  0  0  0  0  0
   -5.7341    3.0209    1.0744 O   0  0  0  0  0  0  0  0  0  0  0  0
   -6.3966    2.3195    2.1285 C   0  0  0  0  0  0  0  0  0  0  0  0
   -7.6717    3.0701    2.5179 C   0  0  0  0  0  0  0  0  0  0  0  0
   -8.3810    2.3191    3.6465 C   0  0  0  0  0  0  0  0  0  0  0  0
   -4.1395   -0.8128   -1.2198 C   0  0  0  0  0  0  0  0  0  0  0  0
   -4.7655   -1.6765   -0.2688 O   0  0  0  0  0  0  0  0  0  0  0  0
   -5.2254   -2.9120   -0.8203 C   0  0  0  0  0  0  0  0  0  0  0  0
   -5.7618   -3.8039    0.3024 C   0  0  0  0  0  0  0  0  0  0  0  0
   -6.9600   -3.1151    0.9629 C   0  0  0  0  0  0  0  0  0  0  0  0
   -8.0194   -2.8235   -0.1044 C   0  0  0  0  0  0  0  0  0  0  0  0
   -7.3958   -1.9694   -1.2114 C   0  0  0  0  0  0  0  0  0  0  0  0
   -6.2689   -2.6544   -1.7620 O   0  0  0  0  0  0  0  0  0  0  0  0
   -8.4310   -1.7241   -2.3109 C   0  0  0  0  0  0  0  0  0  0  0  0
   -7.8876   -0.8322   -3.2863 O   0  0  0  0  0  0  0  0  0  0  0  0
   -8.4903   -4.0537   -0.6584 O   0  0  0  0  0  0  0  0  0  0  0  0
   -7.5127   -3.9727    1.9633 O   0  0  0  0  0  0  0  0  0  0  0  0
   -6.1730   -5.0601   -0.2408 O   0  0  0  0  0  0  0  0  0  0  0  0
   -3.7287    1.6279   -2.6463 O   0  0  0  0  0  0  0  0  0  0  0  0
   -1.8473    3.5027   -1.7596 O   0  0  0  0  0  0  0  0  0  0  0  0
   18.8109    0.4095   -3.4862 H   0  0  0  0  0  0  0  0  0  0  0  0
   17.2701    1.2206   -3.8553 H   0  0  0  0  0  0  0  0  0  0  0  0
   18.1558    1.6278   -2.3660 H   0  0  0  0  0  0  0  0  0  0  0  0
   16.8850   -1.0744   -2.9988 H   0  0  0  0  0  0  0  0  0  0  0  0
   17.7707   -0.6672   -1.5095 H   0  0  0  0  0  0  0  0  0  0  0  0
   16.1185    1.1142   -1.0139 H   0  0  0  0  0  0  0  0  0  0  0  0
   15.2328    0.7070   -2.5032 H   0  0  0  0  0  0  0  0  0  0  0  0
   14.8477   -1.5879   -1.6467 H   0  0  0  0  0  0  0  0  0  0  0  0
   15.7334   -1.1808   -0.1574 H   0  0  0  0  0  0  0  0  0  0  0  0
   14.0812    0.6006    0.3381 H   0  0  0  0  0  0  0  0  0  0  0  0
   13.1955    0.1934   -1.1512 H   0  0  0  0  0  0  0  0  0  0  0  0
   12.8104   -2.1015   -0.2947 H   0  0  0  0  0  0  0  0  0  0  0  0
   13.6961   -1.6943    1.1946 H   0  0  0  0  0  0  0  0  0  0  0  0
   12.0439    0.0870    1.6902 H   0  0  0  0  0  0  0  0  0  0  0  0
   11.1582   -0.3202    0.2009 H   0  0  0  0  0  0  0  0  0  0  0  0
   10.7731   -2.6151    1.0574 H   0  0  0  0  0  0  0  0  0  0  0  0
   11.6588   -2.2079    2.5466 H   0  0  0  0  0  0  0  0  0  0  0  0
    9.8216   -0.3760    2.9904 H   0  0  0  0  0  0  0  0  0  0  0  0
    8.5570   -2.6450    1.4207 H   0  0  0  0  0  0  0  0  0  0  0  0
    6.9017   -1.9352    3.3402 H   0  0  0  0  0  0  0  0  0  0  0  0
    7.5881   -0.2979    3.2119 H   0  0  0  0  0  0  0  0  0  0  0  0
    6.8080   -0.1549    0.8625 H   0  0  0  0  0  0  0  0  0  0  0  0
    6.1216   -1.7922    0.9908 H   0  0  0  0  0  0  0  0  0  0  0  0
    4.6337   -1.0251    2.8201 H   0  0  0  0  0  0  0  0  0  0  0  0
    5.3201    0.6122    2.6918 H   0  0  0  0  0  0  0  0  0  0  0  0
    4.5401    0.7551    0.3424 H   0  0  0  0  0  0  0  0  0  0  0  0
    3.8536   -0.8821    0.4707 H   0  0  0  0  0  0  0  0  0  0  0  0
    2.3658   -0.1150    2.3000 H   0  0  0  0  0  0  0  0  0  0  0  0
    3.0522    1.5223    2.1717 H   0  0  0  0  0  0  0  0  0  0  0  0
    2.2721    1.6652   -0.1777 H   0  0  0  0  0  0  0  0  0  0  0  0
    1.5857    0.0280   -0.0494 H   0  0  0  0  0  0  0  0  0  0  0  0
    0.0978    0.7951    1.7799 H   0  0  0  0  0  0  0  0  0  0  0  0
    0.7842    2.4324    1.6517 H   0  0  0  0  0  0  0  0  0  0  0  0
   -2.0113    0.8150   -1.8317 H   0  0  0  0  0  0  0  0  0  0  0  0
   -3.0501    0.2220    0.3243 H   0  0  0  0  0  0  0  0  0  0  0  0
   -3.8964    2.1753    1.4956 H   0  0  0  0  0  0  0  0  0  0  0  0
   -4.1686    5.0258    0.7575 H   0  0  0  0  0  0  0  0  0  0  0  0
   -5.4436    4.1264   -1.1582 H   0  0  0  0  0  0  0  0  0  0  0  0
   -6.6545    1.3157    1.7911 H   0  0  0  0  0  0  0  0  0  0  0  0
   -5.7355    2.2537    2.9927 H   0  0  0  0  0  0  0  0  0  0  0  0
   -7.4138    4.0739    2.8553 H   0  0  0  0  0  0  0  0  0  0  0  0
   -8.3328    3.1359    1.6537 H   0  0  0  0  0  0  0  0  0  0  0  0
   -8.6389    1.3153    3.3091 H   0  0  0  0  0  0  0  0  0  0  0  0
   -7.7200    2.2533    4.5107 H   0  0  0  0  0  0  0  0  0  0  0  0
   -9.2895    2.8538    3.9239 H   0  0  0  0  0  0  0  0  0  0  0  0
   -4.8488   -0.5679   -2.0103 H   0  0  0  0  0  0  0  0  0  0  0  0
   -3.2734   -1.3146   -1.6513 H   0  0  0  0  0  0  0  0  0  0  0  0
   -4.3993   -3.4161   -1.3218 H   0  0  0  0  0  0  0  0  0  0  0  0
   -4.9799   -3.9653    1.0445 H   0  0  0  0  0  0  0  0  0  0  0  0
   -6.6364   -2.1802    1.4204 H   0  0  0  0  0  0  0  0  0  0  0  0
   -8.8520   -2.2837    0.3468 H   0  0  0  0  0  0  0  0  0  0  0  0
   -7.0733   -1.0147   -0.7959 H   0  0  0  0  0  0  0  0  0  0  0  0
   -8.6869   -2.6707   -2.7868 H   0  0  0  0  0  0  0  0  0  0  0  0
   -9.3270   -1.2829   -1.8744 H   0  0  0  0  0  0  0  0  0  0  0  0
   -8.4908   -0.6314   -4.0149 H   0  0  0  0  0  0  0  0  0  0  0  0
   -8.8942   -4.6476   -0.0109 H   0  0  0  0  0  0  0  0  0  0  0  0
   -6.8932   -4.2045    2.6687 H   0  0  0  0  0  0  0  0  0  0  0  0
   -5.4639   -5.5498   -0.6796 H   0  0  0  0  0  0  0  0  0  0  0  0
   -4.0164    0.8420   -3.1307 H   0  0  0  0  0  0  0  0  0  0  0  0
   -1.0386    3.1224   -2.1289 H   0  0  0  0  0  0  0  0  0  0  0  0
  1  2  1  0  0  0  0
  2  3  1  0  0  0  0
  3  4  1  0  0  0  0
  4  5  1  0  0  0  0
  5  6  1  0  0  0  0
  6  7  1  0  0  0  0
  7  8  1  0  0  0  0
  8  9  1  0  0  0  0
  9 10  2  0  0  0  0
 10 11  1  0  0  0  0
 11 12  1  0  0  0  0
 12 13  1  0  0  0  0
 13 14  1  0  0  0  0
 14 15  1  0  0  0  0
 15 16  1  0  0  0  0
 16 17  1  0  0  0  0
 17 18  1  0  0  0  0
 18 19  2  0  0  0  0
 18 20  1  0  0  0  0
 20 21  1  0  0  0  0
 21 22  1  0  0  0  0
 22 23  1  0  0  0  0
 23 24  1  0  0  0  0
 24 25  1  0  0  0  0
 25 26  1  0  0  0  0
 21 26  1  0  0  0  0
 26 27  1  0  0  0  0
 26 28  1  0  0  0  0
 25 29  1  0  0  0  0
 29 30  1  0  0  0  0
 30 31  1  0  0  0  0
 31 32  1  0  0  0  0
 23 33  1  0  0  0  0
 33 34  1  0  0  0  0
 34 35  1  0  0  0  0
 35 36  1  0  0  0  0
 36 37  1  0  0  0  0
 37 38  1  0  0  0  0
 38 39  1  0  0  0  0
 39 40  1  0  0  0  0
 35 40  1  0  0  0  0
 39 41  1  0  0  0  0
 41 42  1  0  0  0  0
 38 43  1  0  0  0  0
 37 44  1  0  0  0  0
 36 45  1  0  0  0  0
 22 46  1  0  0  0  0
 21 47  1  0  0  0  0
  1 48  1  0  0  0  0
  1 49  1  0  0  0  0
  1 50  1  0  0  0  0
  2 51  1  0  0  0  0
  2 52  1  0  0  0  0
  3 53  1  0  0  0  0
  3 54  1  0  0  0  0
  4 55  1  0  0  0  0
  4 56  1  0  0  0  0
  5 57  1  0  0  0  0
  5 58  1  0  0  0  0
  6 59  1  0  0  0  0
  6 60  1  0  0  0  0
  7 61  1  0  0  0  0
  7 62  1  0  0  0  0
  8 63  1  0  0  0  0
  8 64  1  0  0  0  0
  9 65  1  0  0  0  0
 10 66  1  0  0  0  0
 11 67  1  0  0  0  0
 11 68  1  0  0  0  0
 12 69  1  0  0  0  0
 12 70  1  0  0  0  0
 13 71  1  0  0  0  0
 13 72  1  0  0  0  0
 14 73  1  0  0  0  0
 14 74  1  0  0  0  0
 15 75  1  0  0  0  0
 15 76  1  0  0  0  0
 16 77  1  0  0  0  0
 16 78  1  0  0  0  0
 17 79  1  0  0  0  0
 17 80  1  0  0  0  0
 22 81  1  0  0  0  0
 23 82  1  0  0  0  0
 25 83  1  0  0  0  0
 27 84  1  0  0  0  0
 28 85  1  0  0  0  0
 30 86  1  0  0  0  0
 30 87  1  0  0  0  0
 31 88  1  0  0  0  0
 31 89  1  0  0  0  0
 32 90  1  0  0  0  0
 32 91  1  0  0  0  0
 32 92  1  0  0  0  0
 33 93  1  0  0  0  0
 33 94  1  0  0  0  0
 35 95  1  0  0  0  0
 36 96  1  0  0  0  0
 37 97  1  0  0  0  0
 38 98  1  0  0  0  0
 39 99  1  0  0  0  0
 41100  1  0  0  0  0
 41101  1  0  0  0  0
 42102  1  0  0  0  0
 43103  1  0  0  0  0
 44104  1  0  0  0  0
 45105  1  0  0  0  0
 46106  1  0  0  0  0
 47107  1  0  0  0  0
M  END
$$$$
