C24H30O13
APtclcactv06281817223D 0   0.00000     0.00000
 
 67 69  0  0  0  0  0  0  0  0999 V2000
   -1.7428   -0.3709   -2.5230 C   0  0  0  0  0  0  0  0  0  0  0  0
   -1.1377    0.9392   -2.0888 C   0  0  0  0  0  0  0  0  0  0  0  0
   -1.5688    1.5318   -1.0030 C   0  0  0  0  0  0  0  0  0  0  0  0
   -0.9897    2.8501   -0.5286 C   0  0  0  0  0  0  0  0  0  0  0  0
   -2.1203    3.7009   -0.0098 C   0  0  0  0  0  0  0  0  0  0  0  0
   -3.3419    3.2128    0.2079 C   0  0  0  0  0  0  0  0  0  0  0  0
   -3.7136    1.9466   -0.0206 O   0  0  0  0  0  0  0  0  0  0  0  0
   -2.6797    0.9389   -0.1549 C   0  0  0  0  0  0  0  0  0  0  0  0
   -3.2135   -0.2230   -0.7929 O   0  0  0  0  0  0  0  0  0  0  0  0
   -4.2190   -0.8942   -0.0309 C   0  0  0  0  0  0  0  0  0  0  0  0
   -4.8043   -2.0424   -0.8572 C   0  0  0  0  0  0  0  0  0  0  0  0
   -3.6981   -3.0569   -1.1628 C   0  0  0  0  0  0  0  0  0  0  0  0
   -3.0871   -3.5419    0.1555 C   0  0  0  0  0  0  0  0  0  0  0  0
   -2.5681   -2.3358    0.9427 C   0  0  0  0  0  0  0  0  0  0  0  0
   -3.6399   -1.4175    1.1661 O   0  0  0  0  0  0  0  0  0  0  0  0
   -2.0102   -2.8060    2.2875 C   0  0  0  0  0  0  0  0  0  0  0  0
   -1.4211   -1.6986    2.9722 O   0  0  0  0  0  0  0  0  0  0  0  0
   -4.0837   -4.2200    0.9228 O   0  0  0  0  0  0  0  0  0  0  0  0
   -4.2509   -4.1682   -1.8709 O   0  0  0  0  0  0  0  0  0  0  0  0
   -5.8465   -2.6808   -0.1167 O   0  0  0  0  0  0  0  0  0  0  0  0
   -1.8760    5.0695    0.2568 C   0  0  0  0  0  0  0  0  0  0  0  0
   -2.7329    5.7474    0.7921 O   0  0  0  0  0  0  0  0  0  0  0  0
   -0.6929    5.6223   -0.0826 O   0  0  0  0  0  0  0  0  0  0  0  0
    0.0216    2.5966    0.5913 C   0  0  0  0  0  0  0  0  0  0  0  0
    1.2088    1.8520    0.0370 C   0  0  0  0  0  0  0  0  0  0  0  0
    1.2985    1.6577   -1.1522 O   0  0  0  0  0  0  0  0  0  0  0  0
    2.1665    1.4048    0.8643 O   0  0  0  0  0  0  0  0  0  0  0  0
    3.2807    0.6959    0.2607 C   0  0  0  0  0  0  0  0  0  0  0  0
    4.2632    0.2663    1.3521 C   0  0  0  0  0  0  0  0  0  0  0  0
    5.4196   -0.4694    0.7257 C   0  0  0  0  0  0  0  0  0  0  0  0
    6.5397    0.2287    0.3145 C   0  0  0  0  0  0  0  0  0  0  0  0
    7.6039   -0.4463   -0.2617 C   0  0  0  0  0  0  0  0  0  0  0  0
    7.5419   -1.8268   -0.4249 C   0  0  0  0  0  0  0  0  0  0  0  0
    6.4162   -2.5205   -0.0106 C   0  0  0  0  0  0  0  0  0  0  0  0
    5.3604   -1.8417    0.5687 C   0  0  0  0  0  0  0  0  0  0  0  0
    8.5836   -2.4936   -0.9902 O   0  0  0  0  0  0  0  0  0  0  0  0
    8.7064    0.2391   -0.6671 O   0  0  0  0  0  0  0  0  0  0  0  0
   -1.2600   -0.7078   -3.4403 H   0  0  0  0  0  0  0  0  0  0  0  0
   -1.5964   -1.1157   -1.7407 H   0  0  0  0  0  0  0  0  0  0  0  0
   -2.8096   -0.2369   -2.7020 H   0  0  0  0  0  0  0  0  0  0  0  0
   -0.3487    1.3895   -2.6729 H   0  0  0  0  0  0  0  0  0  0  0  0
   -0.4995    3.3569   -1.3598 H   0  0  0  0  0  0  0  0  0  0  0  0
   -4.0877    3.8895    0.5982 H   0  0  0  0  0  0  0  0  0  0  0  0
   -2.2879    0.6764    0.8278 H   0  0  0  0  0  0  0  0  0  0  0  0
   -5.0109   -0.1905    0.2256 H   0  0  0  0  0  0  0  0  0  0  0  0
   -5.2073   -1.6505   -1.7912 H   0  0  0  0  0  0  0  0  0  0  0  0
   -2.9265   -2.5833   -1.7698 H   0  0  0  0  0  0  0  0  0  0  0  0
   -2.2619   -4.2225   -0.0542 H   0  0  0  0  0  0  0  0  0  0  0  0
   -1.7795   -1.8428    0.3742 H   0  0  0  0  0  0  0  0  0  0  0  0
   -2.8182   -3.2186    2.8917 H   0  0  0  0  0  0  0  0  0  0  0  0
   -1.2543   -3.5730    2.1192 H   0  0  0  0  0  0  0  0  0  0  0  0
   -1.0461   -1.9238    3.8346 H   0  0  0  0  0  0  0  0  0  0  0  0
   -4.4608   -4.9937    0.4819 H   0  0  0  0  0  0  0  0  0  0  0  0
   -4.6616   -3.9323   -2.7140 H   0  0  0  0  0  0  0  0  0  0  0  0
   -6.5796   -2.0946    0.1159 H   0  0  0  0  0  0  0  0  0  0  0  0
   -0.5893    6.5389    0.2077 H   0  0  0  0  0  0  0  0  0  0  0  0
    0.3513    3.5493    1.0056 H   0  0  0  0  0  0  0  0  0  0  0  0
   -0.4464    2.0018    1.3757 H   0  0  0  0  0  0  0  0  0  0  0  0
    2.9101   -0.1858   -0.2621 H   0  0  0  0  0  0  0  0  0  0  0  0
    3.7879    1.3516   -0.4471 H   0  0  0  0  0  0  0  0  0  0  0  0
    4.6338    1.1480    1.8749 H   0  0  0  0  0  0  0  0  0  0  0  0
    3.7560   -0.3894    2.0599 H   0  0  0  0  0  0  0  0  0  0  0  0
    6.5852    1.3002    0.4420 H   0  0  0  0  0  0  0  0  0  0  0  0
    6.3656   -3.5920   -0.1361 H   0  0  0  0  0  0  0  0  0  0  0  0
    4.4835   -2.3835    0.8912 H   0  0  0  0  0  0  0  0  0  0  0  0
    9.2472   -2.7971   -0.3557 H   0  0  0  0  0  0  0  0  0  0  0  0
    9.3874    0.3269    0.0138 H   0  0  0  0  0  0  0  0  0  0  0  0
  1  2  1  0  0  0  0
  2  3  2  0  0  0  0
  3  4  1  0  0  0  0
  4  5  1  0  0  0  0
  5  6  2  0  0  0  0
  6  7  1  0  0  0  0
  7  8  1  0  0  0  0
  3  8  1  0  0  0  0
  8  9  1  0  0  0  0
  9 10  1  0  0  0  0
 10 11  1  0  0  0  0
 11 12  1  0  0  0  0
 12 13  1  0  0  0  0
 13 14  1  0  0  0  0
 14 15  1  0  0  0  0
 10 15  1  0  0  0  0
 14 16  1  0  0  0  0
 16 17  1  0  0  0  0
 13 18  1  0  0  0  0
 12 19  1  0  0  0  0
 11 20  1  0  0  0  0
  5 21  1  0  0  0  0
 21 22  2  0  0  0  0
 21 23  1  0  0  0  0
  4 24  1  0  0  0  0
 24 25  1  0  0  0  0
 25 26  2  0  0  0  0
 25 27  1  0  0  0  0
 27 28  1  0  0  0  0
 28 29  1  0  0  0  0
 29 30  1  0  0  0  0
 30 31  2  0  0  0  0
 31 32  1  0  0  0  0
 32 33  2  0  0  0  0
 33 34  1  0  0  0  0
 34 35  2  0  0  0  0
 30 35  1  0  0  0  0
 33 36  1  0  0  0  0
 32 37  1  0  0  0  0
  1 38  1  0  0  0  0
  1 39  1  0  0  0  0
  1 40  1  0  0  0  0
  2 41  1  0  0  0  0
  4 42  1  0  0  0  0
  6 43  1  0  0  0  0
  8 44  1  0  0  0  0
 10 45  1  0  0  0  0
 11 46  1  0  0  0  0
 12 47  1  0  0  0  0
 13 48  1  0  0  0  0
 14 49  1  0  0  0  0
 16 50  1  0  0  0  0
 16 51  1  0  0  0  0
 17 52  1  0  0  0  0
 18 53  1  0  0  0  0
 19 54  1  0  0  0  0
 20 55  1  0  0  0  0
 23 56  1  0  0  0  0
 24 57  1  0  0  0  0
 24 58  1  0  0  0  0
 28 59  1  0  0  0  0
 28 60  1  0  0  0  0
 29 61  1  0  0  0  0
 29 62  1  0  0  0  0
 31 63  1  0  0  0  0
 34 64  1  0  0  0  0
 35 65  1  0  0  0  0
 36 66  1  0  0  0  0
 37 67  1  0  0  0  0
M  END
$$$$
