C16H16O2
APtclcactv06281817223D 0   0.00000     0.00000
 
 34 35  0  0  0  0  0  0  0  0999 V2000
   -2.8338    2.9784    0.0322 C   0  0  0  0  0  0  0  0  0  0  0  0
   -2.0201    1.9727   -0.5748 O   0  0  0  0  0  0  0  0  0  0  0  0
   -2.3427    0.6784   -0.3153 C   0  0  0  0  0  0  0  0  0  0  0  0
   -1.5945   -0.3488   -0.8724 C   0  0  0  0  0  0  0  0  0  0  0  0
   -1.9219   -1.6653   -0.6085 C   0  0  0  0  0  0  0  0  0  0  0  0
   -2.9944   -1.9620    0.2103 C   0  0  0  0  0  0  0  0  0  0  0  0
   -3.7459   -0.9381    0.7699 C   0  0  0  0  0  0  0  0  0  0  0  0
   -3.4164    0.3832    0.5109 C   0  0  0  0  0  0  0  0  0  0  0  0
   -4.8011   -1.2306    1.5748 O   0  0  0  0  0  0  0  0  0  0  0  0
   -0.4243   -0.0287   -1.7663 C   0  0  0  0  0  0  0  0  0  0  0  0
    0.8010    0.2123   -0.9227 C   0  0  0  0  0  0  0  0  0  0  0  0
    1.9063   -0.4852   -1.1448 C   0  0  0  0  0  0  0  0  0  0  0  0
    3.1081   -0.2488   -0.3174 C   0  0  0  0  0  0  0  0  0  0  0  0
    4.2730   -0.9813   -0.5486 C   0  0  0  0  0  0  0  0  0  0  0  0
    5.3914   -0.7560    0.2273 C   0  0  0  0  0  0  0  0  0  0  0  0
    5.3594    0.1936    1.2330 C   0  0  0  0  0  0  0  0  0  0  0  0
    4.2075    0.9228    1.4676 C   0  0  0  0  0  0  0  0  0  0  0  0
    3.0843    0.7117    0.6944 C   0  0  0  0  0  0  0  0  0  0  0  0
   -2.4687    3.9641   -0.2561 H   0  0  0  0  0  0  0  0  0  0  0  0
   -3.8650    2.8612   -0.3007 H   0  0  0  0  0  0  0  0  0  0  0  0
   -2.7883    2.8770    1.1165 H   0  0  0  0  0  0  0  0  0  0  0  0
   -1.3385   -2.4634   -1.0432 H   0  0  0  0  0  0  0  0  0  0  0  0
   -3.2485   -2.9916    0.4147 H   0  0  0  0  0  0  0  0  0  0  0  0
   -3.9999    1.1813    0.9454 H   0  0  0  0  0  0  0  0  0  0  0  0
   -4.5721   -1.3075    2.5111 H   0  0  0  0  0  0  0  0  0  0  0  0
   -0.2424   -0.8656   -2.4405 H   0  0  0  0  0  0  0  0  0  0  0  0
   -0.6460    0.8656   -2.3488 H   0  0  0  0  0  0  0  0  0  0  0  0
    0.7787    0.9533   -0.1373 H   0  0  0  0  0  0  0  0  0  0  0  0
    1.9285   -1.2262   -1.9302 H   0  0  0  0  0  0  0  0  0  0  0  0
    4.2990   -1.7234   -1.3329 H   0  0  0  0  0  0  0  0  0  0  0  0
    6.2937   -1.3222    0.0494 H   0  0  0  0  0  0  0  0  0  0  0  0
    6.2374    0.3660    1.8377 H   0  0  0  0  0  0  0  0  0  0  0  0
    4.1888    1.6624    2.2544 H   0  0  0  0  0  0  0  0  0  0  0  0
    2.1858    1.2819    0.8783 H   0  0  0  0  0  0  0  0  0  0  0  0
  1  2  1  0  0  0  0
  2  3  1  0  0  0  0
  3  4  2  0  0  0  0
  4  5  1  0  0  0  0
  5  6  2  0  0  0  0
  6  7  1  0  0  0  0
  7  8  2  0  0  0  0
  3  8  1  0  0  0  0
  7  9  1  0  0  0  0
  4 10  1  0  0  0  0
 10 11  1  0  0  0  0
 11 12  2  0  0  0  0
 12 13  1  0  0  0  0
 13 14  2  0  0  0  0
 14 15  1  0  0  0  0
 15 16  2  0  0  0  0
 16 17  1  0  0  0  0
 17 18  2  0  0  0  0
 13 18  1  0  0  0  0
  1 19  1  0  0  0  0
  1 20  1  0  0  0  0
  1 21  1  0  0  0  0
  5 22  1  0  0  0  0
  6 23  1  0  0  0  0
  8 24  1  0  0  0  0
  9 25  1  0  0  0  0
 10 26  1  0  0  0  0
 10 27  1  0  0  0  0
 11 28  1  0  0  0  0
 12 29  1  0  0  0  0
 14 30  1  0  0  0  0
 15 31  1  0  0  0  0
 16 32  1  0  0  0  0
 17 33  1  0  0  0  0
 18 34  1  0  0  0  0
M  END
$$$$
