C33H56O14
APtclcactv06281817223D 0   0.00000     0.00000
 
103104  0  0  0  0  0  0  0  0999 V2000
   -3.6080    0.2154   -4.9997 C   0  0  0  0  0  0  0  0  0  0  0  0
   -2.9794   -0.7208   -3.9657 C   0  0  0  0  0  0  0  0  0  0  0  0
   -4.0561   -1.1990   -2.9894 C   0  0  0  0  0  0  0  0  0  0  0  0
   -3.4689   -2.0733   -2.0236 O   0  0  0  0  0  0  0  0  0  0  0  0
   -4.3941   -2.5793   -1.0592 C   0  0  0  0  0  0  0  0  0  0  0  0
   -3.6875   -3.5948   -0.1576 C   0  0  0  0  0  0  0  0  0  0  0  0
   -2.5599   -2.8918    0.6043 C   0  0  0  0  0  0  0  0  0  0  0  0
   -3.1474   -1.7203    1.3973 C   0  0  0  0  0  0  0  0  0  0  0  0
   -3.8749   -0.7771    0.4355 C   0  0  0  0  0  0  0  0  0  0  0  0
   -4.8898   -1.5011   -0.2630 O   0  0  0  0  0  0  0  0  0  0  0  0
   -4.5159    0.3643    1.2276 C   0  0  0  0  0  0  0  0  0  0  0  0
   -5.0950    1.3059    0.3220 O   0  0  0  0  0  0  0  0  0  0  0  0
   -5.7236    2.4178    0.9630 C   0  0  0  0  0  0  0  0  0  0  0  0
   -6.1958    3.4174   -0.0960 C   0  0  0  0  0  0  0  0  0  0  0  0
   -7.2411    2.7452   -0.9914 C   0  0  0  0  0  0  0  0  0  0  0  0
   -8.3923    2.2351   -0.1192 C   0  0  0  0  0  0  0  0  0  0  0  0
   -7.8353    1.2811    0.9407 C   0  0  0  0  0  0  0  0  0  0  0  0
   -6.8469    1.9598    1.7183 O   0  0  0  0  0  0  0  0  0  0  0  0
   -8.9705    0.8139    1.8538 C   0  0  0  0  0  0  0  0  0  0  0  0
   -8.4737   -0.1648    2.7689 O   0  0  0  0  0  0  0  0  0  0  0  0
   -9.0316    3.3406    0.5221 O   0  0  0  0  0  0  0  0  0  0  0  0
   -7.7412    3.6929   -1.9368 O   0  0  0  0  0  0  0  0  0  0  0  0
   -6.7769    4.5542    0.5459 O   0  0  0  0  0  0  0  0  0  0  0  0
   -4.0703   -2.2164    2.3690 O   0  0  0  0  0  0  0  0  0  0  0  0
   -1.9420   -3.8151    1.5030 O   0  0  0  0  0  0  0  0  0  0  0  0
   -1.5735   -2.3944   -0.3380 O   0  0  0  0  0  0  0  0  0  0  0  0
   -0.4643   -1.8404    0.1765 C   0  0  0  0  0  0  0  0  0  0  0  0
   -0.3224   -1.7733    1.3745 O   0  0  0  0  0  0  0  0  0  0  0  0
    0.6039   -1.3021   -0.7402 C   0  0  0  0  0  0  0  0  0  0  0  0
    1.7514   -0.7300    0.0946 C   0  0  0  0  0  0  0  0  0  0  0  0
    2.8359   -0.1835   -0.8360 C   0  0  0  0  0  0  0  0  0  0  0  0
    3.9834    0.3886   -0.0013 C   0  0  0  0  0  0  0  0  0  0  0  0
    5.0679    0.9351   -0.9319 C   0  0  0  0  0  0  0  0  0  0  0  0
    6.2154    1.5072   -0.0972 C   0  0  0  0  0  0  0  0  0  0  0  0
    7.2999    2.0537   -1.0278 C   0  0  0  0  0  0  0  0  0  0  0  0
    8.4302    2.6172   -0.2056 C   0  0  0  0  0  0  0  0  0  0  0  0
    9.6544    2.1918   -0.3964 C   0  0  0  0  0  0  0  0  0  0  0  0
   10.7847    2.7553    0.4258 C   0  0  0  0  0  0  0  0  0  0  0  0
   11.5230    1.6295    1.1030 C   0  0  0  0  0  0  0  0  0  0  0  0
   12.8162    1.5014    0.9378 C   0  0  0  0  0  0  0  0  0  0  0  0
   13.5545    0.3757    1.6150 C   0  0  0  0  0  0  0  0  0  0  0  0
   14.3133   -0.4194    0.5840 C   0  0  0  0  0  0  0  0  0  0  0  0
   15.6029   -0.6057    0.7194 C   0  0  0  0  0  0  0  0  0  0  0  0
   16.3618   -1.4008   -0.3116 C   0  0  0  0  0  0  0  0  0  0  0  0
   17.5257   -0.5638   -0.8459 C   0  0  0  0  0  0  0  0  0  0  0  0
   -4.6246   -4.1406    0.7730 O   0  0  0  0  0  0  0  0  0  0  0  0
   -3.1407   -4.6448   -0.9579 O   0  0  0  0  0  0  0  0  0  0  0  0
   -2.8410    0.5560   -5.6952 H   0  0  0  0  0  0  0  0  0  0  0  0
   -4.3846   -0.3179   -5.5480 H   0  0  0  0  0  0  0  0  0  0  0  0
   -4.0463    1.0750   -4.4927 H   0  0  0  0  0  0  0  0  0  0  0  0
   -2.5411   -1.5804   -4.4727 H   0  0  0  0  0  0  0  0  0  0  0  0
   -2.2028   -0.1875   -3.4174 H   0  0  0  0  0  0  0  0  0  0  0  0
   -4.4943   -0.3394   -2.4823 H   0  0  0  0  0  0  0  0  0  0  0  0
   -4.8327   -1.7322   -3.5377 H   0  0  0  0  0  0  0  0  0  0  0  0
   -5.2247   -3.0645   -1.5720 H   0  0  0  0  0  0  0  0  0  0  0  0
   -2.3441   -1.1805    1.8987 H   0  0  0  0  0  0  0  0  0  0  0  0
   -3.1624   -0.3676   -0.2805 H   0  0  0  0  0  0  0  0  0  0  0  0
   -5.2916   -0.0369    1.8798 H   0  0  0  0  0  0  0  0  0  0  0  0
   -3.7551    0.8604    1.8302 H   0  0  0  0  0  0  0  0  0  0  0  0
   -5.0109    2.9037    1.6294 H   0  0  0  0  0  0  0  0  0  0  0  0
   -5.3469    3.7345   -0.7018 H   0  0  0  0  0  0  0  0  0  0  0  0
   -6.7848    1.9078   -1.5192 H   0  0  0  0  0  0  0  0  0  0  0  0
   -9.1144    1.7066   -0.7416 H   0  0  0  0  0  0  0  0  0  0  0  0
   -7.3835    0.4182    0.4515 H   0  0  0  0  0  0  0  0  0  0  0  0
   -9.3632    1.6651    2.4100 H   0  0  0  0  0  0  0  0  0  0  0  0
   -9.7656    0.3763    1.2501 H   0  0  0  0  0  0  0  0  0  0  0  0
   -9.1408   -0.5064    3.3799 H   0  0  0  0  0  0  0  0  0  0  0  0
   -9.4043    3.9890   -0.0908 H   0  0  0  0  0  0  0  0  0  0  0  0
   -7.0635    4.0630   -2.5189 H   0  0  0  0  0  0  0  0  0  0  0  0
   -6.1713    5.0265    1.1335 H   0  0  0  0  0  0  0  0  0  0  0  0
   -4.4815   -1.5274    2.9086 H   0  0  0  0  0  0  0  0  0  0  0  0
   -1.2174   -3.4364    2.0194 H   0  0  0  0  0  0  0  0  0  0  0  0
    0.9801   -2.1069   -1.3717 H   0  0  0  0  0  0  0  0  0  0  0  0
    0.1828   -0.5155   -1.3663 H   0  0  0  0  0  0  0  0  0  0  0  0
    1.3752    0.0748    0.7261 H   0  0  0  0  0  0  0  0  0  0  0  0
    2.1725   -1.5166    0.7207 H   0  0  0  0  0  0  0  0  0  0  0  0
    3.2121   -0.9883   -1.4676 H   0  0  0  0  0  0  0  0  0  0  0  0
    2.4148    0.6031   -1.4622 H   0  0  0  0  0  0  0  0  0  0  0  0
    3.6072    1.1934    0.6302 H   0  0  0  0  0  0  0  0  0  0  0  0
    4.4045   -0.3980    0.6249 H   0  0  0  0  0  0  0  0  0  0  0  0
    5.4441    0.1303   -1.5635 H   0  0  0  0  0  0  0  0  0  0  0  0
    4.6468    1.7217   -1.5581 H   0  0  0  0  0  0  0  0  0  0  0  0
    5.8392    2.3120    0.5343 H   0  0  0  0  0  0  0  0  0  0  0  0
    6.6365    0.7206    0.5290 H   0  0  0  0  0  0  0  0  0  0  0  0
    7.6761    1.2489   -1.6594 H   0  0  0  0  0  0  0  0  0  0  0  0
    6.8788    2.8403   -1.6540 H   0  0  0  0  0  0  0  0  0  0  0  0
    8.2309    3.3718    0.5409 H   0  0  0  0  0  0  0  0  0  0  0  0
    9.8537    1.4372   -1.1429 H   0  0  0  0  0  0  0  0  0  0  0  0
   11.4698    3.3003   -0.2236 H   0  0  0  0  0  0  0  0  0  0  0  0
   10.3831    3.4320    1.1800 H   0  0  0  0  0  0  0  0  0  0  0  0
   10.9860    0.9284    1.7247 H   0  0  0  0  0  0  0  0  0  0  0  0
   13.3532    2.2025    0.3161 H   0  0  0  0  0  0  0  0  0  0  0  0
   14.2534    0.7862    2.3439 H   0  0  0  0  0  0  0  0  0  0  0  0
   12.8409   -0.2739    2.1218 H   0  0  0  0  0  0  0  0  0  0  0  0
   13.7940   -0.8356   -0.2665 H   0  0  0  0  0  0  0  0  0  0  0  0
   16.1223   -0.1895    1.5700 H   0  0  0  0  0  0  0  0  0  0  0  0
   16.7488   -2.3119    0.1448 H   0  0  0  0  0  0  0  0  0  0  0  0
   15.6943   -1.6612   -1.1331 H   0  0  0  0  0  0  0  0  0  0  0  0
   17.1386    0.3473   -1.3023 H   0  0  0  0  0  0  0  0  0  0  0  0
   18.1931   -0.3034   -0.0245 H   0  0  0  0  0  0  0  0  0  0  0  0
   18.0745   -1.1389   -1.5917 H   0  0  0  0  0  0  0  0  0  0  0  0
   -5.3697   -4.5973    0.3588 H   0  0  0  0  0  0  0  0  0  0  0  0
   -3.7995   -5.1308   -1.4727 H   0  0  0  0  0  0  0  0  0  0  0  0
  1  2  1  0  0  0  0
  2  3  1  0  0  0  0
  3  4  1  0  0  0  0
  4  5  1  0  0  0  0
  5  6  1  0  0  0  0
  6  7  1  0  0  0  0
  7  8  1  0  0  0  0
  8  9  1  0  0  0  0
  9 10  1  0  0  0  0
  5 10  1  0  0  0  0
  9 11  1  0  0  0  0
 11 12  1  0  0  0  0
 12 13  1  0  0  0  0
 13 14  1  0  0  0  0
 14 15  1  0  0  0  0
 15 16  1  0  0  0  0
 16 17  1  0  0  0  0
 17 18  1  0  0  0  0
 13 18  1  0  0  0  0
 17 19  1  0  0  0  0
 19 20  1  0  0  0  0
 16 21  1  0  0  0  0
 15 22  1  0  0  0  0
 14 23  1  0  0  0  0
  8 24  1  0  0  0  0
  7 25  1  0  0  0  0
  7 26  1  0  0  0  0
 26 27  1  0  0  0  0
 27 28  2  0  0  0  0
 27 29  1  0  0  0  0
 29 30  1  0  0  0  0
 30 31  1  0  0  0  0
 31 32  1  0  0  0  0
 32 33  1  0  0  0  0
 33 34  1  0  0  0  0
 34 35  1  0  0  0  0
 35 36  1  0  0  0  0
 36 37  2  0  0  0  0
 37 38  1  0  0  0  0
 38 39  1  0  0  0  0
 39 40  2  0  0  0  0
 40 41  1  0  0  0  0
 41 42  1  0  0  0  0
 42 43  2  0  0  0  0
 43 44  1  0  0  0  0
 44 45  1  0  0  0  0
  6 46  1  0  0  0  0
  6 47  1  0  0  0  0
  1 48  1  0  0  0  0
  1 49  1  0  0  0  0
  1 50  1  0  0  0  0
  2 51  1  0  0  0  0
  2 52  1  0  0  0  0
  3 53  1  0  0  0  0
  3 54  1  0  0  0  0
  5 55  1  0  0  0  0
  8 56  1  0  0  0  0
  9 57  1  0  0  0  0
 11 58  1  0  0  0  0
 11 59  1  0  0  0  0
 13 60  1  0  0  0  0
 14 61  1  0  0  0  0
 15 62  1  0  0  0  0
 16 63  1  0  0  0  0
 17 64  1  0  0  0  0
 19 65  1  0  0  0  0
 19 66  1  0  0  0  0
 20 67  1  0  0  0  0
 21 68  1  0  0  0  0
 22 69  1  0  0  0  0
 23 70  1  0  0  0  0
 24 71  1  0  0  0  0
 25 72  1  0  0  0  0
 29 73  1  0  0  0  0
 29 74  1  0  0  0  0
 30 75  1  0  0  0  0
 30 76  1  0  0  0  0
 31 77  1  0  0  0  0
 31 78  1  0  0  0  0
 32 79  1  0  0  0  0
 32 80  1  0  0  0  0
 33 81  1  0  0  0  0
 33 82  1  0  0  0  0
 34 83  1  0  0  0  0
 34 84  1  0  0  0  0
 35 85  1  0  0  0  0
 35 86  1  0  0  0  0
 36 87  1  0  0  0  0
 37 88  1  0  0  0  0
 38 89  1  0  0  0  0
 38 90  1  0  0  0  0
 39 91  1  0  0  0  0
 40 92  1  0  0  0  0
 41 93  1  0  0  0  0
 41 94  1  0  0  0  0
 42 95  1  0  0  0  0
 43 96  1  0  0  0  0
 44 97  1  0  0  0  0
 44 98  1  0  0  0  0
 45 99  1  0  0  0  0
 45100  1  0  0  0  0
 45101  1  0  0  0  0
 46102  1  0  0  0  0
 47103  1  0  0  0  0
M  END
$$$$
