C39H32O14
APtclcactv06281817223D 0   0.00000     0.00000
 
 85 90  0  0  0  0  0  0  0  0999 V2000
   -0.5386    3.5481   -2.0496 C   0  0  0  0  0  0  0  0  0  0  0  0
   -0.3302    2.1327   -2.5921 C   0  0  0  0  0  0  0  0  0  0  0  0
    1.1253    1.7115   -2.3738 C   0  0  0  0  0  0  0  0  0  0  0  0
    1.4202    1.6813   -0.8710 C   0  0  0  0  0  0  0  0  0  0  0  0
    0.4315    0.7323   -0.1868 C   0  0  0  0  0  0  0  0  0  0  0  0
   -0.9973    1.1914   -0.4895 C   0  0  0  0  0  0  0  0  0  0  0  0
   -1.1952    1.2266   -1.9044 O   0  0  0  0  0  0  0  0  0  0  0  0
   -1.9259    0.2785    0.0989 O   0  0  0  0  0  0  0  0  0  0  0  0
   -3.2332    0.6561    0.1220 C   0  0  0  0  0  0  0  0  0  0  0  0
   -3.8410    0.9550    1.3043 C   0  0  0  0  0  0  0  0  0  0  0  0
   -5.1288    1.3328    1.3778 O   0  0  0  0  0  0  0  0  0  0  0  0
   -5.9119    1.4430    0.2843 C   0  0  0  0  0  0  0  0  0  0  0  0
   -7.2364    1.8363    0.3976 C   0  0  0  0  0  0  0  0  0  0  0  0
   -8.0277    1.9446   -0.7355 C   0  0  0  0  0  0  0  0  0  0  0  0
   -7.5071    1.6621   -1.9936 C   0  0  0  0  0  0  0  0  0  0  0  0
   -6.1884    1.2688   -2.1273 C   0  0  0  0  0  0  0  0  0  0  0  0
   -5.3827    1.1572   -0.9868 C   0  0  0  0  0  0  0  0  0  0  0  0
   -3.9728    0.7473   -1.0855 C   0  0  0  0  0  0  0  0  0  0  0  0
   -3.4606    0.4920   -2.1637 O   0  0  0  0  0  0  0  0  0  0  0  0
   -5.6786    0.9922   -3.3542 O   0  0  0  0  0  0  0  0  0  0  0  0
   -9.3240    2.3299   -0.6156 O   0  0  0  0  0  0  0  0  0  0  0  0
   -3.0569    0.8601    2.5495 C   0  0  0  0  0  0  0  0  0  0  0  0
   -3.0738    1.9116    3.4704 C   0  0  0  0  0  0  0  0  0  0  0  0
   -2.3397    1.8186    4.6323 C   0  0  0  0  0  0  0  0  0  0  0  0
   -1.5829    0.6820    4.8893 C   0  0  0  0  0  0  0  0  0  0  0  0
   -1.5627   -0.3655    3.9766 C   0  0  0  0  0  0  0  0  0  0  0  0
   -2.2990   -0.2840    2.8152 C   0  0  0  0  0  0  0  0  0  0  0  0
   -0.8604    0.5948    6.0358 O   0  0  0  0  0  0  0  0  0  0  0  0
    0.6219   -0.5944   -0.6827 O   0  0  0  0  0  0  0  0  0  0  0  0
    0.3429   -1.6097    0.1611 C   0  0  0  0  0  0  0  0  0  0  0  0
   -0.0514   -1.3736    1.2874 O   0  0  0  0  0  0  0  0  0  0  0  0
    0.5094   -2.9516   -0.2650 C   0  0  0  0  0  0  0  0  0  0  0  0
    0.2300   -3.9681    0.5797 C   0  0  0  0  0  0  0  0  0  0  0  0
    0.4026   -5.3591    0.1381 C   0  0  0  0  0  0  0  0  0  0  0  0
    0.1138   -6.4144    1.0116 C   0  0  0  0  0  0  0  0  0  0  0  0
    0.2772   -7.7154    0.5929 C   0  0  0  0  0  0  0  0  0  0  0  0
    0.7285   -7.9825   -0.6947 C   0  0  0  0  0  0  0  0  0  0  0  0
    1.0167   -6.9382   -1.5661 C   0  0  0  0  0  0  0  0  0  0  0  0
    0.8508   -5.6336   -1.1595 C   0  0  0  0  0  0  0  0  0  0  0  0
    0.8887   -9.2672   -1.1023 O   0  0  0  0  0  0  0  0  0  0  0  0
    2.7547    1.2184   -0.6549 O   0  0  0  0  0  0  0  0  0  0  0  0
    3.7285    2.1517   -0.6183 C   0  0  0  0  0  0  0  0  0  0  0  0
    3.4506    3.3268   -0.7661 O   0  0  0  0  0  0  0  0  0  0  0  0
    5.0755    1.7629   -0.4076 C   0  0  0  0  0  0  0  0  0  0  0  0
    6.0505    2.6974   -0.3710 C   0  0  0  0  0  0  0  0  0  0  0  0
    7.4467    2.2943   -0.1526 C   0  0  0  0  0  0  0  0  0  0  0  0
    8.4589    3.2607   -0.1143 C   0  0  0  0  0  0  0  0  0  0  0  0
    9.7652    2.8779    0.0905 C   0  0  0  0  0  0  0  0  0  0  0  0
   10.0801    1.5342    0.2587 C   0  0  0  0  0  0  0  0  0  0  0  0
    9.0787    0.5705    0.2215 C   0  0  0  0  0  0  0  0  0  0  0  0
    7.7685    0.9433    0.0235 C   0  0  0  0  0  0  0  0  0  0  0  0
   11.3698    1.1619    0.4595 O   0  0  0  0  0  0  0  0  0  0  0  0
    1.3342    0.4108   -2.9276 O   0  0  0  0  0  0  0  0  0  0  0  0
    0.1707    4.2268   -2.5233 H   0  0  0  0  0  0  0  0  0  0  0  0
   -1.5553    3.8748   -2.2678 H   0  0  0  0  0  0  0  0  0  0  0  0
   -0.3795    3.5509   -0.9712 H   0  0  0  0  0  0  0  0  0  0  0  0
   -0.5580    2.1148   -3.6579 H   0  0  0  0  0  0  0  0  0  0  0  0
    1.7884    2.4265   -2.8609 H   0  0  0  0  0  0  0  0  0  0  0  0
    1.3091    2.6837   -0.4575 H   0  0  0  0  0  0  0  0  0  0  0  0
    0.5983    0.7470    0.8902 H   0  0  0  0  0  0  0  0  0  0  0  0
   -1.1544    2.1874   -0.0756 H   0  0  0  0  0  0  0  0  0  0  0  0
   -7.6522    2.0581    1.3694 H   0  0  0  0  0  0  0  0  0  0  0  0
   -8.1345    1.7496   -2.8683 H   0  0  0  0  0  0  0  0  0  0  0  0
   -5.2880    1.7567   -3.7994 H   0  0  0  0  0  0  0  0  0  0  0  0
   -9.4566    3.2863   -0.6697 H   0  0  0  0  0  0  0  0  0  0  0  0
   -3.6612    2.7957    3.2711 H   0  0  0  0  0  0  0  0  0  0  0  0
   -2.3522    2.6305    5.3444 H   0  0  0  0  0  0  0  0  0  0  0  0
   -0.9725   -1.2467    4.1801 H   0  0  0  0  0  0  0  0  0  0  0  0
   -2.2830   -1.0988    2.1065 H   0  0  0  0  0  0  0  0  0  0  0  0
   -1.3155    0.1331    6.7533 H   0  0  0  0  0  0  0  0  0  0  0  0
    0.8595   -3.1612   -1.2650 H   0  0  0  0  0  0  0  0  0  0  0  0
   -0.1201   -3.7586    1.5797 H   0  0  0  0  0  0  0  0  0  0  0  0
   -0.2362   -6.2080    2.0122 H   0  0  0  0  0  0  0  0  0  0  0  0
    0.0547   -8.5302    1.2660 H   0  0  0  0  0  0  0  0  0  0  0  0
    1.3673   -7.1510   -2.5652 H   0  0  0  0  0  0  0  0  0  0  0  0
    1.0749   -4.8231   -1.8371 H   0  0  0  0  0  0  0  0  0  0  0  0
    0.1008   -9.6515   -1.5104 H   0  0  0  0  0  0  0  0  0  0  0  0
    5.3223    0.7197   -0.2764 H   0  0  0  0  0  0  0  0  0  0  0  0
    5.8037    3.7406   -0.5023 H   0  0  0  0  0  0  0  0  0  0  0  0
    8.2154    4.3047   -0.2455 H   0  0  0  0  0  0  0  0  0  0  0  0
   10.5468    3.6226    0.1203 H   0  0  0  0  0  0  0  0  0  0  0  0
    9.3287   -0.4720    0.3523 H   0  0  0  0  0  0  0  0  0  0  0  0
    6.9913    0.1939   -0.0053 H   0  0  0  0  0  0  0  0  0  0  0  0
   11.6317    1.1370    1.3900 H   0  0  0  0  0  0  0  0  0  0  0  0
    1.1608    0.3552   -3.8773 H   0  0  0  0  0  0  0  0  0  0  0  0
  1  2  1  0  0  0  0
  2  3  1  0  0  0  0
  3  4  1  0  0  0  0
  4  5  1  0  0  0  0
  5  6  1  0  0  0  0
  6  7  1  0  0  0  0
  2  7  1  0  0  0  0
  6  8  1  0  0  0  0
  8  9  1  0  0  0  0
  9 10  2  0  0  0  0
 10 11  1  0  0  0  0
 11 12  1  0  0  0  0
 12 13  2  0  0  0  0
 13 14  1  0  0  0  0
 14 15  2  0  0  0  0
 15 16  1  0  0  0  0
 16 17  2  0  0  0  0
 12 17  1  0  0  0  0
 17 18  1  0  0  0  0
  9 18  1  0  0  0  0
 18 19  2  0  0  0  0
 16 20  1  0  0  0  0
 14 21  1  0  0  0  0
 10 22  1  0  0  0  0
 22 23  2  0  0  0  0
 23 24  1  0  0  0  0
 24 25  2  0  0  0  0
 25 26  1  0  0  0  0
 26 27  2  0  0  0  0
 22 27  1  0  0  0  0
 25 28  1  0  0  0  0
  5 29  1  0  0  0  0
 29 30  1  0  0  0  0
 30 31  2  0  0  0  0
 30 32  1  0  0  0  0
 32 33  2  0  0  0  0
 33 34  1  0  0  0  0
 34 35  2  0  0  0  0
 35 36  1  0  0  0  0
 36 37  2  0  0  0  0
 37 38  1  0  0  0  0
 38 39  2  0  0  0  0
 34 39  1  0  0  0  0
 37 40  1  0  0  0  0
  4 41  1  0  0  0  0
 41 42  1  0  0  0  0
 42 43  2  0  0  0  0
 42 44  1  0  0  0  0
 44 45  2  0  0  0  0
 45 46  1  0  0  0  0
 46 47  2  0  0  0  0
 47 48  1  0  0  0  0
 48 49  2  0  0  0  0
 49 50  1  0  0  0  0
 50 51  2  0  0  0  0
 46 51  1  0  0  0  0
 49 52  1  0  0  0  0
  3 53  1  0  0  0  0
  1 54  1  0  0  0  0
  1 55  1  0  0  0  0
  1 56  1  0  0  0  0
  2 57  1  0  0  0  0
  3 58  1  0  0  0  0
  4 59  1  0  0  0  0
  5 60  1  0  0  0  0
  6 61  1  0  0  0  0
 13 62  1  0  0  0  0
 15 63  1  0  0  0  0
 20 64  1  0  0  0  0
 21 65  1  0  0  0  0
 23 66  1  0  0  0  0
 24 67  1  0  0  0  0
 26 68  1  0  0  0  0
 27 69  1  0  0  0  0
 28 70  1  0  0  0  0
 32 71  1  0  0  0  0
 33 72  1  0  0  0  0
 35 73  1  0  0  0  0
 36 74  1  0  0  0  0
 38 75  1  0  0  0  0
 39 76  1  0  0  0  0
 40 77  1  0  0  0  0
 44 78  1  0  0  0  0
 45 79  1  0  0  0  0
 47 80  1  0  0  0  0
 48 81  1  0  0  0  0
 50 82  1  0  0  0  0
 51 83  1  0  0  0  0
 52 84  1  0  0  0  0
 53 85  1  0  0  0  0
M  END
$$$$
