C4H6O3S2
APtclcactv06281817223D 0   0.00000     0.00000
 
 15 15  0  0  0  0  0  0  0  0999 V2000
   -0.3971    1.3465    0.3152 C   0  0  0  0  0  0  0  0  0  0  0  0
   -0.8274    0.0519   -0.4033 C   0  0  0  0  0  0  0  0  0  0  0  0
    0.0011   -1.1702   -0.0034 C   0  0  0  0  0  0  0  0  0  0  0  0
    1.7175   -0.6398    0.3465 S   0  0  0  0  0  0  0  0  0  0  0  0
    2.5540   -0.9914   -0.7471 O   0  0  0  0  0  0  0  0  0  0  0  0
    1.4291    1.3957    0.0775 S   0  0  0  0  0  0  0  0  0  0  0  0
   -2.2748   -0.2199   -0.0834 C   0  0  0  0  0  0  0  0  0  0  0  0
   -2.5853   -1.2333    0.4966 O   0  0  0  0  0  0  0  0  0  0  0  0
   -3.2190    0.6639   -0.4429 O   0  0  0  0  0  0  0  0  0  0  0  0
   -0.8667    2.2148   -0.1469 H   0  0  0  0  0  0  0  0  0  0  0  0
   -0.6438    1.2957    1.3757 H   0  0  0  0  0  0  0  0  0  0  0  0
   -0.7331    0.2013   -1.4789 H   0  0  0  0  0  0  0  0  0  0  0  0
   -0.4289   -1.6275    0.8877 H   0  0  0  0  0  0  0  0  0  0  0  0
    0.0012   -1.8942   -0.8182 H   0  0  0  0  0  0  0  0  0  0  0  0
   -4.1334    0.4459   -0.2161 H   0  0  0  0  0  0  0  0  0  0  0  0
  1  2  1  0  0  0  0
  2  3  1  0  0  0  0
  3  4  1  0  0  0  0
  4  5  2  0  0  0  0
  4  6  1  0  0  0  0
  1  6  1  0  0  0  0
  2  7  1  0  0  0  0
  7  8  2  0  0  0  0
  7  9  1  0  0  0  0
  1 10  1  0  0  0  0
  1 11  1  0  0  0  0
  2 12  1  0  0  0  0
  3 13  1  0  0  0  0
  3 14  1  0  0  0  0
  9 15  1  0  0  0  0
M  END
$$$$
