C27H34O15
APtclcactv06281817223D 0   0.00000     0.00000
 
 76 80  0  0  0  0  0  0  0  0999 V2000
    6.4950    2.5882    0.1575 C   0  0  0  0  0  0  0  0  0  0  0  0
    6.8080    1.4574   -0.8244 C   0  0  0  0  0  0  0  0  0  0  0  0
    8.1257    0.7867   -0.4274 C   0  0  0  0  0  0  0  0  0  0  0  0
    7.9744    0.1653    0.9644 C   0  0  0  0  0  0  0  0  0  0  0  0
    6.8025   -0.8210    0.9464 C   0  0  0  0  0  0  0  0  0  0  0  0
    5.5358   -0.0882    0.4964 C   0  0  0  0  0  0  0  0  0  0  0  0
    5.7548    0.4921   -0.7910 O   0  0  0  0  0  0  0  0  0  0  0  0
    4.4501   -1.0144    0.4233 O   0  0  0  0  0  0  0  0  0  0  0  0
    3.2229   -0.5051    0.1382 C   0  0  0  0  0  0  0  0  0  0  0  0
    3.0671    0.8574   -0.0668 C   0  0  0  0  0  0  0  0  0  0  0  0
    1.8145    1.3722   -0.3596 C   0  0  0  0  0  0  0  0  0  0  0  0
    0.7131    0.5288   -0.4473 C   0  0  0  0  0  0  0  0  0  0  0  0
   -0.6326    1.1261   -0.7727 C   0  0  0  0  0  0  0  0  0  0  0  0
   -1.7399    0.1391   -0.3950 C   0  0  0  0  0  0  0  0  0  0  0  0
   -1.3714   -1.2379   -0.9619 C   0  0  0  0  0  0  0  0  0  0  0  0
   -0.1829   -1.6892   -0.3109 O   0  0  0  0  0  0  0  0  0  0  0  0
    0.8675   -0.8306   -0.2399 C   0  0  0  0  0  0  0  0  0  0  0  0
    2.1266   -1.3470    0.0463 C   0  0  0  0  0  0  0  0  0  0  0  0
   -2.4929   -2.2104   -0.7023 C   0  0  0  0  0  0  0  0  0  0  0  0
   -3.3907   -2.5133   -1.7093 C   0  0  0  0  0  0  0  0  0  0  0  0
   -4.4196   -3.4045   -1.4739 C   0  0  0  0  0  0  0  0  0  0  0  0
   -4.5518   -3.9957   -0.2258 C   0  0  0  0  0  0  0  0  0  0  0  0
   -3.6497   -3.6901    0.7829 C   0  0  0  0  0  0  0  0  0  0  0  0
   -2.6191   -2.8026    0.5407 C   0  0  0  0  0  0  0  0  0  0  0  0
   -5.5634   -4.8723    0.0084 O   0  0  0  0  0  0  0  0  0  0  0  0
   -1.8505    0.0606    1.0276 O   0  0  0  0  0  0  0  0  0  0  0  0
   -2.9823    0.5727   -0.9522 O   0  0  0  0  0  0  0  0  0  0  0  0
   -3.4013    1.8634   -0.5043 C   0  0  0  0  0  0  0  0  0  0  0  0
   -4.6700    2.2771   -1.2545 C   0  0  0  0  0  0  0  0  0  0  0  0
   -5.7918    1.2857   -0.9301 C   0  0  0  0  0  0  0  0  0  0  0  0
   -6.0003    1.2460    0.5869 C   0  0  0  0  0  0  0  0  0  0  0  0
   -4.6802    0.8721    1.2659 C   0  0  0  0  0  0  0  0  0  0  0  0
   -3.6726    1.8163    0.8980 O   0  0  0  0  0  0  0  0  0  0  0  0
   -4.8649    0.8889    2.7847 C   0  0  0  0  0  0  0  0  0  0  0  0
   -3.6683    0.4279    3.4152 O   0  0  0  0  0  0  0  0  0  0  0  0
   -6.4254    2.5313    1.0443 O   0  0  0  0  0  0  0  0  0  0  0  0
   -6.9998    1.7054   -1.5679 O   0  0  0  0  0  0  0  0  0  0  0  0
   -5.0599    3.5897   -0.8458 O   0  0  0  0  0  0  0  0  0  0  0  0
    1.6621    2.7074   -0.5614 O   0  0  0  0  0  0  0  0  0  0  0  0
    7.0876   -1.8849    0.0361 O   0  0  0  0  0  0  0  0  0  0  0  0
    9.1756   -0.5260    1.3125 O   0  0  0  0  0  0  0  0  0  0  0  0
    8.4459   -0.2346   -1.3742 O   0  0  0  0  0  0  0  0  0  0  0  0
    7.2989    3.3239    0.1326 H   0  0  0  0  0  0  0  0  0  0  0  0
    5.5568    3.0656   -0.1253 H   0  0  0  0  0  0  0  0  0  0  0  0
    6.4063    2.1808    1.1646 H   0  0  0  0  0  0  0  0  0  0  0  0
    6.8963    1.8645   -1.8316 H   0  0  0  0  0  0  0  0  0  0  0  0
    8.9221    1.5307   -0.4095 H   0  0  0  0  0  0  0  0  0  0  0  0
    7.7791    0.9503    1.6950 H   0  0  0  0  0  0  0  0  0  0  0  0
    6.6525   -1.2268    1.9469 H   0  0  0  0  0  0  0  0  0  0  0  0
    5.2962    0.6972    1.2132 H   0  0  0  0  0  0  0  0  0  0  0  0
    3.9203    1.5160    0.0019 H   0  0  0  0  0  0  0  0  0  0  0  0
   -0.7641    2.0511   -0.2112 H   0  0  0  0  0  0  0  0  0  0  0  0
   -0.6859    1.3399   -1.8402 H   0  0  0  0  0  0  0  0  0  0  0  0
   -1.1948   -1.1581   -2.0345 H   0  0  0  0  0  0  0  0  0  0  0  0
    2.2495   -2.4087    0.2018 H   0  0  0  0  0  0  0  0  0  0  0  0
   -3.2876   -2.0525   -2.6806 H   0  0  0  0  0  0  0  0  0  0  0  0
   -5.1208   -3.6405   -2.2607 H   0  0  0  0  0  0  0  0  0  0  0  0
   -3.7504   -4.1490    1.7553 H   0  0  0  0  0  0  0  0  0  0  0  0
   -1.9166   -2.5643    1.3257 H   0  0  0  0  0  0  0  0  0  0  0  0
   -5.3389   -5.7928   -0.1849 H   0  0  0  0  0  0  0  0  0  0  0  0
   -2.0643    0.9024    1.4526 H   0  0  0  0  0  0  0  0  0  0  0  0
   -2.6116    2.5893   -0.6977 H   0  0  0  0  0  0  0  0  0  0  0  0
   -4.4773    2.2708   -2.3273 H   0  0  0  0  0  0  0  0  0  0  0  0
   -5.5156    0.2933   -1.2864 H   0  0  0  0  0  0  0  0  0  0  0  0
   -6.7589    0.5023    0.8309 H   0  0  0  0  0  0  0  0  0  0  0  0
   -4.3773   -0.1254    0.9474 H   0  0  0  0  0  0  0  0  0  0  0  0
   -5.0803    1.9056    3.1133 H   0  0  0  0  0  0  0  0  0  0  0  0
   -5.6940    0.2357    3.0570 H   0  0  0  0  0  0  0  0  0  0  0  0
   -3.7136    0.4121    4.3810 H   0  0  0  0  0  0  0  0  0  0  0  0
   -7.2550    2.8344    0.6506 H   0  0  0  0  0  0  0  0  0  0  0  0
   -6.9376    1.7596   -2.5313 H   0  0  0  0  0  0  0  0  0  0  0  0
   -4.3934    4.2691   -1.0170 H   0  0  0  0  0  0  0  0  0  0  0  0
    1.7732    2.9812   -1.4822 H   0  0  0  0  0  0  0  0  0  0  0  0
    6.3865   -2.5480   -0.0259 H   0  0  0  0  0  0  0  0  0  0  0  0
    9.1500   -0.9449    2.1837 H   0  0  0  0  0  0  0  0  0  0  0  0
    8.5518    0.0877   -2.2797 H   0  0  0  0  0  0  0  0  0  0  0  0
  1  2  1  0  0  0  0
  2  3  1  0  0  0  0
  3  4  1  0  0  0  0
  4  5  1  0  0  0  0
  5  6  1  0  0  0  0
  6  7  1  0  0  0  0
  2  7  1  0  0  0  0
  6  8  1  0  0  0  0
  8  9  1  0  0  0  0
  9 10  2  0  0  0  0
 10 11  1  0  0  0  0
 11 12  2  0  0  0  0
 12 13  1  0  0  0  0
 13 14  1  0  0  0  0
 14 15  1  0  0  0  0
 15 16  1  0  0  0  0
 16 17  1  0  0  0  0
 12 17  1  0  0  0  0
 17 18  2  0  0  0  0
  9 18  1  0  0  0  0
 15 19  1  0  0  0  0
 19 20  2  0  0  0  0
 20 21  1  0  0  0  0
 21 22  2  0  0  0  0
 22 23  1  0  0  0  0
 23 24  2  0  0  0  0
 19 24  1  0  0  0  0
 22 25  1  0  0  0  0
 14 26  1  0  0  0  0
 14 27  1  0  0  0  0
 27 28  1  0  0  0  0
 28 29  1  0  0  0  0
 29 30  1  0  0  0  0
 30 31  1  0  0  0  0
 31 32  1  0  0  0  0
 32 33  1  0  0  0  0
 28 33  1  0  0  0  0
 32 34  1  0  0  0  0
 34 35  1  0  0  0  0
 31 36  1  0  0  0  0
 30 37  1  0  0  0  0
 29 38  1  0  0  0  0
 11 39  1  0  0  0  0
  5 40  1  0  0  0  0
  4 41  1  0  0  0  0
  3 42  1  0  0  0  0
  1 43  1  0  0  0  0
  1 44  1  0  0  0  0
  1 45  1  0  0  0  0
  2 46  1  0  0  0  0
  3 47  1  0  0  0  0
  4 48  1  0  0  0  0
  5 49  1  0  0  0  0
  6 50  1  0  0  0  0
 10 51  1  0  0  0  0
 13 52  1  0  0  0  0
 13 53  1  0  0  0  0
 15 54  1  0  0  0  0
 18 55  1  0  0  0  0
 20 56  1  0  0  0  0
 21 57  1  0  0  0  0
 23 58  1  0  0  0  0
 24 59  1  0  0  0  0
 25 60  1  0  0  0  0
 26 61  1  0  0  0  0
 28 62  1  0  0  0  0
 29 63  1  0  0  0  0
 30 64  1  0  0  0  0
 31 65  1  0  0  0  0
 32 66  1  0  0  0  0
 34 67  1  0  0  0  0
 34 68  1  0  0  0  0
 35 69  1  0  0  0  0
 36 70  1  0  0  0  0
 37 71  1  0  0  0  0
 38 72  1  0  0  0  0
 39 73  1  0  0  0  0
 40 74  1  0  0  0  0
 41 75  1  0  0  0  0
 42 76  1  0  0  0  0
M  END
$$$$
