C22H22O12
APtclcactv06281817223D 0   0.00000     0.00000
 
 56 59  0  0  0  0  0  0  0  0999 V2000
   -5.5022   -3.4403    1.5043 C   0  0  0  0  0  0  0  0  0  0  0  0
   -6.3842   -2.8456    0.5501 O   0  0  0  0  0  0  0  0  0  0  0  0
   -5.9651   -1.6975   -0.0463 C   0  0  0  0  0  0  0  0  0  0  0  0
   -6.7760   -1.0648   -0.9868 C   0  0  0  0  0  0  0  0  0  0  0  0
   -6.3518    0.1071   -1.5976 C   0  0  0  0  0  0  0  0  0  0  0  0
   -5.1263    0.6505   -1.2774 C   0  0  0  0  0  0  0  0  0  0  0  0
   -4.3077    0.0214   -0.3352 C   0  0  0  0  0  0  0  0  0  0  0  0
   -4.7379   -1.1555    0.2843 C   0  0  0  0  0  0  0  0  0  0  0  0
   -2.9963    0.6010    0.0089 C   0  0  0  0  0  0  0  0  0  0  0  0
   -2.9196    1.9333    0.2838 C   0  0  0  0  0  0  0  0  0  0  0  0
   -1.6649    2.5062    0.6171 C   0  0  0  0  0  0  0  0  0  0  0  0
   -1.5579    3.6957    0.8697 O   0  0  0  0  0  0  0  0  0  0  0  0
   -0.4978    1.6103    0.6468 C   0  0  0  0  0  0  0  0  0  0  0  0
    0.7789    2.0902    0.9663 C   0  0  0  0  0  0  0  0  0  0  0  0
    1.8501    1.2163    0.9839 C   0  0  0  0  0  0  0  0  0  0  0  0
    1.6596   -0.1287    0.6864 C   0  0  0  0  0  0  0  0  0  0  0  0
    0.3992   -0.6106    0.3689 C   0  0  0  0  0  0  0  0  0  0  0  0
   -0.6876    0.2498    0.3464 C   0  0  0  0  0  0  0  0  0  0  0  0
   -1.9217   -0.2055    0.0450 O   0  0  0  0  0  0  0  0  0  0  0  0
    2.7185   -0.9780    0.7066 O   0  0  0  0  0  0  0  0  0  0  0  0
    3.9911   -0.4205    1.0406 C   0  0  0  0  0  0  0  0  0  0  0  0
    5.0305   -1.5405    1.1344 C   0  0  0  0  0  0  0  0  0  0  0  0
    5.1642   -2.2181   -0.2328 C   0  0  0  0  0  0  0  0  0  0  0  0
    5.5389   -1.1635   -1.2786 C   0  0  0  0  0  0  0  0  0  0  0  0
    4.4799   -0.0580   -1.2792 C   0  0  0  0  0  0  0  0  0  0  0  0
    4.3844    0.5091    0.0290 O   0  0  0  0  0  0  0  0  0  0  0  0
    4.8781    1.0296   -2.2789 C   0  0  0  0  0  0  0  0  0  0  0  0
    3.8350    2.0024   -2.3652 O   0  0  0  0  0  0  0  0  0  0  0  0
    6.8136   -0.6035   -0.9567 O   0  0  0  0  0  0  0  0  0  0  0  0
    6.1850   -3.2165   -0.1737 O   0  0  0  0  0  0  0  0  0  0  0  0
    6.2917   -0.9906    1.5202 O   0  0  0  0  0  0  0  0  0  0  0  0
    0.9630    3.4032    1.2559 O   0  0  0  0  0  0  0  0  0  0  0  0
   -4.0373    2.7084    0.2386 O   0  0  0  0  0  0  0  0  0  0  0  0
   -7.9848   -1.5967   -1.3068 O   0  0  0  0  0  0  0  0  0  0  0  0
   -5.3195   -2.7377    2.3174 H   0  0  0  0  0  0  0  0  0  0  0  0
   -5.9566   -4.3473    1.9031 H   0  0  0  0  0  0  0  0  0  0  0  0
   -4.5579   -3.6895    1.0203 H   0  0  0  0  0  0  0  0  0  0  0  0
   -6.9834    0.5941   -2.3258 H   0  0  0  0  0  0  0  0  0  0  0  0
   -4.7984    1.5621   -1.7548 H   0  0  0  0  0  0  0  0  0  0  0  0
   -4.1088   -1.6447    1.0132 H   0  0  0  0  0  0  0  0  0  0  0  0
    2.8373    1.5792    1.2290 H   0  0  0  0  0  0  0  0  0  0  0  0
    0.2638   -1.6571    0.1390 H   0  0  0  0  0  0  0  0  0  0  0  0
    3.9226    0.0931    1.9996 H   0  0  0  0  0  0  0  0  0  0  0  0
    4.7101   -2.2738    1.8745 H   0  0  0  0  0  0  0  0  0  0  0  0
    4.2155   -2.6806   -0.5050 H   0  0  0  0  0  0  0  0  0  0  0  0
    5.5821   -1.6271   -2.2642 H   0  0  0  0  0  0  0  0  0  0  0  0
    3.5155   -0.4785   -1.5643 H   0  0  0  0  0  0  0  0  0  0  0  0
    5.7973    1.5111   -1.9451 H   0  0  0  0  0  0  0  0  0  0  0  0
    5.0384    0.5809   -3.2593 H   0  0  0  0  0  0  0  0  0  0  0  0
    4.0198    2.7236   -2.9823 H   0  0  0  0  0  0  0  0  0  0  0  0
    7.5326   -1.2498   -0.9336 H   0  0  0  0  0  0  0  0  0  0  0  0
    6.0159   -3.9140    0.4743 H   0  0  0  0  0  0  0  0  0  0  0  0
    6.2794   -0.5409    2.3763 H   0  0  0  0  0  0  0  0  0  0  0  0
    0.8655    3.6165    2.1940 H   0  0  0  0  0  0  0  0  0  0  0  0
   -3.8794    3.6390    0.4491 H   0  0  0  0  0  0  0  0  0  0  0  0
   -8.7128   -1.2785   -0.7556 H   0  0  0  0  0  0  0  0  0  0  0  0
  1  2  1  0  0  0  0
  2  3  1  0  0  0  0
  3  4  2  0  0  0  0
  4  5  1  0  0  0  0
  5  6  2  0  0  0  0
  6  7  1  0  0  0  0
  7  8  2  0  0  0  0
  3  8  1  0  0  0  0
  7  9  1  0  0  0  0
  9 10  2  0  0  0  0
 10 11  1  0  0  0  0
 11 12  2  0  0  0  0
 11 13  1  0  0  0  0
 13 14  2  0  0  0  0
 14 15  1  0  0  0  0
 15 16  2  0  0  0  0
 16 17  1  0  0  0  0
 17 18  2  0  0  0  0
 13 18  1  0  0  0  0
 18 19  1  0  0  0  0
  9 19  1  0  0  0  0
 16 20  1  0  0  0  0
 20 21  1  0  0  0  0
 21 22  1  0  0  0  0
 22 23  1  0  0  0  0
 23 24  1  0  0  0  0
 24 25  1  0  0  0  0
 25 26  1  0  0  0  0
 21 26  1  0  0  0  0
 25 27  1  0  0  0  0
 27 28  1  0  0  0  0
 24 29  1  0  0  0  0
 23 30  1  0  0  0  0
 22 31  1  0  0  0  0
 14 32  1  0  0  0  0
 10 33  1  0  0  0  0
  4 34  1  0  0  0  0
  1 35  1  0  0  0  0
  1 36  1  0  0  0  0
  1 37  1  0  0  0  0
  5 38  1  0  0  0  0
  6 39  1  0  0  0  0
  8 40  1  0  0  0  0
 15 41  1  0  0  0  0
 17 42  1  0  0  0  0
 21 43  1  0  0  0  0
 22 44  1  0  0  0  0
 23 45  1  0  0  0  0
 24 46  1  0  0  0  0
 25 47  1  0  0  0  0
 27 48  1  0  0  0  0
 27 49  1  0  0  0  0
 28 50  1  0  0  0  0
 29 51  1  0  0  0  0
 30 52  1  0  0  0  0
 31 53  1  0  0  0  0
 32 54  1  0  0  0  0
 33 55  1  0  0  0  0
 34 56  1  0  0  0  0
M  END
$$$$
