C25H24O12
APtclcactv06281817233D 0   0.00000     0.00000
 
 61 63  0  0  0  0  0  0  0  0999 V2000
   -4.3811   -1.2919    0.2370 C   0  0  0  0  0  0  0  0  0  0  0  0
   -3.6351   -1.2840   -1.0988 C   0  0  0  0  0  0  0  0  0  0  0  0
   -4.0293   -0.0388   -1.8957 C   0  0  0  0  0  0  0  0  0  0  0  0
   -3.6613    1.2143   -1.0987 C   0  0  0  0  0  0  0  0  0  0  0  0
   -4.4072    1.2065    0.2371 C   0  0  0  0  0  0  0  0  0  0  0  0
   -4.0131   -0.0387    1.0340 C   0  0  0  0  0  0  0  0  0  0  0  0
   -4.7478   -0.0465    2.3497 C   0  0  0  0  0  0  0  0  0  0  0  0
   -5.7969    0.5428    2.4593 O   0  0  0  0  0  0  0  0  0  0  0  0
   -4.2367   -0.7079    3.4000 O   0  0  0  0  0  0  0  0  0  0  0  0
   -2.6046   -0.0240    1.2750 O   0  0  0  0  0  0  0  0  0  0  0  0
   -2.2528    1.2291   -0.8577 O   0  0  0  0  0  0  0  0  0  0  0  0
   -1.6616    2.4376   -0.7544 C   0  0  0  0  0  0  0  0  0  0  0  0
   -2.3253    3.4509   -0.8661 O   0  0  0  0  0  0  0  0  0  0  0  0
   -0.2670    2.5264   -0.5156 C   0  0  0  0  0  0  0  0  0  0  0  0
    0.3250    3.7364   -0.4122 C   0  0  0  0  0  0  0  0  0  0  0  0
    1.7706    3.8284   -0.1647 C   0  0  0  0  0  0  0  0  0  0  0  0
    2.3860    5.0811   -0.0571 C   0  0  0  0  0  0  0  0  0  0  0  0
    3.7447    5.1611    0.1759 C   0  0  0  0  0  0  0  0  0  0  0  0
    4.5005    3.9961    0.3031 C   0  0  0  0  0  0  0  0  0  0  0  0
    3.8910    2.7529    0.1961 C   0  0  0  0  0  0  0  0  0  0  0  0
    2.5353    2.6637   -0.0301 C   0  0  0  0  0  0  0  0  0  0  0  0
    5.8368    4.0776    0.5319 O   0  0  0  0  0  0  0  0  0  0  0  0
    4.3460    6.3763    0.2810 O   0  0  0  0  0  0  0  0  0  0  0  0
   -3.3326   -0.0315   -3.1433 O   0  0  0  0  0  0  0  0  0  0  0  0
   -2.2267   -1.2693   -0.8578 O   0  0  0  0  0  0  0  0  0  0  0  0
   -1.6103   -2.4652   -0.7546 C   0  0  0  0  0  0  0  0  0  0  0  0
   -2.2527   -3.4922   -0.8663 O   0  0  0  0  0  0  0  0  0  0  0  0
   -0.2141   -2.5248   -0.5158 C   0  0  0  0  0  0  0  0  0  0  0  0
    0.4030   -3.7221   -0.4124 C   0  0  0  0  0  0  0  0  0  0  0  0
    1.8503   -3.7839   -0.1649 C   0  0  0  0  0  0  0  0  0  0  0  0
    2.4918   -5.0234   -0.0574 C   0  0  0  0  0  0  0  0  0  0  0  0
    3.8520   -5.0749    0.1747 C   0  0  0  0  0  0  0  0  0  0  0  0
    4.5833   -3.8944    0.3019 C   0  0  0  0  0  0  0  0  0  0  0  0
    3.9477   -2.6642    0.1959 C   0  0  0  0  0  0  0  0  0  0  0  0
    2.5924   -2.6034   -0.0418 C   0  0  0  0  0  0  0  0  0  0  0  0
    5.9209   -3.9480    0.5306 O   0  0  0  0  0  0  0  0  0  0  0  0
    4.4786   -6.2774    0.2797 O   0  0  0  0  0  0  0  0  0  0  0  0
   -5.4554   -1.3031    0.0532 H   0  0  0  0  0  0  0  0  0  0  0  0
   -4.1003   -2.1790    0.8047 H   0  0  0  0  0  0  0  0  0  0  0  0
   -3.8973   -2.1768   -1.6666 H   0  0  0  0  0  0  0  0  0  0  0  0
   -5.1036   -0.0500   -2.0795 H   0  0  0  0  0  0  0  0  0  0  0  0
   -3.9421    2.1014   -1.6664 H   0  0  0  0  0  0  0  0  0  0  0  0
   -4.1451    2.0992    0.8049 H   0  0  0  0  0  0  0  0  0  0  0  0
   -5.4815    1.1952    0.0533 H   0  0  0  0  0  0  0  0  0  0  0  0
   -4.7440   -0.6842    4.2229 H   0  0  0  0  0  0  0  0  0  0  0  0
   -2.2834   -0.7857    1.7767 H   0  0  0  0  0  0  0  0  0  0  0  0
    0.3223    1.6267   -0.4165 H   0  0  0  0  0  0  0  0  0  0  0  0
   -0.2643    4.6360   -0.5113 H   0  0  0  0  0  0  0  0  0  0  0  0
    1.7998    5.9827   -0.1565 H   0  0  0  0  0  0  0  0  0  0  0  0
    4.4808    1.8536    0.2951 H   0  0  0  0  0  0  0  0  0  0  0  0
    2.0639    1.6955   -0.1128 H   0  0  0  0  0  0  0  0  0  0  0  0
    6.0748    4.0996    1.4689 H   0  0  0  0  0  0  0  0  0  0  0  0
    4.3706    6.7264    1.1821 H   0  0  0  0  0  0  0  0  0  0  0  0
   -3.5345    0.7315   -3.7021 H   0  0  0  0  0  0  0  0  0  0  0  0
    0.3562   -1.6130   -0.4166 H   0  0  0  0  0  0  0  0  0  0  0  0
   -0.1673   -4.6339   -0.5116 H   0  0  0  0  0  0  0  0  0  0  0  0
    1.9243   -5.9371   -0.1554 H   0  0  0  0  0  0  0  0  0  0  0  0
    4.5185   -1.7528    0.2955 H   0  0  0  0  0  0  0  0  0  0  0  0
    2.1008   -1.6453   -0.1238 H   0  0  0  0  0  0  0  0  0  0  0  0
    6.4573   -3.9619   -0.2739 H   0  0  0  0  0  0  0  0  0  0  0  0
    4.8084   -6.6237   -0.5607 H   0  0  0  0  0  0  0  0  0  0  0  0
  1  2  1  0  0  0  0
  2  3  1  0  0  0  0
  3  4  1  0  0  0  0
  4  5  1  0  0  0  0
  5  6  1  0  0  0  0
  1  6  1  0  0  0  0
  6  7  1  0  0  0  0
  7  8  2  0  0  0  0
  7  9  1  0  0  0  0
  6 10  1  0  0  0  0
  4 11  1  0  0  0  0
 11 12  1  0  0  0  0
 12 13  2  0  0  0  0
 12 14  1  0  0  0  0
 14 15  2  0  0  0  0
 15 16  1  0  0  0  0
 16 17  2  0  0  0  0
 17 18  1  0  0  0  0
 18 19  2  0  0  0  0
 19 20  1  0  0  0  0
 20 21  2  0  0  0  0
 16 21  1  0  0  0  0
 19 22  1  0  0  0  0
 18 23  1  0  0  0  0
  3 24  1  0  0  0  0
  2 25  1  0  0  0  0
 25 26  1  0  0  0  0
 26 27  2  0  0  0  0
 26 28  1  0  0  0  0
 28 29  2  0  0  0  0
 29 30  1  0  0  0  0
 30 31  2  0  0  0  0
 31 32  1  0  0  0  0
 32 33  2  0  0  0  0
 33 34  1  0  0  0  0
 34 35  2  0  0  0  0
 30 35  1  0  0  0  0
 33 36  1  0  0  0  0
 32 37  1  0  0  0  0
  1 38  1  0  0  0  0
  1 39  1  0  0  0  0
  2 40  1  0  0  0  0
  3 41  1  0  0  0  0
  4 42  1  0  0  0  0
  5 43  1  0  0  0  0
  5 44  1  0  0  0  0
  9 45  1  0  0  0  0
 10 46  1  0  0  0  0
 14 47  1  0  0  0  0
 15 48  1  0  0  0  0
 17 49  1  0  0  0  0
 20 50  1  0  0  0  0
 21 51  1  0  0  0  0
 22 52  1  0  0  0  0
 23 53  1  0  0  0  0
 24 54  1  0  0  0  0
 28 55  1  0  0  0  0
 29 56  1  0  0  0  0
 31 57  1  0  0  0  0
 34 58  1  0  0  0  0
 35 59  1  0  0  0  0
 36 60  1  0  0  0  0
 37 61  1  0  0  0  0
M  END
$$$$
