C26H30O4
APtclcactv06281817233D 0   0.00000     0.00000
 
 60 61  0  0  0  0  0  0  0  0999 V2000
   -4.2538   -3.4137   -1.8532 C   0  0  0  0  0  0  0  0  0  0  0  0
   -5.6202   -3.5341   -1.2290 C   0  0  0  0  0  0  0  0  0  0  0  0
   -5.9050   -2.8617   -0.1414 C   0  0  0  0  0  0  0  0  0  0  0  0
   -4.9092   -1.8797    0.4199 C   0  0  0  0  0  0  0  0  0  0  0  0
   -5.5770   -0.5127    0.5823 C   0  0  0  0  0  0  0  0  0  0  0  0
   -4.5812    0.4693    1.1435 C   0  0  0  0  0  0  0  0  0  0  0  0
   -3.9013    1.2460    0.3370 C   0  0  0  0  0  0  0  0  0  0  0  0
   -2.9743    2.2915    0.9014 C   0  0  0  0  0  0  0  0  0  0  0  0
   -1.6000    2.1175    0.3080 C   0  0  0  0  0  0  0  0  0  0  0  0
   -1.2609    2.7813   -0.8618 C   0  0  0  0  0  0  0  0  0  0  0  0
    0.0068    2.6249   -1.4152 C   0  0  0  0  0  0  0  0  0  0  0  0
    0.9331    1.8110   -0.8058 C   0  0  0  0  0  0  0  0  0  0  0  0
    0.6019    1.1372    0.3743 C   0  0  0  0  0  0  0  0  0  0  0  0
   -0.6749    1.2997    0.9336 C   0  0  0  0  0  0  0  0  0  0  0  0
   -1.0044    0.6503    2.0783 O   0  0  0  0  0  0  0  0  0  0  0  0
    1.5916    0.2635    1.0305 C   0  0  0  0  0  0  0  0  0  0  0  0
    1.3006   -0.3221    2.0582 O   0  0  0  0  0  0  0  0  0  0  0  0
    2.9224    0.1000    0.4478 C   0  0  0  0  0  0  0  0  0  0  0  0
    3.8296   -0.7009    1.0492 C   0  0  0  0  0  0  0  0  0  0  0  0
    5.1671   -0.8653    0.4636 C   0  0  0  0  0  0  0  0  0  0  0  0
    6.1090   -1.6944    1.0847 C   0  0  0  0  0  0  0  0  0  0  0  0
    7.3605   -1.8449    0.5319 C   0  0  0  0  0  0  0  0  0  0  0  0
    7.6903   -1.1749   -0.6409 C   0  0  0  0  0  0  0  0  0  0  0  0
    6.7588   -0.3503   -1.2618 C   0  0  0  0  0  0  0  0  0  0  0  0
    5.5023   -0.1978   -0.7207 C   0  0  0  0  0  0  0  0  0  0  0  0
    8.9261   -1.3260   -1.1814 O   0  0  0  0  0  0  0  0  0  0  0  0
   -2.1689    3.5863   -1.4695 O   0  0  0  0  0  0  0  0  0  0  0  0
   -1.7549    4.2402   -2.6708 C   0  0  0  0  0  0  0  0  0  0  0  0
   -4.3676    0.5579    2.6327 C   0  0  0  0  0  0  0  0  0  0  0  0
   -6.6589   -4.4279   -1.8560 C   0  0  0  0  0  0  0  0  0  0  0  0
   -3.4927   -3.6516   -1.1101 H   0  0  0  0  0  0  0  0  0  0  0  0
   -4.1742   -4.1076   -2.6900 H   0  0  0  0  0  0  0  0  0  0  0  0
   -4.1063   -2.3947   -2.2109 H   0  0  0  0  0  0  0  0  0  0  0  0
   -6.8535   -3.0112    0.3530 H   0  0  0  0  0  0  0  0  0  0  0  0
   -4.5601   -2.2311    1.3908 H   0  0  0  0  0  0  0  0  0  0  0  0
   -4.0624   -1.7918   -0.2608 H   0  0  0  0  0  0  0  0  0  0  0  0
   -5.9262   -0.1613   -0.3886 H   0  0  0  0  0  0  0  0  0  0  0  0
   -6.4238   -0.6006    1.2629 H   0  0  0  0  0  0  0  0  0  0  0  0
   -4.0051    1.1370   -0.7325 H   0  0  0  0  0  0  0  0  0  0  0  0
   -3.3531    3.2837    0.6558 H   0  0  0  0  0  0  0  0  0  0  0  0
   -2.9190    2.1815    1.9844 H   0  0  0  0  0  0  0  0  0  0  0  0
    0.2639    3.1442   -2.3266 H   0  0  0  0  0  0  0  0  0  0  0  0
    1.9154    1.6919   -1.2384 H   0  0  0  0  0  0  0  0  0  0  0  0
   -0.8054    1.1472    2.8836 H   0  0  0  0  0  0  0  0  0  0  0  0
    3.1804    0.6192   -0.4634 H   0  0  0  0  0  0  0  0  0  0  0  0
    3.5716   -1.2201    1.9604 H   0  0  0  0  0  0  0  0  0  0  0  0
    5.8540   -2.2148    1.9961 H   0  0  0  0  0  0  0  0  0  0  0  0
    8.0878   -2.4842    1.0102 H   0  0  0  0  0  0  0  0  0  0  0  0
    7.0200    0.1679   -2.1726 H   0  0  0  0  0  0  0  0  0  0  0  0
    4.7795    0.4430   -1.2037 H   0  0  0  0  0  0  0  0  0  0  0  0
    8.9931   -2.0561   -1.8120 H   0  0  0  0  0  0  0  0  0  0  0  0
   -2.5730    4.8510   -3.0525 H   0  0  0  0  0  0  0  0  0  0  0  0
   -0.8945    4.8755   -2.4607 H   0  0  0  0  0  0  0  0  0  0  0  0
   -1.4813    3.4928   -3.4155 H   0  0  0  0  0  0  0  0  0  0  0  0
   -3.5162   -0.0614    2.9151 H   0  0  0  0  0  0  0  0  0  0  0  0
   -4.1717    1.5935    2.9107 H   0  0  0  0  0  0  0  0  0  0  0  0
   -5.2603    0.2056    3.1494 H   0  0  0  0  0  0  0  0  0  0  0  0
   -6.5784   -5.4298   -1.4344 H   0  0  0  0  0  0  0  0  0  0  0  0
   -7.6524   -4.0276   -1.6542 H   0  0  0  0  0  0  0  0  0  0  0  0
   -6.4972   -4.4729   -2.9330 H   0  0  0  0  0  0  0  0  0  0  0  0
  1  2  1  0  0  0  0
  2  3  2  0  0  0  0
  3  4  1  0  0  0  0
  4  5  1  0  0  0  0
  5  6  1  0  0  0  0
  6  7  2  0  0  0  0
  7  8  1  0  0  0  0
  8  9  1  0  0  0  0
  9 10  2  0  0  0  0
 10 11  1  0  0  0  0
 11 12  2  0  0  0  0
 12 13  1  0  0  0  0
 13 14  2  0  0  0  0
  9 14  1  0  0  0  0
 14 15  1  0  0  0  0
 13 16  1  0  0  0  0
 16 17  2  0  0  0  0
 16 18  1  0  0  0  0
 18 19  2  0  0  0  0
 19 20  1  0  0  0  0
 20 21  2  0  0  0  0
 21 22  1  0  0  0  0
 22 23  2  0  0  0  0
 23 24  1  0  0  0  0
 24 25  2  0  0  0  0
 20 25  1  0  0  0  0
 23 26  1  0  0  0  0
 10 27  1  0  0  0  0
 27 28  1  0  0  0  0
  6 29  1  0  0  0  0
  2 30  1  0  0  0  0
  1 31  1  0  0  0  0
  1 32  1  0  0  0  0
  1 33  1  0  0  0  0
  3 34  1  0  0  0  0
  4 35  1  0  0  0  0
  4 36  1  0  0  0  0
  5 37  1  0  0  0  0
  5 38  1  0  0  0  0
  7 39  1  0  0  0  0
  8 40  1  0  0  0  0
  8 41  1  0  0  0  0
 11 42  1  0  0  0  0
 12 43  1  0  0  0  0
 15 44  1  0  0  0  0
 18 45  1  0  0  0  0
 19 46  1  0  0  0  0
 21 47  1  0  0  0  0
 22 48  1  0  0  0  0
 24 49  1  0  0  0  0
 25 50  1  0  0  0  0
 26 51  1  0  0  0  0
 28 52  1  0  0  0  0
 28 53  1  0  0  0  0
 28 54  1  0  0  0  0
 29 55  1  0  0  0  0
 29 56  1  0  0  0  0
 29 57  1  0  0  0  0
 30 58  1  0  0  0  0
 30 59  1  0  0  0  0
 30 60  1  0  0  0  0
M  END
$$$$
