C12H21NO
APtclcactv06281817233D 0   0.00000     0.00000
 
 35 34  0  0  0  0  0  0  0  0999 V2000
    7.1408    0.8089    0.3015 C   0  0  0  0  0  0  0  0  0  0  0  0
    5.8045    0.1611    0.6696 C   0  0  0  0  0  0  0  0  0  0  0  0
    4.9085    0.1010   -0.5691 C   0  0  0  0  0  0  0  0  0  0  0  0
    3.5923   -0.5371   -0.2066 C   0  0  0  0  0  0  0  0  0  0  0  0
    2.4491    0.1033   -0.4570 C   0  0  0  0  0  0  0  0  0  0  0  0
    1.1710   -0.5164   -0.1049 C   0  0  0  0  0  0  0  0  0  0  0  0
    0.0126    0.1325   -0.3587 C   0  0  0  0  0  0  0  0  0  0  0  0
   -1.2648   -0.4869   -0.0068 C   0  0  0  0  0  0  0  0  0  0  0  0
   -1.2849   -1.5866    0.5145 O   0  0  0  0  0  0  0  0  0  0  0  0
   -2.4198    0.1601   -0.2598 N   0  0  0  0  0  0  0  0  0  0  0  0
   -3.6993   -0.4602    0.0927 C   0  0  0  0  0  0  0  0  0  0  0  0
   -4.8447    0.4760   -0.2977 C   0  0  0  0  0  0  0  0  0  0  0  0
   -6.1826   -0.2219   -0.0450 C   0  0  0  0  0  0  0  0  0  0  0  0
   -4.7688    1.7525    0.5424 C   0  0  0  0  0  0  0  0  0  0  0  0
    7.7792    0.8517    1.1840 H   0  0  0  0  0  0  0  0  0  0  0  0
    7.6302    0.2178   -0.4726 H   0  0  0  0  0  0  0  0  0  0  0  0
    6.9651    1.8188   -0.0691 H   0  0  0  0  0  0  0  0  0  0  0  0
    5.9802   -0.8488    1.0402 H   0  0  0  0  0  0  0  0  0  0  0  0
    5.3152    0.7522    1.4437 H   0  0  0  0  0  0  0  0  0  0  0  0
    4.7328    1.1109   -0.9397 H   0  0  0  0  0  0  0  0  0  0  0  0
    5.3979   -0.4901   -1.3432 H   0  0  0  0  0  0  0  0  0  0  0  0
    3.5745   -1.5129    0.2560 H   0  0  0  0  0  0  0  0  0  0  0  0
    2.4669    1.0790   -0.9196 H   0  0  0  0  0  0  0  0  0  0  0  0
    1.1532   -1.4922    0.3576 H   0  0  0  0  0  0  0  0  0  0  0  0
    0.0304    1.1083   -0.8212 H   0  0  0  0  0  0  0  0  0  0  0  0
   -2.4038    1.0365   -0.6752 H   0  0  0  0  0  0  0  0  0  0  0  0
   -3.8043   -1.4049   -0.4410 H   0  0  0  0  0  0  0  0  0  0  0  0
   -3.7303   -0.6442    1.1666 H   0  0  0  0  0  0  0  0  0  0  0  0
   -4.7617    0.7309   -1.3542 H   0  0  0  0  0  0  0  0  0  0  0  0
   -6.2656   -0.4768    1.0115 H   0  0  0  0  0  0  0  0  0  0  0  0
   -6.9986    0.4451   -0.3231 H   0  0  0  0  0  0  0  0  0  0  0  0
   -6.2367   -1.1313   -0.6435 H   0  0  0  0  0  0  0  0  0  0  0  0
   -4.8518    1.4977    1.5989 H   0  0  0  0  0  0  0  0  0  0  0  0
   -3.8156    2.2498    0.3624 H   0  0  0  0  0  0  0  0  0  0  0  0
   -5.5848    2.4196    0.2643 H   0  0  0  0  0  0  0  0  0  0  0  0
  1  2  1  0  0  0  0
  2  3  1  0  0  0  0
  3  4  1  0  0  0  0
  4  5  2  0  0  0  0
  5  6  1  0  0  0  0
  6  7  2  0  0  0  0
  7  8  1  0  0  0  0
  8  9  2  0  0  0  0
  8 10  1  0  0  0  0
 10 11  1  0  0  0  0
 11 12  1  0  0  0  0
 12 13  1  0  0  0  0
 12 14  1  0  0  0  0
  1 15  1  0  0  0  0
  1 16  1  0  0  0  0
  1 17  1  0  0  0  0
  2 18  1  0  0  0  0
  2 19  1  0  0  0  0
  3 20  1  0  0  0  0
  3 21  1  0  0  0  0
  4 22  1  0  0  0  0
  5 23  1  0  0  0  0
  6 24  1  0  0  0  0
  7 25  1  0  0  0  0
 10 26  1  0  0  0  0
 11 27  1  0  0  0  0
 11 28  1  0  0  0  0
 12 29  1  0  0  0  0
 13 30  1  0  0  0  0
 13 31  1  0  0  0  0
 13 32  1  0  0  0  0
 14 33  1  0  0  0  0
 14 34  1  0  0  0  0
 14 35  1  0  0  0  0
M  END
$$$$
