C11H8N2
APtclcactv06211806243D 0   0.00000     0.00000
 
 21 23  0  0  0  0  0  0  0  0999 V2000
   -3.0516    1.1585    0.0002 C   0  0  0  0  0  0  0  0  0  0  0  0
   -3.4413   -0.1720    0.0001 C   0  0  0  0  0  0  0  0  0  0  0  0
   -2.4996   -1.1781   -0.0001 C   0  0  0  0  0  0  0  0  0  0  0  0
   -1.1439   -0.8642   -0.0000 C   0  0  0  0  0  0  0  0  0  0  0  0
   -0.7507    0.4837    0.0001 C   0  0  0  0  0  0  0  0  0  0  0  0
   -1.7141    1.4901    0.0002 C   0  0  0  0  0  0  0  0  0  0  0  0
    0.7203    0.4877    0.0001 C   0  0  0  0  0  0  0  0  0  0  0  0
    1.1251   -0.8583   -0.0000 C   0  0  0  0  0  0  0  0  0  0  0  0
   -0.0065   -1.6513   -0.0001 N   0  0  0  0  0  0  0  0  0  0  0  0
    2.4862   -1.1405   -0.0001 C   0  0  0  0  0  0  0  0  0  0  0  0
    3.3718   -0.1659    0.0000 N   0  0  0  0  0  0  0  0  0  0  0  0
    3.0240    1.1090    0.0001 C   0  0  0  0  0  0  0  0  0  0  0  0
    1.6970    1.4830   -0.0002 C   0  0  0  0  0  0  0  0  0  0  0  0
   -3.7991    1.9380   -0.0042 H   0  0  0  0  0  0  0  0  0  0  0  0
   -4.4920   -0.4221    0.0004 H   0  0  0  0  0  0  0  0  0  0  0  0
   -2.8140   -2.2114    0.0002 H   0  0  0  0  0  0  0  0  0  0  0  0
   -1.4135    2.5274   -0.0000 H   0  0  0  0  0  0  0  0  0  0  0  0
   -0.0037   -2.6213    0.0003 H   0  0  0  0  0  0  0  0  0  0  0  0
    2.8201   -2.1676    0.0002 H   0  0  0  0  0  0  0  0  0  0  0  0
    3.7908    1.8694    0.0002 H   0  0  0  0  0  0  0  0  0  0  0  0
    1.4193    2.5267   -0.0004 H   0  0  0  0  0  0  0  0  0  0  0  0
  1  2  2  0  0  0  0
  2  3  1  0  0  0  0
  3  4  2  0  0  0  0
  4  5  1  0  0  0  0
  5  6  2  0  0  0  0
  1  6  1  0  0  0  0
  5  7  1  0  0  0  0
  7  8  2  0  0  0  0
  8  9  1  0  0  0  0
  4  9  1  0  0  0  0
  8 10  1  0  0  0  0
 10 11  2  0  0  0  0
 11 12  1  0  0  0  0
 12 13  2  0  0  0  0
  7 13  1  0  0  0  0
  1 14  1  0  0  0  0
  2 15  1  0  0  0  0
  3 16  1  0  0  0  0
  6 17  1  0  0  0  0
  9 18  1  0  0  0  0
 10 19  1  0  0  0  0
 12 20  1  0  0  0  0
 13 21  1  0  0  0  0
M  END
$$$$
