C21H24O6
APtclcactv06211806243D 0   0.00000     0.00000
 
 51 53  0  0  0  0  0  0  0  0999 V2000
    7.2660    1.7380   -0.5358 C   0  0  0  0  0  0  0  0  0  0  0  0
    6.7410    0.4205   -0.3605 O   0  0  0  0  0  0  0  0  0  0  0  0
    5.3875    0.2887   -0.3708 C   0  0  0  0  0  0  0  0  0  0  0  0
    4.8077   -0.9654   -0.2056 C   0  0  0  0  0  0  0  0  0  0  0  0
    3.4281   -1.0944   -0.2169 C   0  0  0  0  0  0  0  0  0  0  0  0
    2.6310    0.0214   -0.3920 C   0  0  0  0  0  0  0  0  0  0  0  0
    3.2070    1.2673   -0.5566 C   0  0  0  0  0  0  0  0  0  0  0  0
    4.5826    1.4039   -0.5401 C   0  0  0  0  0  0  0  0  0  0  0  0
    1.1307   -0.1208   -0.4040 C   0  0  0  0  0  0  0  0  0  0  0  0
    0.5924    0.0333    1.0198 C   0  0  0  0  0  0  0  0  0  0  0  0
    0.8140    1.4720    1.5395 C   0  0  0  0  0  0  0  0  0  0  0  0
   -0.4056    2.1829    1.1733 O   0  0  0  0  0  0  0  0  0  0  0  0
   -1.4451    1.3363    1.1739 C   0  0  0  0  0  0  0  0  0  0  0  0
   -2.6053    1.6610    1.2655 O   0  0  0  0  0  0  0  0  0  0  0  0
   -0.9477   -0.0868    1.0419 C   0  0  0  0  0  0  0  0  0  0  0  0
   -1.4521   -0.7084   -0.2619 C   0  0  0  0  0  0  0  0  0  0  0  0
   -2.9504   -0.8579   -0.2005 C   0  0  0  0  0  0  0  0  0  0  0  0
   -3.7646    0.1675   -0.6441 C   0  0  0  0  0  0  0  0  0  0  0  0
   -5.1424    0.0316   -0.5883 C   0  0  0  0  0  0  0  0  0  0  0  0
   -5.7033   -1.1382   -0.0851 C   0  0  0  0  0  0  0  0  0  0  0  0
   -4.8815   -2.1622    0.3580 C   0  0  0  0  0  0  0  0  0  0  0  0
   -3.5077   -2.0224    0.2942 C   0  0  0  0  0  0  0  0  0  0  0  0
   -7.0551   -1.2761   -0.0278 O   0  0  0  0  0  0  0  0  0  0  0  0
   -5.9448    1.0396   -1.0239 O   0  0  0  0  0  0  0  0  0  0  0  0
   -5.2995    2.2111   -1.5271 C   0  0  0  0  0  0  0  0  0  0  0  0
    5.5933   -2.0621   -0.0339 O   0  0  0  0  0  0  0  0  0  0  0  0
    4.9291   -3.3168    0.1296 C   0  0  0  0  0  0  0  0  0  0  0  0
    6.9405    2.1337   -1.4979 H   0  0  0  0  0  0  0  0  0  0  0  0
    6.9028    2.3832    0.2641 H   0  0  0  0  0  0  0  0  0  0  0  0
    8.3550    1.7019   -0.5074 H   0  0  0  0  0  0  0  0  0  0  0  0
    2.9756   -2.0667   -0.0893 H   0  0  0  0  0  0  0  0  0  0  0  0
    2.5809    2.1366   -0.6934 H   0  0  0  0  0  0  0  0  0  0  0  0
    5.0301    2.3783   -0.6689 H   0  0  0  0  0  0  0  0  0  0  0  0
    0.6978    0.6500   -1.0415 H   0  0  0  0  0  0  0  0  0  0  0  0
    0.8621   -1.1043   -0.7896 H   0  0  0  0  0  0  0  0  0  0  0  0
    1.0515   -0.6958    1.6876 H   0  0  0  0  0  0  0  0  0  0  0  0
    0.9430    1.4702    2.6219 H   0  0  0  0  0  0  0  0  0  0  0  0
    1.6785    1.9236    1.0530 H   0  0  0  0  0  0  0  0  0  0  0  0
   -1.2696   -0.6820    1.8964 H   0  0  0  0  0  0  0  0  0  0  0  0
   -1.1854   -0.0633   -1.0990 H   0  0  0  0  0  0  0  0  0  0  0  0
   -0.9945   -1.6883   -0.3982 H   0  0  0  0  0  0  0  0  0  0  0  0
   -3.3268    1.0746   -1.0339 H   0  0  0  0  0  0  0  0  0  0  0  0
   -5.3143   -3.0711    0.7490 H   0  0  0  0  0  0  0  0  0  0  0  0
   -2.8682   -2.8212    0.6399 H   0  0  0  0  0  0  0  0  0  0  0  0
   -7.4447   -1.6656   -0.8225 H   0  0  0  0  0  0  0  0  0  0  0  0
   -4.6786    2.6481   -0.7451 H   0  0  0  0  0  0  0  0  0  0  0  0
   -4.6754    1.9441   -2.3799 H   0  0  0  0  0  0  0  0  0  0  0  0
   -6.0524    2.9345   -1.8401 H   0  0  0  0  0  0  0  0  0  0  0  0
    4.2869   -3.2760    1.0093 H   0  0  0  0  0  0  0  0  0  0  0  0
    4.3240   -3.5252   -0.7528 H   0  0  0  0  0  0  0  0  0  0  0  0
    5.6699   -4.1062    0.2568 H   0  0  0  0  0  0  0  0  0  0  0  0
  1  2  1  0  0  0  0
  2  3  1  0  0  0  0
  3  4  2  0  0  0  0
  4  5  1  0  0  0  0
  5  6  2  0  0  0  0
  6  7  1  0  0  0  0
  7  8  2  0  0  0  0
  3  8  1  0  0  0  0
  6  9  1  0  0  0  0
  9 10  1  0  0  0  0
 10 11  1  0  0  0  0
 11 12  1  0  0  0  0
 12 13  1  0  0  0  0
 13 14  2  0  0  0  0
 13 15  1  0  0  0  0
 10 15  1  0  0  0  0
 15 16  1  0  0  0  0
 16 17  1  0  0  0  0
 17 18  2  0  0  0  0
 18 19  1  0  0  0  0
 19 20  2  0  0  0  0
 20 21  1  0  0  0  0
 21 22  2  0  0  0  0
 17 22  1  0  0  0  0
 20 23  1  0  0  0  0
 19 24  1  0  0  0  0
 24 25  1  0  0  0  0
  4 26  1  0  0  0  0
 26 27  1  0  0  0  0
  1 28  1  0  0  0  0
  1 29  1  0  0  0  0
  1 30  1  0  0  0  0
  5 31  1  0  0  0  0
  7 32  1  0  0  0  0
  8 33  1  0  0  0  0
  9 34  1  0  0  0  0
  9 35  1  0  0  0  0
 10 36  1  0  0  0  0
 11 37  1  0  0  0  0
 11 38  1  0  0  0  0
 15 39  1  0  0  0  0
 16 40  1  0  0  0  0
 16 41  1  0  0  0  0
 18 42  1  0  0  0  0
 21 43  1  0  0  0  0
 22 44  1  0  0  0  0
 23 45  1  0  0  0  0
 25 46  1  0  0  0  0
 25 47  1  0  0  0  0
 25 48  1  0  0  0  0
 27 49  1  0  0  0  0
 27 50  1  0  0  0  0
 27 51  1  0  0  0  0
M  END
$$$$
