C31H42O2
APtclcactv06281817233D 0   0.00000     0.00000
 
 75 75  0  0  0  0  0  0  0  0999 V2000
   -7.8498   -1.5154   -1.8288 C   0  0  0  0  0  0  0  0  0  0  0  0
   -8.9708   -1.0983   -0.9120 C   0  0  0  0  0  0  0  0  0  0  0  0
   -8.7814   -0.0460   -0.1333 C   0  0  0  0  0  0  0  0  0  0  0  0
   -9.8084    0.4719    0.8311 C   0  0  0  0  0  0  0  0  0  0  0  0
  -11.1881   -0.0907    0.4835 C   0  0  0  0  0  0  0  0  0  0  0  0
  -11.0675   -1.6106    0.3193 C   0  0  0  0  0  0  0  0  0  0  0  0
  -10.2416   -1.8968   -0.9384 C   0  0  0  0  0  0  0  0  0  0  0  0
   -9.4304    0.0466    2.2514 C   0  0  0  0  0  0  0  0  0  0  0  0
   -9.8499    1.9995    0.7561 C   0  0  0  0  0  0  0  0  0  0  0  0
   -7.5384    0.6304   -0.2138 C   0  0  0  0  0  0  0  0  0  0  0  0
   -6.3807   -0.0459    0.0108 C   0  0  0  0  0  0  0  0  0  0  0  0
   -5.1444    0.5892   -0.1967 C   0  0  0  0  0  0  0  0  0  0  0  0
   -3.9814   -0.0902    0.0289 C   0  0  0  0  0  0  0  0  0  0  0  0
   -2.7489    0.5429   -0.1778 C   0  0  0  0  0  0  0  0  0  0  0  0
   -1.5754   -0.1426    0.0498 C   0  0  0  0  0  0  0  0  0  0  0  0
   -0.3448    0.4895   -0.1566 C   0  0  0  0  0  0  0  0  0  0  0  0
    0.8301   -0.1968    0.0713 C   0  0  0  0  0  0  0  0  0  0  0  0
    2.0597    0.4349   -0.1350 C   0  0  0  0  0  0  0  0  0  0  0  0
    3.2352   -0.2517    0.0930 C   0  0  0  0  0  0  0  0  0  0  0  0
    4.4645    0.3797   -0.1133 C   0  0  0  0  0  0  0  0  0  0  0  0
    5.6400   -0.3069    0.1148 C   0  0  0  0  0  0  0  0  0  0  0  0
    5.5976   -1.7377    0.5862 C   0  0  0  0  0  0  0  0  0  0  0  0
    6.8696    0.3247   -0.0915 C   0  0  0  0  0  0  0  0  0  0  0  0
    8.0444   -0.3616    0.1364 C   0  0  0  0  0  0  0  0  0  0  0  0
    9.2753    0.2707   -0.0701 C   0  0  0  0  0  0  0  0  0  0  0  0
   10.4476   -0.4141    0.1573 C   0  0  0  0  0  0  0  0  0  0  0  0
   10.4052   -1.8448    0.6287 C   0  0  0  0  0  0  0  0  0  0  0  0
   11.6852    0.2217   -0.0504 C   0  0  0  0  0  0  0  0  0  0  0  0
   11.7195    1.3781   -0.4314 O   0  0  0  0  0  0  0  0  0  0  0  0
   12.8357   -0.4504    0.1728 O   0  0  0  0  0  0  0  0  0  0  0  0
   14.0556    0.2570   -0.0585 C   0  0  0  0  0  0  0  0  0  0  0  0
   -0.3023    1.9203   -0.6280 C   0  0  0  0  0  0  0  0  0  0  0  0
   -5.1019    2.0200   -0.6681 C   0  0  0  0  0  0  0  0  0  0  0  0
   -7.1541   -2.1542   -1.2848 H   0  0  0  0  0  0  0  0  0  0  0  0
   -8.2592   -2.0639   -2.6772 H   0  0  0  0  0  0  0  0  0  0  0  0
   -7.3253   -0.6299   -2.1877 H   0  0  0  0  0  0  0  0  0  0  0  0
  -11.8891    0.1363    1.2868 H   0  0  0  0  0  0  0  0  0  0  0  0
  -11.5396    0.3515   -0.4487 H   0  0  0  0  0  0  0  0  0  0  0  0
  -10.5711   -2.0349    1.1920 H   0  0  0  0  0  0  0  0  0  0  0  0
  -12.0604   -2.0471    0.2111 H   0  0  0  0  0  0  0  0  0  0  0  0
  -10.8236   -1.6315   -1.8210 H   0  0  0  0  0  0  0  0  0  0  0  0
   -9.9958   -2.9581   -0.9757 H   0  0  0  0  0  0  0  0  0  0  0  0
   -8.4528    0.4565    2.5053 H   0  0  0  0  0  0  0  0  0  0  0  0
  -10.1751    0.4218    2.9534 H   0  0  0  0  0  0  0  0  0  0  0  0
   -9.3939   -1.0413    2.3074 H   0  0  0  0  0  0  0  0  0  0  0  0
  -10.1869    2.3056   -0.2342 H   0  0  0  0  0  0  0  0  0  0  0  0
  -10.5395    2.3816    1.5088 H   0  0  0  0  0  0  0  0  0  0  0  0
   -8.8528    2.3995    0.9404 H   0  0  0  0  0  0  0  0  0  0  0  0
   -7.5111    1.6831   -0.4536 H   0  0  0  0  0  0  0  0  0  0  0  0
   -6.4111   -1.0712    0.3486 H   0  0  0  0  0  0  0  0  0  0  0  0
   -4.0118   -1.1155    0.3668 H   0  0  0  0  0  0  0  0  0  0  0  0
   -2.7185    1.5683   -0.5157 H   0  0  0  0  0  0  0  0  0  0  0  0
   -1.6058   -1.1680    0.3877 H   0  0  0  0  0  0  0  0  0  0  0  0
    0.7997   -1.2221    0.4091 H   0  0  0  0  0  0  0  0  0  0  0  0
    2.0901    1.4602   -0.4729 H   0  0  0  0  0  0  0  0  0  0  0  0
    3.2048   -1.2771    0.4308 H   0  0  0  0  0  0  0  0  0  0  0  0
    4.4949    1.4051   -0.4511 H   0  0  0  0  0  0  0  0  0  0  0  0
    5.5888   -2.4043   -0.2762 H   0  0  0  0  0  0  0  0  0  0  0  0
    6.4762   -1.9452    1.1969 H   0  0  0  0  0  0  0  0  0  0  0  0
    4.6970   -1.8984    1.1788 H   0  0  0  0  0  0  0  0  0  0  0  0
    6.9000    1.3500   -0.4294 H   0  0  0  0  0  0  0  0  0  0  0  0
    8.0140   -1.3870    0.4742 H   0  0  0  0  0  0  0  0  0  0  0  0
    9.3057    1.2961   -0.4080 H   0  0  0  0  0  0  0  0  0  0  0  0
   10.3964   -2.5114   -0.2337 H   0  0  0  0  0  0  0  0  0  0  0  0
   11.2838   -2.0524    1.2394 H   0  0  0  0  0  0  0  0  0  0  0  0
    9.5046   -2.0055    1.2213 H   0  0  0  0  0  0  0  0  0  0  0  0
   14.0994    0.5748   -1.1002 H   0  0  0  0  0  0  0  0  0  0  0  0
   14.0969    1.1319    0.5903 H   0  0  0  0  0  0  0  0  0  0  0  0
   14.9010   -0.3961    0.1580 H   0  0  0  0  0  0  0  0  0  0  0  0
   -0.2936    2.5869    0.2343 H   0  0  0  0  0  0  0  0  0  0  0  0
    0.5982    2.0810   -1.2207 H   0  0  0  0  0  0  0  0  0  0  0  0
   -1.1810    2.1278   -1.2388 H   0  0  0  0  0  0  0  0  0  0  0  0
   -5.0932    2.6865    0.1943 H   0  0  0  0  0  0  0  0  0  0  0  0
   -4.2014    2.1807   -1.2607 H   0  0  0  0  0  0  0  0  0  0  0  0
   -5.9806    2.2275   -1.2788 H   0  0  0  0  0  0  0  0  0  0  0  0
  1  2  1  0  0  0  0
  2  3  2  0  0  0  0
  3  4  1  0  0  0  0
  4  5  1  0  0  0  0
  5  6  1  0  0  0  0
  6  7  1  0  0  0  0
  2  7  1  0  0  0  0
  4  8  1  0  0  0  0
  4  9  1  0  0  0  0
  3 10  1  0  0  0  0
 10 11  2  0  0  0  0
 11 12  1  0  0  0  0
 12 13  2  0  0  0  0
 13 14  1  0  0  0  0
 14 15  2  0  0  0  0
 15 16  1  0  0  0  0
 16 17  2  0  0  0  0
 17 18  1  0  0  0  0
 18 19  2  0  0  0  0
 19 20  1  0  0  0  0
 20 21  2  0  0  0  0
 21 22  1  0  0  0  0
 21 23  1  0  0  0  0
 23 24  2  0  0  0  0
 24 25  1  0  0  0  0
 25 26  2  0  0  0  0
 26 27  1  0  0  0  0
 26 28  1  0  0  0  0
 28 29  2  0  0  0  0
 28 30  1  0  0  0  0
 30 31  1  0  0  0  0
 16 32  1  0  0  0  0
 12 33  1  0  0  0  0
  1 34  1  0  0  0  0
  1 35  1  0  0  0  0
  1 36  1  0  0  0  0
  5 37  1  0  0  0  0
  5 38  1  0  0  0  0
  6 39  1  0  0  0  0
  6 40  1  0  0  0  0
  7 41  1  0  0  0  0
  7 42  1  0  0  0  0
  8 43  1  0  0  0  0
  8 44  1  0  0  0  0
  8 45  1  0  0  0  0
  9 46  1  0  0  0  0
  9 47  1  0  0  0  0
  9 48  1  0  0  0  0
 10 49  1  0  0  0  0
 11 50  1  0  0  0  0
 13 51  1  0  0  0  0
 14 52  1  0  0  0  0
 15 53  1  0  0  0  0
 17 54  1  0  0  0  0
 18 55  1  0  0  0  0
 19 56  1  0  0  0  0
 20 57  1  0  0  0  0
 22 58  1  0  0  0  0
 22 59  1  0  0  0  0
 22 60  1  0  0  0  0
 23 61  1  0  0  0  0
 24 62  1  0  0  0  0
 25 63  1  0  0  0  0
 27 64  1  0  0  0  0
 27 65  1  0  0  0  0
 27 66  1  0  0  0  0
 31 67  1  0  0  0  0
 31 68  1  0  0  0  0
 31 69  1  0  0  0  0
 32 70  1  0  0  0  0
 32 71  1  0  0  0  0
 32 72  1  0  0  0  0
 33 73  1  0  0  0  0
 33 74  1  0  0  0  0
 33 75  1  0  0  0  0
M  END
$$$$
