C12H8S3
APtclcactv06211806243D 0   0.00000     0.00000
 
 23 25  0  0  0  0  0  0  0  0999 V2000
   -4.6547    1.3347    0.0047 C   0  0  0  0  0  0  0  0  0  0  0  0
   -5.2129    0.1214    0.0029 C   0  0  0  0  0  0  0  0  0  0  0  0
   -3.9632   -1.1153   -0.0005 S   0  0  0  0  0  0  0  0  0  0  0  0
   -2.7025    0.1112    0.0007 C   0  0  0  0  0  0  0  0  0  0  0  0
   -3.2754    1.3464    0.0036 C   0  0  0  0  0  0  0  0  0  0  0  0
   -1.2561   -0.1556   -0.0002 C   0  0  0  0  0  0  0  0  0  0  0  0
   -0.6868   -1.3938   -0.0027 C   0  0  0  0  0  0  0  0  0  0  0  0
    0.6868   -1.3938   -0.0032 C   0  0  0  0  0  0  0  0  0  0  0  0
    1.2561   -0.1556   -0.0010 C   0  0  0  0  0  0  0  0  0  0  0  0
   -0.0000    1.0747   -0.0060 S   0  0  0  0  0  0  0  0  0  0  0  0
    2.7025    0.1112   -0.0010 C   0  0  0  0  0  0  0  0  0  0  0  0
    3.2754    1.3464    0.0012 C   0  0  0  0  0  0  0  0  0  0  0  0
    4.6547    1.3347    0.0015 C   0  0  0  0  0  0  0  0  0  0  0  0
    5.2129    0.1214   -0.0003 C   0  0  0  0  0  0  0  0  0  0  0  0
    3.9632   -1.1153    0.0040 S   0  0  0  0  0  0  0  0  0  0  0  0
   -5.2412    2.2416    0.0026 H   0  0  0  0  0  0  0  0  0  0  0  0
   -6.2755   -0.0717    0.0037 H   0  0  0  0  0  0  0  0  0  0  0  0
   -2.6981    2.2591    0.0048 H   0  0  0  0  0  0  0  0  0  0  0  0
   -1.2696   -2.3031   -0.0039 H   0  0  0  0  0  0  0  0  0  0  0  0
    1.2696   -2.3031   -0.0047 H   0  0  0  0  0  0  0  0  0  0  0  0
    2.6981    2.2591    0.0021 H   0  0  0  0  0  0  0  0  0  0  0  0
    5.2412    2.2416    0.0028 H   0  0  0  0  0  0  0  0  0  0  0  0
    6.2755   -0.0717   -0.0006 H   0  0  0  0  0  0  0  0  0  0  0  0
  1  2  2  0  0  0  0
  2  3  1  0  0  0  0
  3  4  1  0  0  0  0
  4  5  2  0  0  0  0
  1  5  1  0  0  0  0
  4  6  1  0  0  0  0
  6  7  2  0  0  0  0
  7  8  1  0  0  0  0
  8  9  2  0  0  0  0
  9 10  1  0  0  0  0
  6 10  1  0  0  0  0
  9 11  1  0  0  0  0
 11 12  2  0  0  0  0
 12 13  1  0  0  0  0
 13 14  2  0  0  0  0
 14 15  1  0  0  0  0
 11 15  1  0  0  0  0
  1 16  1  0  0  0  0
  2 17  1  0  0  0  0
  5 18  1  0  0  0  0
  7 19  1  0  0  0  0
  8 20  1  0  0  0  0
 12 21  1  0  0  0  0
 13 22  1  0  0  0  0
 14 23  1  0  0  0  0
M  END
$$$$
