C7H12O6
APtclcactv06211804333D 0   0.00000     0.00000
 
 25 25  0  0  0  0  0  0  0  0999 V2000
    0.3186    0.6883   -1.1776 C   0  0  0  0  0  0  0  0  0  0  0  0
   -1.1858    0.8732   -0.9691 C   0  0  0  0  0  0  0  0  0  0  0  0
   -1.8465   -0.4939   -0.7809 C   0  0  0  0  0  0  0  0  0  0  0  0
   -1.2436   -1.1876    0.4423 C   0  0  0  0  0  0  0  0  0  0  0  0
    0.2608   -1.3725    0.2338 C   0  0  0  0  0  0  0  0  0  0  0  0
    0.9215   -0.0054    0.0456 C   0  0  0  0  0  0  0  0  0  0  0  0
    2.4033   -0.1875   -0.1597 C   0  0  0  0  0  0  0  0  0  0  0  0
    2.8286   -1.2290   -0.6006 O   0  0  0  0  0  0  0  0  0  0  0  0
    3.2506    0.8073    0.1471 O   0  0  0  0  0  0  0  0  0  0  0  0
    0.6965    0.7963    1.2069 O   0  0  0  0  0  0  0  0  0  0  0  0
   -1.4685   -0.3859    1.6036 O   0  0  0  0  0  0  0  0  0  0  0  0
   -3.2516   -0.3212   -0.5862 O   0  0  0  0  0  0  0  0  0  0  0  0
   -1.4108    1.6749    0.1922 O   0  0  0  0  0  0  0  0  0  0  0  0
    0.4902    0.0768   -2.0634 H   0  0  0  0  0  0  0  0  0  0  0  0
    0.7892    1.6623   -1.3117 H   0  0  0  0  0  0  0  0  0  0  0  0
   -1.6154    1.3675   -1.8405 H   0  0  0  0  0  0  0  0  0  0  0  0
   -1.6749   -1.1054   -1.6668 H   0  0  0  0  0  0  0  0  0  0  0  0
   -1.7142   -2.1615    0.5764 H   0  0  0  0  0  0  0  0  0  0  0  0
    0.6904   -1.8667    1.1052 H   0  0  0  0  0  0  0  0  0  0  0  0
    0.4324   -1.9840   -0.6520 H   0  0  0  0  0  0  0  0  0  0  0  0
    4.1920    0.6437   -0.0018 H   0  0  0  0  0  0  0  0  0  0  0  0
    1.0883    1.6790    1.1575 H   0  0  0  0  0  0  0  0  0  0  0  0
   -2.4026   -0.2272    1.7971 H   0  0  0  0  0  0  0  0  0  0  0  0
   -3.7358   -1.1486   -0.4599 H   0  0  0  0  0  0  0  0  0  0  0  0
   -2.3449    1.8336    0.3857 H   0  0  0  0  0  0  0  0  0  0  0  0
  1  2  1  0  0  0  0
  2  3  1  0  0  0  0
  3  4  1  0  0  0  0
  4  5  1  0  0  0  0
  5  6  1  0  0  0  0
  1  6  1  0  0  0  0
  6  7  1  0  0  0  0
  7  8  2  0  0  0  0
  7  9  1  0  0  0  0
  6 10  1  0  0  0  0
  4 11  1  0  0  0  0
  3 12  1  0  0  0  0
  2 13  1  0  0  0  0
  1 14  1  0  0  0  0
  1 15  1  0  0  0  0
  2 16  1  0  0  0  0
  3 17  1  0  0  0  0
  4 18  1  0  0  0  0
  5 19  1  0  0  0  0
  5 20  1  0  0  0  0
  9 21  1  0  0  0  0
 10 22  1  0  0  0  0
 11 23  1  0  0  0  0
 12 24  1  0  0  0  0
 13 25  1  0  0  0  0
M  END
$$$$
