C11H6O4
APtclcactv06211806243D 0   0.00000     0.00000
 
 21 23  0  0  0  0  0  0  0  0999 V2000
   -1.7951   -1.8867    0.0107 C   0  0  0  0  0  0  0  0  0  0  0  0
   -2.9805   -1.2263    0.0060 C   0  0  0  0  0  0  0  0  0  0  0  0
   -2.9980    0.1848   -0.0050 C   0  0  0  0  0  0  0  0  0  0  0  0
   -4.0691    0.7643   -0.0087 O   0  0  0  0  0  0  0  0  0  0  0  0
   -1.8662    0.9050   -0.0111 O   0  0  0  0  0  0  0  0  0  0  0  0
   -0.6503    0.3116   -0.0070 C   0  0  0  0  0  0  0  0  0  0  0  0
    0.5055    1.0800   -0.0130 C   0  0  0  0  0  0  0  0  0  0  0  0
    1.7517    0.4629   -0.0087 C   0  0  0  0  0  0  0  0  0  0  0  0
    1.8381   -0.9428    0.0022 C   0  0  0  0  0  0  0  0  0  0  0  0
    3.2758   -1.2473    0.0045 C   0  0  0  0  0  0  0  0  0  0  0  0
    3.9073   -0.0668   -0.0047 C   0  0  0  0  0  0  0  0  0  0  0  0
    3.0146    0.9389   -0.0125 O   0  0  0  0  0  0  0  0  0  0  0  0
    0.6867   -1.7196    0.0090 C   0  0  0  0  0  0  0  0  0  0  0  0
   -0.5605   -1.0953    0.0039 C   0  0  0  0  0  0  0  0  0  0  0  0
    0.4192    2.4378   -0.0236 O   0  0  0  0  0  0  0  0  0  0  0  0
   -1.7617   -2.9661    0.0235 H   0  0  0  0  0  0  0  0  0  0  0  0
   -3.9083   -1.7791    0.0104 H   0  0  0  0  0  0  0  0  0  0  0  0
    3.7313   -2.2265    0.0121 H   0  0  0  0  0  0  0  0  0  0  0  0
    4.9799    0.0597   -0.0061 H   0  0  0  0  0  0  0  0  0  0  0  0
    0.7566   -2.7973    0.0169 H   0  0  0  0  0  0  0  0  0  0  0  0
    0.3943    2.8371    0.8567 H   0  0  0  0  0  0  0  0  0  0  0  0
  1  2  2  0  0  0  0
  2  3  1  0  0  0  0
  3  4  2  0  0  0  0
  3  5  1  0  0  0  0
  5  6  1  0  0  0  0
  6  7  2  0  0  0  0
  7  8  1  0  0  0  0
  8  9  2  0  0  0  0
  9 10  1  0  0  0  0
 10 11  2  0  0  0  0
 11 12  1  0  0  0  0
  8 12  1  0  0  0  0
  9 13  1  0  0  0  0
 13 14  2  0  0  0  0
  6 14  1  0  0  0  0
  1 14  1  0  0  0  0
  7 15  1  0  0  0  0
  1 16  1  0  0  0  0
  2 17  1  0  0  0  0
 10 18  1  0  0  0  0
 11 19  1  0  0  0  0
 13 20  1  0  0  0  0
 15 21  1  0  0  0  0
M  END
$$$$
