C30H50O
APtclcactv06211806243D 0   0.00000     0.00000
 
 81 84  0  0  0  0  0  0  0  0999 V2000
   -6.4658    1.5501    0.9496 C   0  0  0  0  0  0  0  0  0  0  0  0
   -5.7467    0.4132    0.2208 C   0  0  0  0  0  0  0  0  0  0  0  0
   -4.2358    0.5868    0.3660 C   0  0  0  0  0  0  0  0  0  0  0  0
   -3.7771    1.9072   -0.2593 C   0  0  0  0  0  0  0  0  0  0  0  0
   -2.3048    2.0889    0.0978 C   0  0  0  0  0  0  0  0  0  0  0  0
   -1.5033    0.8341   -0.1374 C   0  0  0  0  0  0  0  0  0  0  0  0
   -2.0274   -0.3458   -0.3589 C   0  0  0  0  0  0  0  0  0  0  0  0
   -3.5268   -0.5401   -0.3766 C   0  0  0  0  0  0  0  0  0  0  0  0
   -3.9065   -1.8789    0.2527 C   0  0  0  0  0  0  0  0  0  0  0  0
   -5.4217   -2.0713    0.1304 C   0  0  0  0  0  0  0  0  0  0  0  0
   -6.1518   -0.9293    0.8378 C   0  0  0  0  0  0  0  0  0  0  0  0
   -5.8106   -0.9358    2.2255 O   0  0  0  0  0  0  0  0  0  0  0  0
   -4.0047   -0.5480   -1.8300 C   0  0  0  0  0  0  0  0  0  0  0  0
   -1.2233   -1.5945   -0.6445 C   0  0  0  0  0  0  0  0  0  0  0  0
    0.2909   -1.4034   -0.5551 C   0  0  0  0  0  0  0  0  0  0  0  0
    0.5862   -0.0236   -1.1164 C   0  0  0  0  0  0  0  0  0  0  0  0
   -0.0114    0.9626   -0.0780 C   0  0  0  0  0  0  0  0  0  0  0  0
    0.5822    2.2956   -0.5380 C   0  0  0  0  0  0  0  0  0  0  0  0
    2.0515    1.9159   -0.8753 C   0  0  0  0  0  0  0  0  0  0  0  0
    2.0500    0.3967   -1.1835 C   0  0  0  0  0  0  0  0  0  0  0  0
    2.8678   -0.3586   -0.1339 C   0  0  0  0  0  0  0  0  0  0  0  0
    3.0175   -1.8207   -0.5591 C   0  0  0  0  0  0  0  0  0  0  0  0
    4.2522    0.2806   -0.0091 C   0  0  0  0  0  0  0  0  0  0  0  0
    5.0250   -0.3941    1.1260 C   0  0  0  0  0  0  0  0  0  0  0  0
    6.3887    0.2355    1.2489 C   0  0  0  0  0  0  0  0  0  0  0  0
    6.5881    1.2037    2.1085 C   0  0  0  0  0  0  0  0  0  0  0  0
    7.5230   -0.2487    0.3829 C   0  0  0  0  0  0  0  0  0  0  0  0
    7.7751   -1.7330    0.6557 C   0  0  0  0  0  0  0  0  0  0  0  0
    7.1582   -0.0557   -1.0904 C   0  0  0  0  0  0  0  0  0  0  0  0
    0.4870    0.6099    1.3249 C   0  0  0  0  0  0  0  0  0  0  0  0
   -0.0949    0.1538   -2.4749 C   0  0  0  0  0  0  0  0  0  0  0  0
   -6.1675    2.5051    0.5169 H   0  0  0  0  0  0  0  0  0  0  0  0
   -7.5435    1.4246    0.8450 H   0  0  0  0  0  0  0  0  0  0  0  0
   -6.1987    1.5307    2.0062 H   0  0  0  0  0  0  0  0  0  0  0  0
   -6.0163    0.4282   -0.8352 H   0  0  0  0  0  0  0  0  0  0  0  0
   -3.9650    0.5681    1.4217 H   0  0  0  0  0  0  0  0  0  0  0  0
   -3.8938    1.8653   -1.3422 H   0  0  0  0  0  0  0  0  0  0  0  0
   -4.3619    2.7328    0.1463 H   0  0  0  0  0  0  0  0  0  0  0  0
   -1.8899    2.8929   -0.5100 H   0  0  0  0  0  0  0  0  0  0  0  0
   -2.2274    2.3663    1.1491 H   0  0  0  0  0  0  0  0  0  0  0  0
   -3.3926   -2.6864   -0.2687 H   0  0  0  0  0  0  0  0  0  0  0  0
   -3.6218   -1.8817    1.3049 H   0  0  0  0  0  0  0  0  0  0  0  0
   -5.7012   -2.0818   -0.9231 H   0  0  0  0  0  0  0  0  0  0  0  0
   -5.7041   -3.0196    0.5877 H   0  0  0  0  0  0  0  0  0  0  0  0
   -7.2278   -1.0667    0.7308 H   0  0  0  0  0  0  0  0  0  0  0  0
   -6.0459   -1.7537    2.6846 H   0  0  0  0  0  0  0  0  0  0  0  0
   -3.5199   -1.3630   -2.3675 H   0  0  0  0  0  0  0  0  0  0  0  0
   -5.0854   -0.6875   -1.8564 H   0  0  0  0  0  0  0  0  0  0  0  0
   -3.7492    0.4009   -2.3017 H   0  0  0  0  0  0  0  0  0  0  0  0
   -1.5173   -2.3658    0.0675 H   0  0  0  0  0  0  0  0  0  0  0  0
   -1.4695   -1.9427   -1.6476 H   0  0  0  0  0  0  0  0  0  0  0  0
    0.6139   -1.4607    0.4843 H   0  0  0  0  0  0  0  0  0  0  0  0
    0.7990   -2.1642   -1.1477 H   0  0  0  0  0  0  0  0  0  0  0  0
    0.0650    2.6639   -1.4240 H   0  0  0  0  0  0  0  0  0  0  0  0
    0.5478    3.0318    0.2651 H   0  0  0  0  0  0  0  0  0  0  0  0
    2.3915    2.4744   -1.7474 H   0  0  0  0  0  0  0  0  0  0  0  0
    2.6971    2.1240   -0.0220 H   0  0  0  0  0  0  0  0  0  0  0  0
    2.4509    0.2128   -2.1803 H   0  0  0  0  0  0  0  0  0  0  0  0
    2.3573   -0.3104    0.8280 H   0  0  0  0  0  0  0  0  0  0  0  0
    3.8947   -2.2514   -0.0765 H   0  0  0  0  0  0  0  0  0  0  0  0
    2.1290   -2.3781   -0.2624 H   0  0  0  0  0  0  0  0  0  0  0  0
    3.1352   -1.8740   -1.6414 H   0  0  0  0  0  0  0  0  0  0  0  0
    4.7967    0.1537   -0.9449 H   0  0  0  0  0  0  0  0  0  0  0  0
    4.1436    1.3434    0.2068 H   0  0  0  0  0  0  0  0  0  0  0  0
    4.4806   -0.2672    2.0618 H   0  0  0  0  0  0  0  0  0  0  0  0
    5.1336   -1.4569    0.9101 H   0  0  0  0  0  0  0  0  0  0  0  0
    7.5654    1.6549    2.1966 H   0  0  0  0  0  0  0  0  0  0  0  0
    5.7752    1.5508    2.7291 H   0  0  0  0  0  0  0  0  0  0  0  0
    8.4237    0.3209    0.6118 H   0  0  0  0  0  0  0  0  0  0  0  0
    6.8745   -2.3026    0.4268 H   0  0  0  0  0  0  0  0  0  0  0  0
    8.5956   -2.0832    0.0293 H   0  0  0  0  0  0  0  0  0  0  0  0
    8.0351   -1.8705    1.7053 H   0  0  0  0  0  0  0  0  0  0  0  0
    6.9785    1.0016   -1.2847 H   0  0  0  0  0  0  0  0  0  0  0  0
    7.9786   -0.4060   -1.7167 H   0  0  0  0  0  0  0  0  0  0  0  0
    6.2575   -0.6254   -1.3193 H   0  0  0  0  0  0  0  0  0  0  0  0
    1.5546    0.8187    1.3944 H   0  0  0  0  0  0  0  0  0  0  0  0
   -0.0489    1.2079    2.0619 H   0  0  0  0  0  0  0  0  0  0  0  0
    0.3105   -0.4483    1.5178 H   0  0  0  0  0  0  0  0  0  0  0  0
   -1.1737    0.0526   -2.3564 H   0  0  0  0  0  0  0  0  0  0  0  0
    0.1359    1.1429   -2.8706 H   0  0  0  0  0  0  0  0  0  0  0  0
    0.2679   -0.6075   -3.1654 H   0  0  0  0  0  0  0  0  0  0  0  0
  1  2  1  0  0  0  0
  2  3  1  0  0  0  0
  3  4  1  0  0  0  0
  4  5  1  0  0  0  0
  5  6  1  0  0  0  0
  6  7  2  0  0  0  0
  7  8  1  0  0  0  0
  3  8  1  0  0  0  0
  8  9  1  0  0  0  0
  9 10  1  0  0  0  0
 10 11  1  0  0  0  0
  2 11  1  0  0  0  0
 11 12  1  0  0  0  0
  8 13  1  0  0  0  0
  7 14  1  0  0  0  0
 14 15  1  0  0  0  0
 15 16  1  0  0  0  0
 16 17  1  0  0  0  0
  6 17  1  0  0  0  0
 17 18  1  0  0  0  0
 18 19  1  0  0  0  0
 19 20  1  0  0  0  0
 16 20  1  0  0  0  0
 20 21  1  0  0  0  0
 21 22  1  0  0  0  0
 21 23  1  0  0  0  0
 23 24  1  0  0  0  0
 24 25  1  0  0  0  0
 25 26  2  0  0  0  0
 25 27  1  0  0  0  0
 27 28  1  0  0  0  0
 27 29  1  0  0  0  0
 17 30  1  0  0  0  0
 16 31  1  0  0  0  0
  1 32  1  0  0  0  0
  1 33  1  0  0  0  0
  1 34  1  0  0  0  0
  2 35  1  0  0  0  0
  3 36  1  0  0  0  0
  4 37  1  0  0  0  0
  4 38  1  0  0  0  0
  5 39  1  0  0  0  0
  5 40  1  0  0  0  0
  9 41  1  0  0  0  0
  9 42  1  0  0  0  0
 10 43  1  0  0  0  0
 10 44  1  0  0  0  0
 11 45  1  0  0  0  0
 12 46  1  0  0  0  0
 13 47  1  0  0  0  0
 13 48  1  0  0  0  0
 13 49  1  0  0  0  0
 14 50  1  0  0  0  0
 14 51  1  0  0  0  0
 15 52  1  0  0  0  0
 15 53  1  0  0  0  0
 18 54  1  0  0  0  0
 18 55  1  0  0  0  0
 19 56  1  0  0  0  0
 19 57  1  0  0  0  0
 20 58  1  0  0  0  0
 21 59  1  0  0  0  0
 22 60  1  0  0  0  0
 22 61  1  0  0  0  0
 22 62  1  0  0  0  0
 23 63  1  0  0  0  0
 23 64  1  0  0  0  0
 24 65  1  0  0  0  0
 24 66  1  0  0  0  0
 26 67  1  0  0  0  0
 26 68  1  0  0  0  0
 27 69  1  0  0  0  0
 28 70  1  0  0  0  0
 28 71  1  0  0  0  0
 28 72  1  0  0  0  0
 29 73  1  0  0  0  0
 29 74  1  0  0  0  0
 29 75  1  0  0  0  0
 30 76  1  0  0  0  0
 30 77  1  0  0  0  0
 30 78  1  0  0  0  0
 31 79  1  0  0  0  0
 31 80  1  0  0  0  0
 31 81  1  0  0  0  0
M  END
$$$$
