C4H10O
APtclcactv06211804383D 0   0.00000     0.00000
 
 15 14  0  0  0  0  0  0  0  0999 V2000
   -0.6409    1.4374   -0.1448 C   0  0  0  0  0  0  0  0  0  0  0  0
   -0.5002   -0.0011    0.3571 C   0  0  0  0  0  0  0  0  0  0  0  0
   -1.7542   -0.7955   -0.0137 C   0  0  0  0  0  0  0  0  0  0  0  0
    0.7246   -0.6499   -0.2908 C   0  0  0  0  0  0  0  0  0  0  0  0
    1.9074    0.0211    0.1485 O   0  0  0  0  0  0  0  0  0  0  0  0
    0.2525    2.0033    0.1193 H   0  0  0  0  0  0  0  0  0  0  0  0
   -0.7618    1.4340   -1.2281 H   0  0  0  0  0  0  0  0  0  0  0  0
   -1.5135    1.8995    0.3168 H   0  0  0  0  0  0  0  0  0  0  0  0
   -0.3793    0.0022    1.4404 H   0  0  0  0  0  0  0  0  0  0  0  0
   -1.8751   -0.7989   -1.0969 H   0  0  0  0  0  0  0  0  0  0  0  0
   -1.6540   -1.8203    0.3439 H   0  0  0  0  0  0  0  0  0  0  0  0
   -2.6268   -0.3333    0.4479 H   0  0  0  0  0  0  0  0  0  0  0  0
    0.7745   -1.7000   -0.0030 H   0  0  0  0  0  0  0  0  0  0  0  0
    0.6452   -0.5737   -1.3752 H   0  0  0  0  0  0  0  0  0  0  0  0
    2.7245   -0.3382   -0.2234 H   0  0  0  0  0  0  0  0  0  0  0  0
  1  2  1  0  0  0  0
  2  3  1  0  0  0  0
  2  4  1  0  0  0  0
  4  5  1  0  0  0  0
  1  6  1  0  0  0  0
  1  7  1  0  0  0  0
  1  8  1  0  0  0  0
  2  9  1  0  0  0  0
  3 10  1  0  0  0  0
  3 11  1  0  0  0  0
  3 12  1  0  0  0  0
  4 13  1  0  0  0  0
  4 14  1  0  0  0  0
  5 15  1  0  0  0  0
M  END
$$$$
