C30H50O2
APtclcactv06281816273D 0   0.00000     0.00000
 
 82 85  0  0  0  0  0  0  0  0999 V2000
    4.6399    2.4518   -0.3979 C   0  0  0  0  0  0  0  0  0  0  0  0
    3.5617    1.3971   -0.1409 C   0  0  0  0  0  0  0  0  0  0  0  0
    4.1874    0.1877    0.5568 C   0  0  0  0  0  0  0  0  0  0  0  0
    5.2877   -0.3995   -0.3294 C   0  0  0  0  0  0  0  0  0  0  0  0
    5.9039   -1.5908    0.3578 C   0  0  0  0  0  0  0  0  0  0  0  0
    5.9696   -2.7430   -0.2621 C   0  0  0  0  0  0  0  0  0  0  0  0
    5.3657   -2.8959   -1.6343 C   0  0  0  0  0  0  0  0  0  0  0  0
    6.6491   -3.9155    0.3970 C   0  0  0  0  0  0  0  0  0  0  0  0
    2.4753    1.9880    0.7455 C   0  0  0  0  0  0  0  0  0  0  0  0
    1.9756    3.3564    0.2149 C   0  0  0  0  0  0  0  0  0  0  0  0
    0.4306    3.2238    0.0918 C   0  0  0  0  0  0  0  0  0  0  0  0
    0.2628    1.7228   -0.1842 C   0  0  0  0  0  0  0  0  0  0  0  0
    1.2377    1.1055    0.8423 C   0  0  0  0  0  0  0  0  0  0  0  0
    1.3408   -0.3641    0.5175 C   0  0  0  0  0  0  0  0  0  0  0  0
   -0.0360   -0.9896    0.7515 C   0  0  0  0  0  0  0  0  0  0  0  0
   -1.2067   -0.0883    0.4476 C   0  0  0  0  0  0  0  0  0  0  0  0
   -1.1039    1.1496    0.0349 C   0  0  0  0  0  0  0  0  0  0  0  0
   -2.2722    2.0620   -0.2591 C   0  0  0  0  0  0  0  0  0  0  0  0
   -3.5985    1.4857    0.2409 C   0  0  0  0  0  0  0  0  0  0  0  0
   -3.6060    0.0087   -0.1711 C   0  0  0  0  0  0  0  0  0  0  0  0
   -2.5796   -0.7175    0.6728 C   0  0  0  0  0  0  0  0  0  0  0  0
   -2.5328   -2.1987    0.3116 C   0  0  0  0  0  0  0  0  0  0  0  0
   -3.9211   -2.8049    0.5089 C   0  0  0  0  0  0  0  0  0  0  0  0
   -4.9399   -2.1165   -0.3880 C   0  0  0  0  0  0  0  0  0  0  0  0
   -4.9876   -0.6014   -0.1880 C   0  0  0  0  0  0  0  0  0  0  0  0
   -5.7936   -0.2584    1.0659 C   0  0  0  0  0  0  0  0  0  0  0  0
   -5.7597   -0.0120   -1.3933 C   0  0  0  0  0  0  0  0  0  0  0  0
   -4.6286   -2.3968   -1.7647 O   0  0  0  0  0  0  0  0  0  0  0  0
   -2.8731   -0.5890    2.1681 C   0  0  0  0  0  0  0  0  0  0  0  0
    0.6744    1.2681    2.2703 C   0  0  0  0  0  0  0  0  0  0  0  0
    0.6677    1.4382   -1.6331 C   0  0  0  0  0  0  0  0  0  0  0  0
   -0.1341    2.2262   -2.5153 O   0  0  0  0  0  0  0  0  0  0  0  0
    5.0755    2.7649    0.5509 H   0  0  0  0  0  0  0  0  0  0  0  0
    5.4182    2.0285   -1.0329 H   0  0  0  0  0  0  0  0  0  0  0  0
    4.1941    3.3134   -0.8950 H   0  0  0  0  0  0  0  0  0  0  0  0
    3.1261    1.0840   -1.0897 H   0  0  0  0  0  0  0  0  0  0  0  0
    4.6157    0.4992    1.5095 H   0  0  0  0  0  0  0  0  0  0  0  0
    3.4209   -0.5671    0.7326 H   0  0  0  0  0  0  0  0  0  0  0  0
    4.8593   -0.7110   -1.2821 H   0  0  0  0  0  0  0  0  0  0  0  0
    6.0542    0.3553   -0.5052 H   0  0  0  0  0  0  0  0  0  0  0  0
    6.2914   -1.4946    1.3612 H   0  0  0  0  0  0  0  0  0  0  0  0
    5.0072   -1.9276   -1.9834 H   0  0  0  0  0  0  0  0  0  0  0  0
    6.1208   -3.2739   -2.3235 H   0  0  0  0  0  0  0  0  0  0  0  0
    4.5322   -3.5969   -1.5883 H   0  0  0  0  0  0  0  0  0  0  0  0
    5.9196   -4.4774    0.9803 H   0  0  0  0  0  0  0  0  0  0  0  0
    7.0795   -4.5627   -0.3672 H   0  0  0  0  0  0  0  0  0  0  0  0
    7.4398   -3.5545    1.0548 H   0  0  0  0  0  0  0  0  0  0  0  0
    2.8832    2.1370    1.7580 H   0  0  0  0  0  0  0  0  0  0  0  0
    2.2309    4.1489    0.9230 H   0  0  0  0  0  0  0  0  0  0  0  0
    2.4204    3.5650   -0.7588 H   0  0  0  0  0  0  0  0  0  0  0  0
   -0.0781    3.5144    1.0026 H   0  0  0  0  0  0  0  0  0  0  0  0
    0.0598    3.8046   -0.7551 H   0  0  0  0  0  0  0  0  0  0  0  0
    1.6650   -0.5631   -0.4971 H   0  0  0  0  0  0  0  0  0  0  0  0
    2.0686   -0.8412    1.1922 H   0  0  0  0  0  0  0  0  0  0  0  0
   -0.1114   -1.8740    0.1123 H   0  0  0  0  0  0  0  0  0  0  0  0
   -0.0930   -1.3326    1.7814 H   0  0  0  0  0  0  0  0  0  0  0  0
   -2.0980    3.0272    0.2100 H   0  0  0  0  0  0  0  0  0  0  0  0
   -2.3479    2.1983   -1.3383 H   0  0  0  0  0  0  0  0  0  0  0  0
   -3.6864    1.6210    1.3133 H   0  0  0  0  0  0  0  0  0  0  0  0
   -4.4188    2.0173   -0.2495 H   0  0  0  0  0  0  0  0  0  0  0  0
   -3.2331   -0.0160   -1.2243 H   0  0  0  0  0  0  0  0  0  0  0  0
   -2.2201   -2.3057   -0.7277 H   0  0  0  0  0  0  0  0  0  0  0  0
   -1.8047   -2.7117    0.9451 H   0  0  0  0  0  0  0  0  0  0  0  0
   -3.8711   -3.8754    0.2412 H   0  0  0  0  0  0  0  0  0  0  0  0
   -4.2291   -2.7558    1.5505 H   0  0  0  0  0  0  0  0  0  0  0  0
   -5.9406   -2.5290   -0.1843 H   0  0  0  0  0  0  0  0  0  0  0  0
   -5.2859   -0.6566    1.9444 H   0  0  0  0  0  0  0  0  0  0  0  0
   -5.8812    0.8243    1.1566 H   0  0  0  0  0  0  0  0  0  0  0  0
   -6.7880   -0.6983    0.9904 H   0  0  0  0  0  0  0  0  0  0  0  0
   -6.7661   -0.4296   -1.4195 H   0  0  0  0  0  0  0  0  0  0  0  0
   -5.8185    1.0717   -1.2924 H   0  0  0  0  0  0  0  0  0  0  0  0
   -5.2380   -0.2631   -2.3169 H   0  0  0  0  0  0  0  0  0  0  0  0
   -4.6405   -3.3379   -1.9869 H   0  0  0  0  0  0  0  0  0  0  0  0
   -3.7971   -1.1169    2.4037 H   0  0  0  0  0  0  0  0  0  0  0  0
   -2.0514   -1.0225    2.7383 H   0  0  0  0  0  0  0  0  0  0  0  0
   -2.9799    0.4642    2.4282 H   0  0  0  0  0  0  0  0  0  0  0  0
   -0.2883    0.7617    2.3409 H   0  0  0  0  0  0  0  0  0  0  0  0
    1.3689    0.8297    2.9869 H   0  0  0  0  0  0  0  0  0  0  0  0
    0.5447    2.3275    2.4913 H   0  0  0  0  0  0  0  0  0  0  0  0
    1.7185    1.6918   -1.7732 H   0  0  0  0  0  0  0  0  0  0  0  0
    0.5168    0.3811   -1.8516 H   0  0  0  0  0  0  0  0  0  0  0  0
    0.0682    2.0967   -3.4520 H   0  0  0  0  0  0  0  0  0  0  0  0
  1  2  1  0  0  0  0
  2  3  1  0  0  0  0
  3  4  1  0  0  0  0
  4  5  1  0  0  0  0
  5  6  2  0  0  0  0
  6  7  1  0  0  0  0
  6  8  1  0  0  0  0
  2  9  1  0  0  0  0
  9 10  1  0  0  0  0
 10 11  1  0  0  0  0
 11 12  1  0  0  0  0
 12 13  1  0  0  0  0
  9 13  1  0  0  0  0
 13 14  1  0  0  0  0
 14 15  1  0  0  0  0
 15 16  1  0  0  0  0
 16 17  2  0  0  0  0
 12 17  1  0  0  0  0
 17 18  1  0  0  0  0
 18 19  1  0  0  0  0
 19 20  1  0  0  0  0
 20 21  1  0  0  0  0
 16 21  1  0  0  0  0
 21 22  1  0  0  0  0
 22 23  1  0  0  0  0
 23 24  1  0  0  0  0
 24 25  1  0  0  0  0
 20 25  1  0  0  0  0
 25 26  1  0  0  0  0
 25 27  1  0  0  0  0
 24 28  1  0  0  0  0
 21 29  1  0  0  0  0
 13 30  1  0  0  0  0
 12 31  1  0  0  0  0
 31 32  1  0  0  0  0
  1 33  1  0  0  0  0
  1 34  1  0  0  0  0
  1 35  1  0  0  0  0
  2 36  1  0  0  0  0
  3 37  1  0  0  0  0
  3 38  1  0  0  0  0
  4 39  1  0  0  0  0
  4 40  1  0  0  0  0
  5 41  1  0  0  0  0
  7 42  1  0  0  0  0
  7 43  1  0  0  0  0
  7 44  1  0  0  0  0
  8 45  1  0  0  0  0
  8 46  1  0  0  0  0
  8 47  1  0  0  0  0
  9 48  1  0  0  0  0
 10 49  1  0  0  0  0
 10 50  1  0  0  0  0
 11 51  1  0  0  0  0
 11 52  1  0  0  0  0
 14 53  1  0  0  0  0
 14 54  1  0  0  0  0
 15 55  1  0  0  0  0
 15 56  1  0  0  0  0
 18 57  1  0  0  0  0
 18 58  1  0  0  0  0
 19 59  1  0  0  0  0
 19 60  1  0  0  0  0
 20 61  1  0  0  0  0
 22 62  1  0  0  0  0
 22 63  1  0  0  0  0
 23 64  1  0  0  0  0
 23 65  1  0  0  0  0
 24 66  1  0  0  0  0
 26 67  1  0  0  0  0
 26 68  1  0  0  0  0
 26 69  1  0  0  0  0
 27 70  1  0  0  0  0
 27 71  1  0  0  0  0
 27 72  1  0  0  0  0
 28 73  1  0  0  0  0
 29 74  1  0  0  0  0
 29 75  1  0  0  0  0
 29 76  1  0  0  0  0
 30 77  1  0  0  0  0
 30 78  1  0  0  0  0
 30 79  1  0  0  0  0
 31 80  1  0  0  0  0
 31 81  1  0  0  0  0
 32 82  1  0  0  0  0
M  END
$$$$
