C11H18NO9S2
APtclcactv06281816273D 0   0.00000     0.00000
 
 41 41  0  0  0  0  0  0  0  0999 V2000
    1.7267    5.0980   -0.3117 C   0  0  0  0  0  0  0  0  0  0  0  0
    1.4249    4.1327   -1.1443 C   0  0  0  0  0  0  0  0  0  0  0  0
    1.8320    2.7152   -0.8341 C   0  0  0  0  0  0  0  0  0  0  0  0
    0.5981    1.8113   -0.8674 C   0  0  0  0  0  0  0  0  0  0  0  0
    1.0052    0.3939   -0.5572 C   0  0  0  0  0  0  0  0  0  0  0  0
    2.2446    0.1152   -0.3168 N   0  0  0  0  0  0  0  0  0  0  0  0
    2.6115   -1.1927    0.0831 O   0  0  0  0  0  0  0  0  0  0  0  0
    4.1030   -1.3691    0.3298 S   0  0  0  0  0  0  0  0  0  0  0  0
    4.3548   -2.8012    0.3712 O   0  0  0  0  0  0  0  0  0  0  0  0
    4.7905   -0.7258   -0.7791 O   0  0  0  0  0  0  0  0  0  0  0  0
    4.3968   -0.7262    1.6011 O   0  5  0  0  0  0  0  0  0  0  0  0
   -0.2079   -0.8836   -0.5222 S   0  0  0  0  0  0  0  0  0  0  0  0
   -1.6718    0.0595   -1.0157 C   0  0  0  0  0  0  0  0  0  0  0  0
   -2.7804   -0.9055   -1.4440 C   0  0  0  0  0  0  0  0  0  0  0  0
   -3.1727   -1.7822   -0.2508 C   0  0  0  0  0  0  0  0  0  0  0  0
   -3.6030   -0.8813    0.9109 C   0  0  0  0  0  0  0  0  0  0  0  0
   -2.4627    0.0828    1.2483 C   0  0  0  0  0  0  0  0  0  0  0  0
   -2.1265    0.8457    0.0876 O   0  0  0  0  0  0  0  0  0  0  0  0
   -2.9066    1.0263    2.3680 C   0  0  0  0  0  0  0  0  0  0  0  0
   -1.8062    1.8480    2.7629 O   0  0  0  0  0  0  0  0  0  0  0  0
   -4.7624   -0.1361    0.5333 O   0  0  0  0  0  0  0  0  0  0  0  0
   -4.2573   -2.6358   -0.6209 O   0  0  0  0  0  0  0  0  0  0  0  0
   -3.9179   -0.1610   -1.8841 O   0  0  0  0  0  0  0  0  0  0  0  0
    1.4349    6.1138   -0.5340 H   0  0  0  0  0  0  0  0  0  0  0  0
    2.2633    4.8773    0.5992 H   0  0  0  0  0  0  0  0  0  0  0  0
    0.8844    4.3526   -2.0530 H   0  0  0  0  0  0  0  0  0  0  0  0
    2.5530    2.3735   -1.5768 H   0  0  0  0  0  0  0  0  0  0  0  0
    2.2847    2.6758    0.1567 H   0  0  0  0  0  0  0  0  0  0  0  0
   -0.1229    2.1530   -0.1248 H   0  0  0  0  0  0  0  0  0  0  0  0
    0.1455    1.8507   -1.8582 H   0  0  0  0  0  0  0  0  0  0  0  0
   -1.4182    0.7148   -1.8490 H   0  0  0  0  0  0  0  0  0  0  0  0
   -2.4202   -1.5364   -2.2567 H   0  0  0  0  0  0  0  0  0  0  0  0
   -2.3185   -2.3869    0.0538 H   0  0  0  0  0  0  0  0  0  0  0  0
   -3.8312   -1.4948    1.7825 H   0  0  0  0  0  0  0  0  0  0  0  0
   -1.5914   -0.4848    1.5751 H   0  0  0  0  0  0  0  0  0  0  0  0
   -3.7208    1.6566    2.0105 H   0  0  0  0  0  0  0  0  0  0  0  0
   -3.2481    0.4413    3.2220 H   0  0  0  0  0  0  0  0  0  0  0  0
   -2.0157    2.4723    3.4710 H   0  0  0  0  0  0  0  0  0  0  0  0
   -5.5241   -0.6847    0.3009 H   0  0  0  0  0  0  0  0  0  0  0  0
   -4.0566   -3.2301   -1.3569 H   0  0  0  0  0  0  0  0  0  0  0  0
   -3.7405    0.4207   -2.6359 H   0  0  0  0  0  0  0  0  0  0  0  0
  1  2  2  0  0  0  0
  2  3  1  0  0  0  0
  3  4  1  0  0  0  0
  4  5  1  0  0  0  0
  5  6  2  0  0  0  0
  6  7  1  0  0  0  0
  7  8  1  0  0  0  0
  8  9  2  0  0  0  0
  8 10  2  0  0  0  0
  8 11  1  0  0  0  0
  5 12  1  0  0  0  0
 12 13  1  0  0  0  0
 13 14  1  0  0  0  0
 14 15  1  0  0  0  0
 15 16  1  0  0  0  0
 16 17  1  0  0  0  0
 17 18  1  0  0  0  0
 13 18  1  0  0  0  0
 17 19  1  0  0  0  0
 19 20  1  0  0  0  0
 16 21  1  0  0  0  0
 15 22  1  0  0  0  0
 14 23  1  0  0  0  0
  1 24  1  0  0  0  0
  1 25  1  0  0  0  0
  2 26  1  0  0  0  0
  3 27  1  0  0  0  0
  3 28  1  0  0  0  0
  4 29  1  0  0  0  0
  4 30  1  0  0  0  0
 13 31  1  0  0  0  0
 14 32  1  0  0  0  0
 15 33  1  0  0  0  0
 16 34  1  0  0  0  0
 17 35  1  0  0  0  0
 19 36  1  0  0  0  0
 19 37  1  0  0  0  0
 20 38  1  0  0  0  0
 21 39  1  0  0  0  0
 22 40  1  0  0  0  0
 23 41  1  0  0  0  0
M  CHG  1  11  -1
M  END
$$$$
