C11H20NO10S2
APtclcactv06281816273D 0   0.00000     0.00000
 
 44 44  0  0  0  0  0  0  0  0999 V2000
    2.7646   -4.1101    0.1398 C   0  0  0  0  0  0  0  0  0  0  0  0
    1.7844   -2.9377    0.2150 C   0  0  0  0  0  0  0  0  0  0  0  0
    2.1017   -2.0858    1.4457 C   0  0  0  0  0  0  0  0  0  0  0  0
    1.9160   -2.0812   -1.0459 C   0  0  0  0  0  0  0  0  0  0  0  0
    0.9385   -0.9362   -0.9797 C   0  0  0  0  0  0  0  0  0  0  0  0
    1.3542    0.2528   -0.6877 N   0  0  0  0  0  0  0  0  0  0  0  0
    2.7404    0.5021   -0.5414 O   0  0  0  0  0  0  0  0  0  0  0  0
    3.0749    1.9391   -0.1681 S   0  0  0  0  0  0  0  0  0  0  0  0
    4.4986    2.1146   -0.4095 O   0  0  0  0  0  0  0  0  0  0  0  0
    2.2667    2.7938   -1.0239 O   0  0  0  0  0  0  0  0  0  0  0  0
    2.7360    2.0971    1.2377 O   0  5  0  0  0  0  0  0  0  0  0  0
   -0.7711   -1.2177   -1.3002 S   0  0  0  0  0  0  0  0  0  0  0  0
   -1.4127    0.4603   -1.0798 C   0  0  0  0  0  0  0  0  0  0  0  0
   -2.9013    0.4886   -1.4362 C   0  0  0  0  0  0  0  0  0  0  0  0
   -3.6653   -0.4307   -0.4783 C   0  0  0  0  0  0  0  0  0  0  0  0
   -3.4037    0.0202    0.9620 C   0  0  0  0  0  0  0  0  0  0  0  0
   -1.8957    0.0100    1.2258 C   0  0  0  0  0  0  0  0  0  0  0  0
   -1.2425    0.8606    0.2814 O   0  0  0  0  0  0  0  0  0  0  0  0
   -1.6223    0.5166    2.6434 C   0  0  0  0  0  0  0  0  0  0  0  0
   -0.2275    0.3977    2.9309 O   0  0  0  0  0  0  0  0  0  0  0  0
   -3.9121    1.3427    1.1482 O   0  0  0  0  0  0  0  0  0  0  0  0
   -5.0648   -0.3540   -0.7565 O   0  0  0  0  0  0  0  0  0  0  0  0
   -3.3964    1.8235   -1.3135 O   0  0  0  0  0  0  0  0  0  0  0  0
    0.4496   -3.4384    0.3136 O   0  0  0  0  0  0  0  0  0  0  0  0
    2.6708   -4.7203    1.0381 H   0  0  0  0  0  0  0  0  0  0  0  0
    2.5385   -4.7170   -0.7370 H   0  0  0  0  0  0  0  0  0  0  0  0
    3.7827   -3.7282    0.0646 H   0  0  0  0  0  0  0  0  0  0  0  0
    3.0786   -1.6184    1.3219 H   0  0  0  0  0  0  0  0  0  0  0  0
    1.3411   -1.3134    1.5588 H   0  0  0  0  0  0  0  0  0  0  0  0
    2.1116   -2.7188    2.3330 H   0  0  0  0  0  0  0  0  0  0  0  0
    2.9308   -1.6891   -1.1145 H   0  0  0  0  0  0  0  0  0  0  0  0
    1.7022   -2.6912   -1.9235 H   0  0  0  0  0  0  0  0  0  0  0  0
   -0.8699    1.1455   -1.7309 H   0  0  0  0  0  0  0  0  0  0  0  0
   -3.0373    0.1414   -2.4604 H   0  0  0  0  0  0  0  0  0  0  0  0
   -3.3223   -1.4573   -0.6070 H   0  0  0  0  0  0  0  0  0  0  0  0
   -3.8990   -0.6621    1.6529 H   0  0  0  0  0  0  0  0  0  0  0  0
   -1.5156   -1.0065    1.1232 H   0  0  0  0  0  0  0  0  0  0  0  0
   -1.9212    1.5620    2.7196 H   0  0  0  0  0  0  0  0  0  0  0  0
   -2.1924   -0.0773    3.3577 H   0  0  0  0  0  0  0  0  0  0  0  0
    0.0190    0.7012    3.8153 H   0  0  0  0  0  0  0  0  0  0  0  0
   -4.8630    1.4240    0.9925 H   0  0  0  0  0  0  0  0  0  0  0  0
   -5.3022   -0.6192   -1.6556 H   0  0  0  0  0  0  0  0  0  0  0  0
   -2.9534    2.4618   -1.8893 H   0  0  0  0  0  0  0  0  0  0  0  0
    0.1796   -3.9884   -0.4345 H   0  0  0  0  0  0  0  0  0  0  0  0
  1  2  1  0  0  0  0
  2  3  1  0  0  0  0
  2  4  1  0  0  0  0
  4  5  1  0  0  0  0
  5  6  2  0  0  0  0
  6  7  1  0  0  0  0
  7  8  1  0  0  0  0
  8  9  2  0  0  0  0
  8 10  2  0  0  0  0
  8 11  1  0  0  0  0
  5 12  1  0  0  0  0
 12 13  1  0  0  0  0
 13 14  1  0  0  0  0
 14 15  1  0  0  0  0
 15 16  1  0  0  0  0
 16 17  1  0  0  0  0
 17 18  1  0  0  0  0
 13 18  1  0  0  0  0
 17 19  1  0  0  0  0
 19 20  1  0  0  0  0
 16 21  1  0  0  0  0
 15 22  1  0  0  0  0
 14 23  1  0  0  0  0
  2 24  1  0  0  0  0
  1 25  1  0  0  0  0
  1 26  1  0  0  0  0
  1 27  1  0  0  0  0
  3 28  1  0  0  0  0
  3 29  1  0  0  0  0
  3 30  1  0  0  0  0
  4 31  1  0  0  0  0
  4 32  1  0  0  0  0
 13 33  1  0  0  0  0
 14 34  1  0  0  0  0
 15 35  1  0  0  0  0
 16 36  1  0  0  0  0
 17 37  1  0  0  0  0
 19 38  1  0  0  0  0
 19 39  1  0  0  0  0
 20 40  1  0  0  0  0
 21 41  1  0  0  0  0
 22 42  1  0  0  0  0
 23 43  1  0  0  0  0
 24 44  1  0  0  0  0
M  CHG  1  11  -1
M  END
$$$$
