C17H21N2O10S2
APtclcactv06281816273D 0   0.00000     0.00000
 
 52 54  0  0  0  0  0  0  0  0999 V2000
   -2.4467    2.2376    3.2239 C   0  0  0  0  0  0  0  0  0  0  0  0
   -2.0990    1.9248    1.8736 O   0  0  0  0  0  0  0  0  0  0  0  0
   -3.0985    1.9655    0.9540 C   0  0  0  0  0  0  0  0  0  0  0  0
   -4.3831    2.2978    1.3376 C   0  0  0  0  0  0  0  0  0  0  0  0
   -5.4055    2.3399    0.3999 C   0  0  0  0  0  0  0  0  0  0  0  0
   -5.1582    2.0522   -0.9240 C   0  0  0  0  0  0  0  0  0  0  0  0
   -3.8715    1.7146   -1.3349 C   0  0  0  0  0  0  0  0  0  0  0  0
   -2.8319    1.6763   -0.3902 C   0  0  0  0  0  0  0  0  0  0  0  0
   -1.6257    1.2950   -1.1288 C   0  0  0  0  0  0  0  0  0  0  0  0
   -1.9861    1.1329   -2.4114 C   0  0  0  0  0  0  0  0  0  0  0  0
   -3.3245    1.3842   -2.5545 N   0  0  0  0  0  0  0  0  0  0  0  0
   -0.2425    1.1190   -0.5571 C   0  0  0  0  0  0  0  0  0  0  0  0
   -0.1018   -0.2753   -0.0027 C   0  0  0  0  0  0  0  0  0  0  0  0
   -1.0945   -1.1009   -0.0698 N   0  0  0  0  0  0  0  0  0  0  0  0
   -0.9285   -2.4432    0.3493 O   0  0  0  0  0  0  0  0  0  0  0  0
   -2.1828   -3.2943    0.2116 S   0  0  0  0  0  0  0  0  0  0  0  0
   -1.9613   -4.4980    0.9979 O   0  0  0  0  0  0  0  0  0  0  0  0
   -3.2871   -2.5005    0.7279 O   0  0  0  0  0  0  0  0  0  0  0  0
   -2.3370   -3.5881   -1.2047 O   0  5  0  0  0  0  0  0  0  0  0  0
    1.4157   -0.7803    0.7369 S   0  0  0  0  0  0  0  0  0  0  0  0
    2.3465    0.7686    0.6335 C   0  0  0  0  0  0  0  0  0  0  0  0
    3.5568    0.7003    1.5685 C   0  0  0  0  0  0  0  0  0  0  0  0
    4.4831   -0.4302    1.1101 C   0  0  0  0  0  0  0  0  0  0  0  0
    4.8873   -0.1852   -0.3469 C   0  0  0  0  0  0  0  0  0  0  0  0
    3.6256   -0.0827   -1.2080 C   0  0  0  0  0  0  0  0  0  0  0  0
    2.7940    0.9669   -0.7091 O   0  0  0  0  0  0  0  0  0  0  0  0
    4.0187    0.2217   -2.6549 C   0  0  0  0  0  0  0  0  0  0  0  0
    2.8519    0.2023   -3.4797 O   0  0  0  0  0  0  0  0  0  0  0  0
    5.6283    1.0332   -0.4386 O   0  0  0  0  0  0  0  0  0  0  0  0
    5.6514   -0.4541    1.9327 O   0  0  0  0  0  0  0  0  0  0  0  0
    4.2625    1.9422    1.5276 O   0  0  0  0  0  0  0  0  0  0  0  0
   -2.8468    3.2505    3.2707 H   0  0  0  0  0  0  0  0  0  0  0  0
   -3.1993    1.5331    3.5779 H   0  0  0  0  0  0  0  0  0  0  0  0
   -1.5594    2.1680    3.8531 H   0  0  0  0  0  0  0  0  0  0  0  0
   -4.5931    2.5256    2.3722 H   0  0  0  0  0  0  0  0  0  0  0  0
   -6.4060    2.6007    0.7119 H   0  0  0  0  0  0  0  0  0  0  0  0
   -5.9627    2.0882   -1.6436 H   0  0  0  0  0  0  0  0  0  0  0  0
   -1.3189    0.8504   -3.2123 H   0  0  0  0  0  0  0  0  0  0  0  0
   -3.8153    1.3315   -3.3896 H   0  0  0  0  0  0  0  0  0  0  0  0
    0.4976    1.2742   -1.3422 H   0  0  0  0  0  0  0  0  0  0  0  0
   -0.0839    1.8448    0.2404 H   0  0  0  0  0  0  0  0  0  0  0  0
    1.7050    1.5987    0.9293 H   0  0  0  0  0  0  0  0  0  0  0  0
    3.2199    0.5051    2.5866 H   0  0  0  0  0  0  0  0  0  0  0  0
    3.9610   -1.3838    1.1883 H   0  0  0  0  0  0  0  0  0  0  0  0
    5.5020   -1.0138   -0.6986 H   0  0  0  0  0  0  0  0  0  0  0  0
    3.0818   -1.0266   -1.1698 H   0  0  0  0  0  0  0  0  0  0  0  0
    4.4832    1.2065   -2.7057 H   0  0  0  0  0  0  0  0  0  0  0  0
    4.7243   -0.5313   -3.0059 H   0  0  0  0  0  0  0  0  0  0  0  0
    3.0266    0.3876   -4.4126 H   0  0  0  0  0  0  0  0  0  0  0  0
    6.4398    1.0406    0.0873 H   0  0  0  0  0  0  0  0  0  0  0  0
    5.4687   -0.5986    2.8712 H   0  0  0  0  0  0  0  0  0  0  0  0
    3.7338    2.7043    1.8012 H   0  0  0  0  0  0  0  0  0  0  0  0
  1  2  1  0  0  0  0
  2  3  1  0  0  0  0
  3  4  2  0  0  0  0
  4  5  1  0  0  0  0
  5  6  2  0  0  0  0
  6  7  1  0  0  0  0
  7  8  2  0  0  0  0
  3  8  1  0  0  0  0
  8  9  1  0  0  0  0
  9 10  2  0  0  0  0
 10 11  1  0  0  0  0
  7 11  1  0  0  0  0
  9 12  1  0  0  0  0
 12 13  1  0  0  0  0
 13 14  2  0  0  0  0
 14 15  1  0  0  0  0
 15 16  1  0  0  0  0
 16 17  2  0  0  0  0
 16 18  2  0  0  0  0
 16 19  1  0  0  0  0
 13 20  1  0  0  0  0
 20 21  1  0  0  0  0
 21 22  1  0  0  0  0
 22 23  1  0  0  0  0
 23 24  1  0  0  0  0
 24 25  1  0  0  0  0
 25 26  1  0  0  0  0
 21 26  1  0  0  0  0
 25 27  1  0  0  0  0
 27 28  1  0  0  0  0
 24 29  1  0  0  0  0
 23 30  1  0  0  0  0
 22 31  1  0  0  0  0
  1 32  1  0  0  0  0
  1 33  1  0  0  0  0
  1 34  1  0  0  0  0
  4 35  1  0  0  0  0
  5 36  1  0  0  0  0
  6 37  1  0  0  0  0
 10 38  1  0  0  0  0
 11 39  1  0  0  0  0
 12 40  1  0  0  0  0
 12 41  1  0  0  0  0
 21 42  1  0  0  0  0
 22 43  1  0  0  0  0
 23 44  1  0  0  0  0
 24 45  1  0  0  0  0
 25 46  1  0  0  0  0
 27 47  1  0  0  0  0
 27 48  1  0  0  0  0
 28 49  1  0  0  0  0
 29 50  1  0  0  0  0
 30 51  1  0  0  0  0
 31 52  1  0  0  0  0
M  CHG  1  19  -1
M  END
$$$$
