C12H20NO9S2
APtclcactv06281816273D 0   0.00000     0.00000
 
 44 44  0  0  0  0  0  0  0  0999 V2000
   -3.6501   -5.3768   -0.9519 C   0  0  0  0  0  0  0  0  0  0  0  0
   -3.2040   -4.5161   -0.0709 C   0  0  0  0  0  0  0  0  0  0  0  0
   -1.8772   -3.8352   -0.2876 C   0  0  0  0  0  0  0  0  0  0  0  0
   -2.0670   -2.3181   -0.2291 C   0  0  0  0  0  0  0  0  0  0  0  0
   -0.7199   -1.6268   -0.4490 C   0  0  0  0  0  0  0  0  0  0  0  0
   -0.9068   -0.1325   -0.3914 C   0  0  0  0  0  0  0  0  0  0  0  0
   -2.0817    0.3644   -0.1808 N   0  0  0  0  0  0  0  0  0  0  0  0
   -2.2402    1.7618   -0.0160 O   0  0  0  0  0  0  0  0  0  0  0  0
   -3.6786    2.1976    0.2241 S   0  0  0  0  0  0  0  0  0  0  0  0
   -3.7221    3.6360    0.0118 O   0  0  0  0  0  0  0  0  0  0  0  0
   -4.5007    1.4787   -0.7369 O   0  0  0  0  0  0  0  0  0  0  0  0
   -4.0022    1.8382    1.5961 O   0  5  0  0  0  0  0  0  0  0  0  0
    0.4759    0.9374   -0.6111 S   0  0  0  0  0  0  0  0  0  0  0  0
    1.7668   -0.2839   -0.9550 C   0  0  0  0  0  0  0  0  0  0  0  0
    2.9805    0.4162   -1.5719 C   0  0  0  0  0  0  0  0  0  0  0  0
    3.5476    1.4207   -0.5642 C   0  0  0  0  0  0  0  0  0  0  0  0
    3.8982    0.6841    0.7323 C   0  0  0  0  0  0  0  0  0  0  0  0
    2.6491   -0.0263    1.2602 C   0  0  0  0  0  0  0  0  0  0  0  0
    2.1551   -0.9227    0.2629 O   0  0  0  0  0  0  0  0  0  0  0  0
    3.0051   -0.8137    2.5227 C   0  0  0  0  0  0  0  0  0  0  0  0
    1.8183   -1.3813    3.0808 O   0  0  0  0  0  0  0  0  0  0  0  0
    4.9214   -0.2791    0.4725 O   0  0  0  0  0  0  0  0  0  0  0  0
    4.7244    2.0261   -1.1033 O   0  0  0  0  0  0  0  0  0  0  0  0
    3.9794   -0.5541   -1.8927 O   0  0  0  0  0  0  0  0  0  0  0  0
   -3.0670   -5.5985   -1.8336 H   0  0  0  0  0  0  0  0  0  0  0  0
   -4.5989   -5.8681   -0.7945 H   0  0  0  0  0  0  0  0  0  0  0  0
   -3.7871   -4.2944    0.8107 H   0  0  0  0  0  0  0  0  0  0  0  0
   -1.1789   -4.1443    0.4902 H   0  0  0  0  0  0  0  0  0  0  0  0
   -1.4807   -4.1143   -1.2638 H   0  0  0  0  0  0  0  0  0  0  0  0
   -2.7653   -2.0090   -1.0068 H   0  0  0  0  0  0  0  0  0  0  0  0
   -2.4635   -2.0389    0.7471 H   0  0  0  0  0  0  0  0  0  0  0  0
   -0.0216   -1.9359    0.3287 H   0  0  0  0  0  0  0  0  0  0  0  0
   -0.3233   -1.9060   -1.4252 H   0  0  0  0  0  0  0  0  0  0  0  0
    1.3848   -1.0303   -1.6514 H   0  0  0  0  0  0  0  0  0  0  0  0
    2.6768    0.9409   -2.4778 H   0  0  0  0  0  0  0  0  0  0  0  0
    2.8029    2.1892   -0.3570 H   0  0  0  0  0  0  0  0  0  0  0  0
    4.2509    1.4004    1.4743 H   0  0  0  0  0  0  0  0  0  0  0  0
    1.8832    0.7125    1.4963 H   0  0  0  0  0  0  0  0  0  0  0  0
    3.7043   -1.6105    2.2689 H   0  0  0  0  0  0  0  0  0  0  0  0
    3.4650   -0.1450    3.2504 H   0  0  0  0  0  0  0  0  0  0  0  0
    1.9691   -1.8957    3.8856 H   0  0  0  0  0  0  0  0  0  0  0  0
    5.7419    0.1014    0.1302 H   0  0  0  0  0  0  0  0  0  0  0  0
    4.5768    2.5050   -1.9303 H   0  0  0  0  0  0  0  0  0  0  0  0
    3.6868   -1.2259   -2.5237 H   0  0  0  0  0  0  0  0  0  0  0  0
  1  2  2  0  0  0  0
  2  3  1  0  0  0  0
  3  4  1  0  0  0  0
  4  5  1  0  0  0  0
  5  6  1  0  0  0  0
  6  7  2  0  0  0  0
  7  8  1  0  0  0  0
  8  9  1  0  0  0  0
  9 10  2  0  0  0  0
  9 11  2  0  0  0  0
  9 12  1  0  0  0  0
  6 13  1  0  0  0  0
 13 14  1  0  0  0  0
 14 15  1  0  0  0  0
 15 16  1  0  0  0  0
 16 17  1  0  0  0  0
 17 18  1  0  0  0  0
 18 19  1  0  0  0  0
 14 19  1  0  0  0  0
 18 20  1  0  0  0  0
 20 21  1  0  0  0  0
 17 22  1  0  0  0  0
 16 23  1  0  0  0  0
 15 24  1  0  0  0  0
  1 25  1  0  0  0  0
  1 26  1  0  0  0  0
  2 27  1  0  0  0  0
  3 28  1  0  0  0  0
  3 29  1  0  0  0  0
  4 30  1  0  0  0  0
  4 31  1  0  0  0  0
  5 32  1  0  0  0  0
  5 33  1  0  0  0  0
 14 34  1  0  0  0  0
 15 35  1  0  0  0  0
 16 36  1  0  0  0  0
 17 37  1  0  0  0  0
 18 38  1  0  0  0  0
 20 39  1  0  0  0  0
 20 40  1  0  0  0  0
 21 41  1  0  0  0  0
 22 42  1  0  0  0  0
 23 43  1  0  0  0  0
 24 44  1  0  0  0  0
M  CHG  1  12  -1
M  END
$$$$
