C14H15N3O4
APtclcactv06281816273D 0   0.00000     0.00000
 
 36 37  0  0  0  0  0  0  0  0999 V2000
    5.5352    2.5684   -0.9438 C   0  0  0  0  0  0  0  0  0  0  0  0
    5.0646    1.5710    0.1167 C   0  0  0  0  0  0  0  0  0  0  0  0
    3.8151    0.9659   -0.3086 O   0  0  0  0  0  0  0  0  0  0  0  0
    3.2622    0.0577    0.5194 C   0  0  0  0  0  0  0  0  0  0  0  0
    3.8093   -0.2210    1.5681 O   0  0  0  0  0  0  0  0  0  0  0  0
    1.9949   -0.5971    0.1533 C   0  0  0  0  0  0  0  0  0  0  0  0
    0.7234   -0.1523    0.4596 C   0  0  0  0  0  0  0  0  0  0  0  0
   -0.1472   -1.0373   -0.0580 N   0  0  0  0  0  0  0  0  0  0  0  0
    0.5769   -2.0501   -0.6967 N   0  0  0  0  0  0  0  0  0  0  0  0
    1.8514   -1.7956   -0.5829 C   0  0  0  0  0  0  0  0  0  0  0  0
    2.9746   -2.6378   -1.1307 C   0  0  0  0  0  0  0  0  0  0  0  0
   -1.5438   -0.9588    0.0286 C   0  0  0  0  0  0  0  0  0  0  0  0
   -2.1847    0.2589   -0.1545 C   0  0  0  0  0  0  0  0  0  0  0  0
   -3.5615    0.3330   -0.0691 C   0  0  0  0  0  0  0  0  0  0  0  0
   -4.3011   -0.8041    0.1986 C   0  0  0  0  0  0  0  0  0  0  0  0
   -3.6655   -2.0187    0.3815 C   0  0  0  0  0  0  0  0  0  0  0  0
   -2.2898   -2.1001    0.2920 C   0  0  0  0  0  0  0  0  0  0  0  0
   -4.2456    1.6311   -0.2637 N   0  3  0  0  0  0  0  0  0  0  0  0
   -3.5946    2.6333   -0.4991 O   0  0  0  0  0  0  0  0  0  0  0  0
   -5.4594    1.6971   -0.1885 O   0  5  0  0  0  0  0  0  0  0  0  0
    0.3759    1.0944    1.2317 C   0  0  0  0  0  0  0  0  0  0  0  0
    6.4732    3.0226   -0.6246 H   0  0  0  0  0  0  0  0  0  0  0  0
    5.6868    2.0484   -1.8897 H   0  0  0  0  0  0  0  0  0  0  0  0
    4.7810    3.3446   -1.0727 H   0  0  0  0  0  0  0  0  0  0  0  0
    5.8189    0.7948    0.2456 H   0  0  0  0  0  0  0  0  0  0  0  0
    4.9130    2.0910    1.0626 H   0  0  0  0  0  0  0  0  0  0  0  0
    3.2170   -2.3076   -2.1408 H   0  0  0  0  0  0  0  0  0  0  0  0
    3.8524   -2.5319   -0.4933 H   0  0  0  0  0  0  0  0  0  0  0  0
    2.6667   -3.6832   -1.1543 H   0  0  0  0  0  0  0  0  0  0  0  0
   -1.6075    1.1475   -0.3632 H   0  0  0  0  0  0  0  0  0  0  0  0
   -5.3773   -0.7436    0.2652 H   0  0  0  0  0  0  0  0  0  0  0  0
   -4.2459   -2.9051    0.5907 H   0  0  0  0  0  0  0  0  0  0  0  0
   -1.7940   -3.0489    0.4350 H   0  0  0  0  0  0  0  0  0  0  0  0
    0.1795    1.9099    0.5357 H   0  0  0  0  0  0  0  0  0  0  0  0
   -0.5121    0.9113    1.8367 H   0  0  0  0  0  0  0  0  0  0  0  0
    1.2089    1.3636    1.8811 H   0  0  0  0  0  0  0  0  0  0  0  0
  1  2  1  0  0  0  0
  2  3  1  0  0  0  0
  3  4  1  0  0  0  0
  4  5  2  0  0  0  0
  4  6  1  0  0  0  0
  6  7  2  0  0  0  0
  7  8  1  0  0  0  0
  8  9  1  0  0  0  0
  9 10  2  0  0  0  0
  6 10  1  0  0  0  0
 10 11  1  0  0  0  0
  8 12  1  0  0  0  0
 12 13  2  0  0  0  0
 13 14  1  0  0  0  0
 14 15  2  0  0  0  0
 15 16  1  0  0  0  0
 16 17  2  0  0  0  0
 12 17  1  0  0  0  0
 14 18  1  0  0  0  0
 18 19  2  0  0  0  0
 18 20  1  0  0  0  0
  7 21  1  0  0  0  0
  1 22  1  0  0  0  0
  1 23  1  0  0  0  0
  1 24  1  0  0  0  0
  2 25  1  0  0  0  0
  2 26  1  0  0  0  0
 11 27  1  0  0  0  0
 11 28  1  0  0  0  0
 11 29  1  0  0  0  0
 13 30  1  0  0  0  0
 15 31  1  0  0  0  0
 16 32  1  0  0  0  0
 17 33  1  0  0  0  0
 21 34  1  0  0  0  0
 21 35  1  0  0  0  0
 21 36  1  0  0  0  0
M  CHG  2  18   1  20  -1
M  END
$$$$
