C3H4O2
APtclcactv06211804383D 0   0.00000     0.00000
 
  9  8  0  0  0  0  0  0  0  0999 V2000
    1.9973   -0.0038   -0.0003 C   0  0  0  0  0  0  0  0  0  0  0  0
    0.8548   -0.6864   -0.0002 C   0  0  0  0  0  0  0  0  0  0  0  0
   -0.4286    0.0292   -0.0000 C   0  0  0  0  0  0  0  0  0  0  0  0
   -0.4468    1.2445    0.0001 O   0  0  0  0  0  0  0  0  0  0  0  0
   -1.5858   -0.6621    0.0001 O   0  0  0  0  0  0  0  0  0  0  0  0
    1.9812    1.0760   -0.0002 H   0  0  0  0  0  0  0  0  0  0  0  0
    2.9406   -0.5298    0.0041 H   0  0  0  0  0  0  0  0  0  0  0  0
    0.8710   -1.7663   -0.0003 H   0  0  0  0  0  0  0  0  0  0  0  0
   -2.4046   -0.1476    0.0002 H   0  0  0  0  0  0  0  0  0  0  0  0
  1  2  2  0  0  0  0
  2  3  1  0  0  0  0
  3  4  2  0  0  0  0
  3  5  1  0  0  0  0
  1  6  1  0  0  0  0
  1  7  1  0  0  0  0
  2  8  1  0  0  0  0
  5  9  1  0  0  0  0
M  END
$$$$
