S8
APtclcactv06211806243D 0   0.00000     0.00000
 
  8  8  0  0  0  0  0  0  0  0999 V2000
    1.9171    0.0094    1.0197 S   0  0  0  0  0  0  0  0  0  0  0  0
    1.6610   -1.3147   -0.5487 S   0  0  0  0  0  0  0  0  0  0  0  0
    0.0218   -2.3777    0.0315 S   0  0  0  0  0  0  0  0  0  0  0  0
   -1.6364   -1.3444   -0.5490 S   0  0  0  0  0  0  0  0  0  0  0  0
   -1.9171   -0.0255    1.0199 S   0  0  0  0  0  0  0  0  0  0  0  0
   -1.6350    1.7851    0.0675 S   0  0  0  0  0  0  0  0  0  0  0  0
   -0.0134    1.4532   -1.1087 S   0  0  0  0  0  0  0  0  0  0  0  0
    1.6020    1.8145    0.0676 S   0  0  0  0  0  0  0  0  0  0  0  0
  1  2  1  0  0  0  0
  2  3  1  0  0  0  0
  3  4  1  0  0  0  0
  4  5  1  0  0  0  0
  5  6  1  0  0  0  0
  6  7  1  0  0  0  0
  7  8  1  0  0  0  0
  1  8  1  0  0  0  0
M  END
$$$$
