C12H9ClO3S
APtclcactv06211804383D 0   0.00000     0.00000
 
 26 27  0  0  0  0  0  0  0  0999 V2000
   -3.0818    2.8199    0.0638 C   0  0  0  0  0  0  0  0  0  0  0  0
   -3.7092    1.8204   -0.6562 C   0  0  0  0  0  0  0  0  0  0  0  0
   -3.2264    0.5260   -0.6070 C   0  0  0  0  0  0  0  0  0  0  0  0
   -2.1160    0.2312    0.1617 C   0  0  0  0  0  0  0  0  0  0  0  0
   -1.4881    1.2309    0.8810 C   0  0  0  0  0  0  0  0  0  0  0  0
   -1.9717    2.5250    0.8329 C   0  0  0  0  0  0  0  0  0  0  0  0
   -1.5013   -1.4189    0.2253 S   0  0  0  0  0  0  0  0  0  0  0  0
   -0.7764   -1.5304    1.4424 O   0  0  0  0  0  0  0  0  0  0  0  0
   -2.5914   -2.2663   -0.1105 O   0  0  0  0  0  0  0  0  0  0  0  0
   -0.4828   -1.5638   -0.8963 O   0  0  0  0  0  0  0  0  0  0  0  0
    0.7074   -0.9576   -0.6441 C   0  0  0  0  0  0  0  0  0  0  0  0
    1.7242   -1.6594   -0.0134 C   0  0  0  0  0  0  0  0  0  0  0  0
    2.9333   -1.0418    0.2417 C   0  0  0  0  0  0  0  0  0  0  0  0
    3.1304    0.2759   -0.1315 C   0  0  0  0  0  0  0  0  0  0  0  0
    2.1173    0.9776   -0.7607 C   0  0  0  0  0  0  0  0  0  0  0  0
    0.9087    0.3618   -1.0222 C   0  0  0  0  0  0  0  0  0  0  0  0
    4.6505    1.0501    0.1906 Cl  0  0  0  0  0  0  0  0  0  0  0  0
   -3.4563    3.8320    0.0218 H   0  0  0  0  0  0  0  0  0  0  0  0
   -4.5767    2.0507   -1.2568 H   0  0  0  0  0  0  0  0  0  0  0  0
   -3.7170   -0.2550   -1.1689 H   0  0  0  0  0  0  0  0  0  0  0  0
   -0.6210    1.0005    1.4821 H   0  0  0  0  0  0  0  0  0  0  0  0
   -1.4814    3.3060    1.3951 H   0  0  0  0  0  0  0  0  0  0  0  0
    1.5707   -2.6878    0.2784 H   0  0  0  0  0  0  0  0  0  0  0  0
    3.7251   -1.5877    0.7330 H   0  0  0  0  0  0  0  0  0  0  0  0
    2.2730    2.0060   -1.0513 H   0  0  0  0  0  0  0  0  0  0  0  0
    0.1182    0.9098   -1.5134 H   0  0  0  0  0  0  0  0  0  0  0  0
  1  2  2  0  0  0  0
  2  3  1  0  0  0  0
  3  4  2  0  0  0  0
  4  5  1  0  0  0  0
  5  6  2  0  0  0  0
  1  6  1  0  0  0  0
  4  7  1  0  0  0  0
  7  8  2  0  0  0  0
  7  9  2  0  0  0  0
  7 10  1  0  0  0  0
 10 11  1  0  0  0  0
 11 12  2  0  0  0  0
 12 13  1  0  0  0  0
 13 14  2  0  0  0  0
 14 15  1  0  0  0  0
 15 16  2  0  0  0  0
 11 16  1  0  0  0  0
 14 17  1  0  0  0  0
  1 18  1  0  0  0  0
  2 19  1  0  0  0  0
  3 20  1  0  0  0  0
  5 21  1  0  0  0  0
  6 22  1  0  0  0  0
 12 23  1  0  0  0  0
 13 24  1  0  0  0  0
 15 25  1  0  0  0  0
 16 26  1  0  0  0  0
M  END
$$$$
