C10H20O2
APtclcactv06211804383D 0   0.00000     0.00000
 
 32 32  0  0  0  0  0  0  0  0999 V2000
    3.6168    0.0211   -0.5352 C   0  0  0  0  0  0  0  0  0  0  0  0
    2.1755    0.0120   -0.0218 C   0  0  0  0  0  0  0  0  0  0  0  0
    1.4481    1.2617   -0.5218 C   0  0  0  0  0  0  0  0  0  0  0  0
    0.0068    1.2526   -0.0084 C   0  0  0  0  0  0  0  0  0  0  0  0
   -0.7107    0.0038   -0.5249 C   0  0  0  0  0  0  0  0  0  0  0  0
    0.0168   -1.2458   -0.0248 C   0  0  0  0  0  0  0  0  0  0  0  0
    1.4580   -1.2367   -0.5383 C   0  0  0  0  0  0  0  0  0  0  0  0
   -2.1519   -0.0053   -0.0114 C   0  0  0  0  0  0  0  0  0  0  0  0
   -2.8317   -1.3127   -0.4231 C   0  0  0  0  0  0  0  0  0  0  0  0
   -2.1506    0.1104    1.5142 C   0  0  0  0  0  0  0  0  0  0  0  0
   -2.8644    1.0992   -0.5722 O   0  0  0  0  0  0  0  0  0  0  0  0
    2.1790    0.0026    1.4072 O   0  0  0  0  0  0  0  0  0  0  0  0
    4.1279    0.9107   -0.1673 H   0  0  0  0  0  0  0  0  0  0  0  0
    4.1350   -0.8692   -0.1790 H   0  0  0  0  0  0  0  0  0  0  0  0
    3.6141    0.0283   -1.6252 H   0  0  0  0  0  0  0  0  0  0  0  0
    1.9592    2.1513   -0.1539 H   0  0  0  0  0  0  0  0  0  0  0  0
    1.4454    1.2688   -1.6118 H   0  0  0  0  0  0  0  0  0  0  0  0
    0.0095    1.2454    1.0816 H   0  0  0  0  0  0  0  0  0  0  0  0
   -0.5114    2.1428   -0.3646 H   0  0  0  0  0  0  0  0  0  0  0  0
   -0.7133    0.0110   -1.6148 H   0  0  0  0  0  0  0  0  0  0  0  0
    0.0194   -1.2530    1.0652 H   0  0  0  0  0  0  0  0  0  0  0  0
   -0.4944   -2.1355   -0.3928 H   0  0  0  0  0  0  0  0  0  0  0  0
    1.4554   -1.2296   -1.6282 H   0  0  0  0  0  0  0  0  0  0  0  0
    1.9763   -2.1270   -0.1820 H   0  0  0  0  0  0  0  0  0  0  0  0
   -2.2883   -2.1552    0.0047 H   0  0  0  0  0  0  0  0  0  0  0  0
   -3.8585   -1.3192   -0.0573 H   0  0  0  0  0  0  0  0  0  0  0  0
   -2.8327   -1.3951   -1.5100 H   0  0  0  0  0  0  0  0  0  0  0  0
   -1.6663    1.0418    1.8075 H   0  0  0  0  0  0  0  0  0  0  0  0
   -3.1773    0.1039    1.8800 H   0  0  0  0  0  0  0  0  0  0  0  0
   -1.6071   -0.7321    1.9420 H   0  0  0  0  0  0  0  0  0  0  0  0
   -3.7874    1.1562   -0.2896 H   0  0  0  0  0  0  0  0  0  0  0  0
    2.6247   -0.7632    1.7944 H   0  0  0  0  0  0  0  0  0  0  0  0
  1  2  1  0  0  0  0
  2  3  1  0  0  0  0
  3  4  1  0  0  0  0
  4  5  1  0  0  0  0
  5  6  1  0  0  0  0
  6  7  1  0  0  0  0
  2  7  1  0  0  0  0
  5  8  1  0  0  0  0
  8  9  1  0  0  0  0
  8 10  1  0  0  0  0
  8 11  1  0  0  0  0
  2 12  1  0  0  0  0
  1 13  1  0  0  0  0
  1 14  1  0  0  0  0
  1 15  1  0  0  0  0
  3 16  1  0  0  0  0
  3 17  1  0  0  0  0
  4 18  1  0  0  0  0
  4 19  1  0  0  0  0
  5 20  1  0  0  0  0
  6 21  1  0  0  0  0
  6 22  1  0  0  0  0
  7 23  1  0  0  0  0
  7 24  1  0  0  0  0
  9 25  1  0  0  0  0
  9 26  1  0  0  0  0
  9 27  1  0  0  0  0
 10 28  1  0  0  0  0
 10 29  1  0  0  0  0
 10 30  1  0  0  0  0
 11 31  1  0  0  0  0
 12 32  1  0  0  0  0
M  END
$$$$
