C7H6O5
APtclcactv06211806243D 0   0.00000     0.00000
 
 18 18  0  0  0  0  0  0  0  0999 V2000
   -1.5651    1.2051    0.0307 C   0  0  0  0  0  0  0  0  0  0  0  0
   -2.2554   -0.0000    0.0445 C   0  0  0  0  0  0  0  0  0  0  0  0
   -1.5651   -1.2051    0.0303 C   0  0  0  0  0  0  0  0  0  0  0  0
   -0.1827   -1.2143    0.0018 C   0  0  0  0  0  0  0  0  0  0  0  0
    0.5234   -0.0000   -0.0128 C   0  0  0  0  0  0  0  0  0  0  0  0
   -0.1827    1.2142    0.0021 C   0  0  0  0  0  0  0  0  0  0  0  0
    0.4896    2.3923   -0.0118 O   0  0  0  0  0  0  0  0  0  0  0  0
    1.9916   -0.0000   -0.0426 C   0  0  0  0  0  0  0  0  0  0  0  0
    2.5780   -0.0003   -1.1076 O   0  0  0  0  0  0  0  0  0  0  0  0
    2.6893    0.0003    1.1111 O   0  0  0  0  0  0  0  0  0  0  0  0
    0.4896   -2.3923   -0.0115 O   0  0  0  0  0  0  0  0  0  0  0  0
   -3.6122   -0.0000    0.0725 O   0  0  0  0  0  0  0  0  0  0  0  0
   -2.1097    2.1377    0.0377 H   0  0  0  0  0  0  0  0  0  0  0  0
   -2.1096   -2.1377    0.0420 H   0  0  0  0  0  0  0  0  0  0  0  0
    0.6660    2.7340   -0.8990 H   0  0  0  0  0  0  0  0  0  0  0  0
    3.6537    0.0003    1.0409 H   0  0  0  0  0  0  0  0  0  0  0  0
    0.6663   -2.7343   -0.8986 H   0  0  0  0  0  0  0  0  0  0  0  0
   -4.0236    0.0003   -0.8026 H   0  0  0  0  0  0  0  0  0  0  0  0
  1  2  2  0  0  0  0
  2  3  1  0  0  0  0
  3  4  2  0  0  0  0
  4  5  1  0  0  0  0
  5  6  2  0  0  0  0
  1  6  1  0  0  0  0
  6  7  1  0  0  0  0
  5  8  1  0  0  0  0
  8  9  2  0  0  0  0
  8 10  1  0  0  0  0
  4 11  1  0  0  0  0
  2 12  1  0  0  0  0
  1 13  1  0  0  0  0
  3 14  1  0  0  0  0
  7 15  1  0  0  0  0
 10 16  1  0  0  0  0
 11 17  1  0  0  0  0
 12 18  1  0  0  0  0
M  END
$$$$
