C15H14O4
APtclcactv06211806243D 0   0.00000     0.00000
 
 33 35  0  0  0  0  0  0  0  0999 V2000
    3.2582   -1.1699   -1.5738 C   0  0  0  0  0  0  0  0  0  0  0  0
    3.3585   -0.7481   -0.1065 C   0  0  0  0  0  0  0  0  0  0  0  0
    3.3765    0.7552   -0.0221 C   0  0  0  0  0  0  0  0  0  0  0  0
    2.2322    1.4306    0.0676 C   0  0  0  0  0  0  0  0  0  0  0  0
    0.9707    0.6603    0.0939 C   0  0  0  0  0  0  0  0  0  0  0  0
    1.0320   -0.7162    0.3774 C   0  0  0  0  0  0  0  0  0  0  0  0
    2.2449   -1.2784    0.6130 O   0  0  0  0  0  0  0  0  0  0  0  0
   -0.1230   -1.4724    0.4129 C   0  0  0  0  0  0  0  0  0  0  0  0
   -1.3562   -0.8803    0.1673 C   0  0  0  0  0  0  0  0  0  0  0  0
   -1.4259    0.4961   -0.1190 C   0  0  0  0  0  0  0  0  0  0  0  0
   -0.2531    1.2703   -0.1551 C   0  0  0  0  0  0  0  0  0  0  0  0
   -0.3150    2.5969   -0.4300 O   0  0  0  0  0  0  0  0  0  0  0  0
   -0.4723    3.4829    0.6802 C   0  0  0  0  0  0  0  0  0  0  0  0
   -2.6879    1.0953   -0.3700 C   0  0  0  0  0  0  0  0  0  0  0  0
   -3.7957    0.3094   -0.3234 C   0  0  0  0  0  0  0  0  0  0  0  0
   -3.6657   -1.0613   -0.0312 C   0  0  0  0  0  0  0  0  0  0  0  0
   -4.6677   -1.7528    0.0070 O   0  0  0  0  0  0  0  0  0  0  0  0
   -2.4773   -1.6304    0.2050 O   0  0  0  0  0  0  0  0  0  0  0  0
    4.6538   -1.3024    0.4902 C   0  0  0  0  0  0  0  0  0  0  0  0
    4.1171   -0.7834   -2.1224 H   0  0  0  0  0  0  0  0  0  0  0  0
    3.2449   -2.2578   -1.6390 H   0  0  0  0  0  0  0  0  0  0  0  0
    2.3411   -0.7687   -2.0052 H   0  0  0  0  0  0  0  0  0  0  0  0
    4.3173    1.2857   -0.0340 H   0  0  0  0  0  0  0  0  0  0  0  0
    2.2260    2.5093    0.1200 H   0  0  0  0  0  0  0  0  0  0  0  0
   -0.0677   -2.5285    0.6320 H   0  0  0  0  0  0  0  0  0  0  0  0
   -0.5073    4.5117    0.3218 H   0  0  0  0  0  0  0  0  0  0  0  0
   -1.3994    3.2486    1.2034 H   0  0  0  0  0  0  0  0  0  0  0  0
    0.3698    3.3640    1.3620 H   0  0  0  0  0  0  0  0  0  0  0  0
   -2.7659    2.1493   -0.5921 H   0  0  0  0  0  0  0  0  0  0  0  0
   -4.7710    0.7346   -0.5092 H   0  0  0  0  0  0  0  0  0  0  0  0
    5.5064   -0.9079   -0.0625 H   0  0  0  0  0  0  0  0  0  0  0  0
    4.7290   -1.0040    1.5359 H   0  0  0  0  0  0  0  0  0  0  0  0
    4.6487   -2.3903    0.4223 H   0  0  0  0  0  0  0  0  0  0  0  0
  1  2  1  0  0  0  0
  2  3  1  0  0  0  0
  3  4  2  0  0  0  0
  4  5  1  0  0  0  0
  5  6  2  0  0  0  0
  6  7  1  0  0  0  0
  2  7  1  0  0  0  0
  6  8  1  0  0  0  0
  8  9  2  0  0  0  0
  9 10  1  0  0  0  0
 10 11  2  0  0  0  0
  5 11  1  0  0  0  0
 11 12  1  0  0  0  0
 12 13  1  0  0  0  0
 10 14  1  0  0  0  0
 14 15  2  0  0  0  0
 15 16  1  0  0  0  0
 16 17  2  0  0  0  0
 16 18  1  0  0  0  0
  9 18  1  0  0  0  0
  2 19  1  0  0  0  0
  1 20  1  0  0  0  0
  1 21  1  0  0  0  0
  1 22  1  0  0  0  0
  3 23  1  0  0  0  0
  4 24  1  0  0  0  0
  8 25  1  0  0  0  0
 13 26  1  0  0  0  0
 13 27  1  0  0  0  0
 13 28  1  0  0  0  0
 14 29  1  0  0  0  0
 15 30  1  0  0  0  0
 19 31  1  0  0  0  0
 19 32  1  0  0  0  0
 19 33  1  0  0  0  0
M  END
$$$$
