C6H8O2
APtclcactv06211804383D 0   0.00000     0.00000
 
 16 16  0  0  0  0  0  0  0  0999 V2000
    2.5522    0.1294    0.0008 C   0  0  0  0  0  0  0  0  0  0  0  0
    1.0948   -0.2538    0.0014 C   0  0  0  0  0  0  0  0  0  0  0  0
    0.0849    0.6095    0.0004 C   0  0  0  0  0  0  0  0  0  0  0  0
   -1.2148   -0.0626    0.0008 C   0  0  0  0  0  0  0  0  0  0  0  0
   -2.3014    0.4767   -0.0006 O   0  0  0  0  0  0  0  0  0  0  0  0
   -0.9556   -1.5539    0.0022 C   0  0  0  0  0  0  0  0  0  0  0  0
    0.5787   -1.6707   -0.0034 C   0  0  0  0  0  0  0  0  0  0  0  0
    0.2409    1.9606   -0.0009 O   0  0  0  0  0  0  0  0  0  0  0  0
    2.6423    1.2156   -0.0001 H   0  0  0  0  0  0  0  0  0  0  0  0
    3.0344   -0.2745    0.8910 H   0  0  0  0  0  0  0  0  0  0  0  0
    3.0341   -0.2759   -0.8889 H   0  0  0  0  0  0  0  0  0  0  0  0
   -1.3732   -2.0128    0.8984 H   0  0  0  0  0  0  0  0  0  0  0  0
   -1.3729   -2.0145   -0.8932 H   0  0  0  0  0  0  0  0  0  0  0  0
    0.9130   -2.1960   -0.8980 H   0  0  0  0  0  0  0  0  0  0  0  0
    0.9198   -2.1931    0.8904 H   0  0  0  0  0  0  0  0  0  0  0  0
   -0.5915    2.4527   -0.0015 H   0  0  0  0  0  0  0  0  0  0  0  0
  1  2  1  0  0  0  0
  2  3  2  0  0  0  0
  3  4  1  0  0  0  0
  4  5  2  0  0  0  0
  4  6  1  0  0  0  0
  6  7  1  0  0  0  0
  2  7  1  0  0  0  0
  3  8  1  0  0  0  0
  1  9  1  0  0  0  0
  1 10  1  0  0  0  0
  1 11  1  0  0  0  0
  6 12  1  0  0  0  0
  6 13  1  0  0  0  0
  7 14  1  0  0  0  0
  7 15  1  0  0  0  0
  8 16  1  0  0  0  0
M  END
$$$$
