C27H48O
APtclcactv06211804383D 0   0.00000     0.00000
 
 76 79  0  0  0  0  0  0  0  0999 V2000
   -4.8930    3.3621    1.1637 C   0  0  0  0  0  0  0  0  0  0  0  0
   -4.8598    2.9606   -0.3123 C   0  0  0  0  0  0  0  0  0  0  0  0
   -4.6509    4.2067   -1.1752 C   0  0  0  0  0  0  0  0  0  0  0  0
   -3.7105    1.9786   -0.5480 C   0  0  0  0  0  0  0  0  0  0  0  0
   -3.9821    0.6823    0.2180 C   0  0  0  0  0  0  0  0  0  0  0  0
   -2.8328   -0.2998   -0.0177 C   0  0  0  0  0  0  0  0  0  0  0  0
   -3.1044   -1.5961    0.7483 C   0  0  0  0  0  0  0  0  0  0  0  0
   -4.4964   -2.1192    0.3882 C   0  0  0  0  0  0  0  0  0  0  0  0
   -2.0581   -2.6367    0.3722 C   0  0  0  0  0  0  0  0  0  0  0  0
   -2.1043   -2.9212   -1.1537 C   0  0  0  0  0  0  0  0  0  0  0  0
   -0.7804   -2.3561   -1.7454 C   0  0  0  0  0  0  0  0  0  0  0  0
   -0.3729   -1.3299   -0.6773 C   0  0  0  0  0  0  0  0  0  0  0  0
   -0.6238   -2.1319    0.6172 C   0  0  0  0  0  0  0  0  0  0  0  0
   -0.3977   -1.2576    1.8185 C   0  0  0  0  0  0  0  0  0  0  0  0
    0.9748   -0.5692    1.7688 C   0  0  0  0  0  0  0  0  0  0  0  0
    1.7894   -0.9157    0.5401 C   0  0  0  0  0  0  0  0  0  0  0  0
    1.0034   -0.7500   -0.7557 C   0  0  0  0  0  0  0  0  0  0  0  0
    1.8265   -1.2985   -1.9209 C   0  0  0  0  0  0  0  0  0  0  0  0
    3.1344   -0.5043   -2.0216 C   0  0  0  0  0  0  0  0  0  0  0  0
    3.1803    0.5584   -0.9277 C   0  0  0  0  0  0  0  0  0  0  0  0
    3.0691   -0.0678    0.4592 C   0  0  0  0  0  0  0  0  0  0  0  0
    3.0465    1.0389    1.5114 C   0  0  0  0  0  0  0  0  0  0  0  0
    4.3146    1.8879    1.4174 C   0  0  0  0  0  0  0  0  0  0  0  0
    4.4599    2.4841    0.0188 C   0  0  0  0  0  0  0  0  0  0  0  0
    4.4662    1.3780   -1.0369 C   0  0  0  0  0  0  0  0  0  0  0  0
    3.3787    3.3838   -0.2348 O   0  0  0  0  0  0  0  0  0  0  0  0
    4.2568   -0.9988    0.7262 C   0  0  0  0  0  0  0  0  0  0  0  0
    0.2406   -3.3977    0.7016 C   0  0  0  0  0  0  0  0  0  0  0  0
   -3.9490    3.8362    1.4326 H   0  0  0  0  0  0  0  0  0  0  0  0
   -5.7117    4.0617    1.3316 H   0  0  0  0  0  0  0  0  0  0  0  0
   -5.0418    2.4743    1.7784 H   0  0  0  0  0  0  0  0  0  0  0  0
   -5.8037    2.4865   -0.5812 H   0  0  0  0  0  0  0  0  0  0  0  0
   -3.7070    4.6808   -0.9063 H   0  0  0  0  0  0  0  0  0  0  0  0
   -4.6273    3.9207   -2.2267 H   0  0  0  0  0  0  0  0  0  0  0  0
   -5.4697    4.9064   -1.0072 H   0  0  0  0  0  0  0  0  0  0  0  0
   -3.6309    1.7613   -1.6132 H   0  0  0  0  0  0  0  0  0  0  0  0
   -2.7778    2.4197   -0.1965 H   0  0  0  0  0  0  0  0  0  0  0  0
   -4.0617    0.8995    1.2832 H   0  0  0  0  0  0  0  0  0  0  0  0
   -4.9148    0.2412   -0.1335 H   0  0  0  0  0  0  0  0  0  0  0  0
   -2.7532   -0.5171   -1.0829 H   0  0  0  0  0  0  0  0  0  0  0  0
   -1.9001    0.1413    0.3338 H   0  0  0  0  0  0  0  0  0  0  0  0
   -3.0552   -1.4021    1.8198 H   0  0  0  0  0  0  0  0  0  0  0  0
   -4.5797   -2.2149   -0.6944 H   0  0  0  0  0  0  0  0  0  0  0  0
   -4.6496   -3.0936    0.8520 H   0  0  0  0  0  0  0  0  0  0  0  0
   -5.2516   -1.4216    0.7504 H   0  0  0  0  0  0  0  0  0  0  0  0
   -2.2155   -3.5607    0.9279 H   0  0  0  0  0  0  0  0  0  0  0  0
   -2.1640   -3.9933   -1.3305 H   0  0  0  0  0  0  0  0  0  0  0  0
   -2.9573   -2.4133   -1.6002 H   0  0  0  0  0  0  0  0  0  0  0  0
   -0.0383   -3.1313   -1.8791 H   0  0  0  0  0  0  0  0  0  0  0  0
   -0.9814   -1.8517   -2.6944 H   0  0  0  0  0  0  0  0  0  0  0  0
   -1.0998   -0.4928   -0.7277 H   0  0  0  0  0  0  0  0  0  0  0  0
   -1.1650   -0.4770    1.8937 H   0  0  0  0  0  0  0  0  0  0  0  0
   -0.4601   -1.8663    2.7332 H   0  0  0  0  0  0  0  0  0  0  0  0
    0.8145    0.5172    1.8084 H   0  0  0  0  0  0  0  0  0  0  0  0
    1.5398   -0.8465    2.6695 H   0  0  0  0  0  0  0  0  0  0  0  0
    2.1581   -1.9451    0.6174 H   0  0  0  0  0  0  0  0  0  0  0  0
    0.8787    0.3386   -0.9348 H   0  0  0  0  0  0  0  0  0  0  0  0
    2.0520   -2.3501   -1.7469 H   0  0  0  0  0  0  0  0  0  0  0  0
    1.2642   -1.1919   -2.8482 H   0  0  0  0  0  0  0  0  0  0  0  0
    3.9831   -1.1784   -1.9400 H   0  0  0  0  0  0  0  0  0  0  0  0
    3.1729   -0.0121   -2.9992 H   0  0  0  0  0  0  0  0  0  0  0  0
    2.3374    1.2479   -1.0742 H   0  0  0  0  0  0  0  0  0  0  0  0
    2.1765    1.6784    1.3500 H   0  0  0  0  0  0  0  0  0  0  0  0
    2.9860    0.5951    2.5069 H   0  0  0  0  0  0  0  0  0  0  0  0
    4.2416    2.7078    2.1427 H   0  0  0  0  0  0  0  0  0  0  0  0
    5.1925    1.2961    1.6635 H   0  0  0  0  0  0  0  0  0  0  0  0
    5.4018    3.0370   -0.0383 H   0  0  0  0  0  0  0  0  0  0  0  0
    5.3409    0.7472   -0.9145 H   0  0  0  0  0  0  0  0  0  0  0  0
    4.5070    1.8388   -2.0306 H   0  0  0  0  0  0  0  0  0  0  0  0
    3.3292    4.1240    0.3854 H   0  0  0  0  0  0  0  0  0  0  0  0
    5.1847   -0.4297    0.6687 H   0  0  0  0  0  0  0  0  0  0  0  0
    4.1596   -1.4359    1.7201 H   0  0  0  0  0  0  0  0  0  0  0  0
    4.2708   -1.7931   -0.0201 H   0  0  0  0  0  0  0  0  0  0  0  0
    1.2725   -3.1503    0.4526 H   0  0  0  0  0  0  0  0  0  0  0  0
    0.1975   -3.8002    1.7137 H   0  0  0  0  0  0  0  0  0  0  0  0
   -0.1346   -4.1414   -0.0014 H   0  0  0  0  0  0  0  0  0  0  0  0
  1  2  1  0  0  0  0
  2  3  1  0  0  0  0
  2  4  1  0  0  0  0
  4  5  1  0  0  0  0
  5  6  1  0  0  0  0
  6  7  1  0  0  0  0
  7  8  1  0  0  0  0
  7  9  1  0  0  0  0
  9 10  1  0  0  0  0
 10 11  1  0  0  0  0
 11 12  1  0  0  0  0
 12 13  1  0  0  0  0
  9 13  1  0  0  0  0
 13 14  1  0  0  0  0
 14 15  1  0  0  0  0
 15 16  1  0  0  0  0
 16 17  1  0  0  0  0
 12 17  1  0  0  0  0
 17 18  1  0  0  0  0
 18 19  1  0  0  0  0
 19 20  1  0  0  0  0
 20 21  1  0  0  0  0
 16 21  1  0  0  0  0
 21 22  1  0  0  0  0
 22 23  1  0  0  0  0
 23 24  1  0  0  0  0
 24 25  1  0  0  0  0
 20 25  1  0  0  0  0
 24 26  1  0  0  0  0
 21 27  1  0  0  0  0
 13 28  1  0  0  0  0
  1 29  1  0  0  0  0
  1 30  1  0  0  0  0
  1 31  1  0  0  0  0
  2 32  1  0  0  0  0
  3 33  1  0  0  0  0
  3 34  1  0  0  0  0
  3 35  1  0  0  0  0
  4 36  1  0  0  0  0
  4 37  1  0  0  0  0
  5 38  1  0  0  0  0
  5 39  1  0  0  0  0
  6 40  1  0  0  0  0
  6 41  1  0  0  0  0
  7 42  1  0  0  0  0
  8 43  1  0  0  0  0
  8 44  1  0  0  0  0
  8 45  1  0  0  0  0
  9 46  1  0  0  0  0
 10 47  1  0  0  0  0
 10 48  1  0  0  0  0
 11 49  1  0  0  0  0
 11 50  1  0  0  0  0
 12 51  1  0  0  0  0
 14 52  1  0  0  0  0
 14 53  1  0  0  0  0
 15 54  1  0  0  0  0
 15 55  1  0  0  0  0
 16 56  1  0  0  0  0
 17 57  1  0  0  0  0
 18 58  1  0  0  0  0
 18 59  1  0  0  0  0
 19 60  1  0  0  0  0
 19 61  1  0  0  0  0
 20 62  1  0  0  0  0
 22 63  1  0  0  0  0
 22 64  1  0  0  0  0
 23 65  1  0  0  0  0
 23 66  1  0  0  0  0
 24 67  1  0  0  0  0
 25 68  1  0  0  0  0
 25 69  1  0  0  0  0
 26 70  1  0  0  0  0
 27 71  1  0  0  0  0
 27 72  1  0  0  0  0
 27 73  1  0  0  0  0
 28 74  1  0  0  0  0
 28 75  1  0  0  0  0
 28 76  1  0  0  0  0
M  END
$$$$
