C16H12O5
APtclcactv06291802543D 0   0.00000     0.00000
 
 33 35  0  0  0  0  0  0  0  0999 V2000
    6.1180    1.0877   -0.2854 C   0  0  0  0  0  0  0  0  0  0  0  0
    5.2676   -0.0606   -0.2984 O   0  0  0  0  0  0  0  0  0  0  0  0
    3.9393    0.1533   -0.1098 C   0  0  0  0  0  0  0  0  0  0  0  0
    3.0631   -0.9225   -0.1120 C   0  0  0  0  0  0  0  0  0  0  0  0
    1.7004   -0.7053    0.0814 C   0  0  0  0  0  0  0  0  0  0  0  0
    1.2420    0.6102    0.2680 C   0  0  0  0  0  0  0  0  0  0  0  0
    2.1368    1.6800    0.2716 C   0  0  0  0  0  0  0  0  0  0  0  0
    3.4714    1.4491    0.0896 C   0  0  0  0  0  0  0  0  0  0  0  0
   -0.2074    0.8192    0.4505 C   0  0  0  0  0  0  0  0  0  0  0  0
   -0.6653    1.8812    0.8358 O   0  0  0  0  0  0  0  0  0  0  0  0
   -1.0674   -0.3379    0.1370 C   0  0  0  0  0  0  0  0  0  0  0  0
   -0.4748   -1.5494   -0.0281 C   0  0  0  0  0  0  0  0  0  0  0  0
    0.8384   -1.7400    0.0968 O   0  0  0  0  0  0  0  0  0  0  0  0
   -2.5368   -0.1832    0.0061 C   0  0  0  0  0  0  0  0  0  0  0  0
   -3.3887   -0.8113    0.9131 C   0  0  0  0  0  0  0  0  0  0  0  0
   -4.7547   -0.6651    0.7890 C   0  0  0  0  0  0  0  0  0  0  0  0
   -5.2811    0.1066   -0.2376 C   0  0  0  0  0  0  0  0  0  0  0  0
   -4.4354    0.7330   -1.1427 C   0  0  0  0  0  0  0  0  0  0  0  0
   -3.0684    0.5954   -1.0206 C   0  0  0  0  0  0  0  0  0  0  0  0
   -6.6275    0.2487   -0.3572 O   0  0  0  0  0  0  0  0  0  0  0  0
    3.5328   -2.1853   -0.3029 O   0  0  0  0  0  0  0  0  0  0  0  0
    5.8162    1.7724   -1.0780 H   0  0  0  0  0  0  0  0  0  0  0  0
    6.0362    1.5895    0.6788 H   0  0  0  0  0  0  0  0  0  0  0  0
    7.1503    0.7773   -0.4469 H   0  0  0  0  0  0  0  0  0  0  0  0
    1.7767    2.6870    0.4220 H   0  0  0  0  0  0  0  0  0  0  0  0
    4.1653    2.2767    0.0925 H   0  0  0  0  0  0  0  0  0  0  0  0
   -1.0971   -2.3978   -0.2716 H   0  0  0  0  0  0  0  0  0  0  0  0
   -2.9797   -1.4121    1.7119 H   0  0  0  0  0  0  0  0  0  0  0  0
   -5.4153   -1.1518    1.4913 H   0  0  0  0  0  0  0  0  0  0  0  0
   -4.8481    1.3322   -1.9409 H   0  0  0  0  0  0  0  0  0  0  0  0
   -2.4109    1.0830   -1.7251 H   0  0  0  0  0  0  0  0  0  0  0  0
   -6.9881    1.0028    0.1291 H   0  0  0  0  0  0  0  0  0  0  0  0
    3.7781   -2.6413    0.5137 H   0  0  0  0  0  0  0  0  0  0  0  0
  1  2  1  0  0  0  0
  2  3  1  0  0  0  0
  3  4  2  0  0  0  0
  4  5  1  0  0  0  0
  5  6  2  0  0  0  0
  6  7  1  0  0  0  0
  7  8  2  0  0  0  0
  3  8  1  0  0  0  0
  6  9  1  0  0  0  0
  9 10  2  0  0  0  0
  9 11  1  0  0  0  0
 11 12  2  0  0  0  0
 12 13  1  0  0  0  0
  5 13  1  0  0  0  0
 11 14  1  0  0  0  0
 14 15  2  0  0  0  0
 15 16  1  0  0  0  0
 16 17  2  0  0  0  0
 17 18  1  0  0  0  0
 18 19  2  0  0  0  0
 14 19  1  0  0  0  0
 17 20  1  0  0  0  0
  4 21  1  0  0  0  0
  1 22  1  0  0  0  0
  1 23  1  0  0  0  0
  1 24  1  0  0  0  0
  7 25  1  0  0  0  0
  8 26  1  0  0  0  0
 12 27  1  0  0  0  0
 15 28  1  0  0  0  0
 16 29  1  0  0  0  0
 18 30  1  0  0  0  0
 19 31  1  0  0  0  0
 20 32  1  0  0  0  0
 21 33  1  0  0  0  0
M  END
$$$$
