C15H18O3
APtclcactv06281816273D 0   0.00000     0.00000
 
 36 38  0  0  0  0  0  0  0  0999 V2000
   -3.6786    0.5305    1.5009 C   0  0  0  0  0  0  0  0  0  0  0  0
   -2.8682    0.5088    0.2033 C   0  0  0  0  0  0  0  0  0  0  0  0
   -1.4047    0.8526    0.4747 C   0  0  0  0  0  0  0  0  0  0  0  0
   -0.9406    2.2637    0.1917 C   0  0  0  0  0  0  0  0  0  0  0  0
    0.5594    2.3318    0.5301 C   0  0  0  0  0  0  0  0  0  0  0  0
    1.3696    1.3270   -0.2836 C   0  0  0  0  0  0  0  0  0  0  0  0
    2.7965    1.3149    0.1435 C   0  0  0  0  0  0  0  0  0  0  0  0
    3.4756    0.2188    0.4408 C   0  0  0  0  0  0  0  0  0  0  0  0
    2.8177   -1.0968    0.3676 C   0  0  0  0  0  0  0  0  0  0  0  0
    3.4393   -2.1180    0.5948 O   0  0  0  0  0  0  0  0  0  0  0  0
    1.3900   -1.1466    0.0136 C   0  0  0  0  0  0  0  0  0  0  0  0
    0.7286   -0.0388   -0.2730 C   0  0  0  0  0  0  0  0  0  0  0  0
   -0.7320   -0.0637   -0.5951 C   0  0  0  0  0  0  0  0  0  0  0  0
   -1.4782   -1.2845   -0.4295 O   0  0  0  0  0  0  0  0  0  0  0  0
   -2.7893   -0.9097   -0.3610 C   0  0  0  0  0  0  0  0  0  0  0  0
   -3.7328   -1.5883   -0.6916 O   0  0  0  0  0  0  0  0  0  0  0  0
    0.6757   -2.4731   -0.0230 C   0  0  0  0  0  0  0  0  0  0  0  0
    1.3430    1.8071   -1.7360 C   0  0  0  0  0  0  0  0  0  0  0  0
   -3.6269    1.5247    1.9449 H   0  0  0  0  0  0  0  0  0  0  0  0
   -4.7178    0.2829    1.2844 H   0  0  0  0  0  0  0  0  0  0  0  0
   -3.2685   -0.2004    2.1977 H   0  0  0  0  0  0  0  0  0  0  0  0
   -3.2959    1.1943   -0.5282 H   0  0  0  0  0  0  0  0  0  0  0  0
   -1.1250    0.5561    1.4856 H   0  0  0  0  0  0  0  0  0  0  0  0
   -1.0939    2.4999   -0.8613 H   0  0  0  0  0  0  0  0  0  0  0  0
   -1.4932    2.9673    0.8144 H   0  0  0  0  0  0  0  0  0  0  0  0
    0.9257    3.3367    0.3199 H   0  0  0  0  0  0  0  0  0  0  0  0
    0.6942    2.1208    1.5910 H   0  0  0  0  0  0  0  0  0  0  0  0
    3.3103    2.2622    0.2149 H   0  0  0  0  0  0  0  0  0  0  0  0
    4.5118    0.2889    0.7373 H   0  0  0  0  0  0  0  0  0  0  0  0
   -0.8984    0.3458   -1.5915 H   0  0  0  0  0  0  0  0  0  0  0  0
    1.3734   -3.2687    0.2385 H   0  0  0  0  0  0  0  0  0  0  0  0
   -0.1475   -2.4623    0.6913 H   0  0  0  0  0  0  0  0  0  0  0  0
    0.2847   -2.6476   -1.0254 H   0  0  0  0  0  0  0  0  0  0  0  0
    1.7860    2.8011   -1.7983 H   0  0  0  0  0  0  0  0  0  0  0  0
    1.9124    1.1161   -2.3576 H   0  0  0  0  0  0  0  0  0  0  0  0
    0.3118    1.8463   -2.0870 H   0  0  0  0  0  0  0  0  0  0  0  0
  1  2  1  0  0  0  0
  2  3  1  0  0  0  0
  3  4  1  0  0  0  0
  4  5  1  0  0  0  0
  5  6  1  0  0  0  0
  6  7  1  0  0  0  0
  7  8  2  0  0  0  0
  8  9  1  0  0  0  0
  9 10  2  0  0  0  0
  9 11  1  0  0  0  0
 11 12  2  0  0  0  0
  6 12  1  0  0  0  0
 12 13  1  0  0  0  0
  3 13  1  0  0  0  0
 13 14  1  0  0  0  0
 14 15  1  0  0  0  0
  2 15  1  0  0  0  0
 15 16  2  0  0  0  0
 11 17  1  0  0  0  0
  6 18  1  0  0  0  0
  1 19  1  0  0  0  0
  1 20  1  0  0  0  0
  1 21  1  0  0  0  0
  2 22  1  0  0  0  0
  3 23  1  0  0  0  0
  4 24  1  0  0  0  0
  4 25  1  0  0  0  0
  5 26  1  0  0  0  0
  5 27  1  0  0  0  0
  7 28  1  0  0  0  0
  8 29  1  0  0  0  0
 13 30  1  0  0  0  0
 17 31  1  0  0  0  0
 17 32  1  0  0  0  0
 17 33  1  0  0  0  0
 18 34  1  0  0  0  0
 18 35  1  0  0  0  0
 18 36  1  0  0  0  0
M  END
$$$$
