C10H16
APtclcactv06211806243D 0   0.00000     0.00000
 
 26 26  0  0  0  0  0  0  0  0999 V2000
    2.7658    0.3170   -1.0632 C   0  0  0  0  0  0  0  0  0  0  0  0
    2.0707   -0.4394    0.0707 C   0  0  0  0  0  0  0  0  0  0  0  0
    2.5533    0.1039    1.4171 C   0  0  0  0  0  0  0  0  0  0  0  0
    0.5795   -0.2525   -0.0410 C   0  0  0  0  0  0  0  0  0  0  0  0
   -0.1369   -1.3160   -0.1937 C   0  0  0  0  0  0  0  0  0  0  0  0
   -1.6326   -1.3126   -0.3453 C   0  0  0  0  0  0  0  0  0  0  0  0
   -2.1523    0.0741   -0.0320 C   0  0  0  0  0  0  0  0  0  0  0  0
   -3.2459    0.2563    0.6658 C   0  0  0  0  0  0  0  0  0  0  0  0
   -1.3452    1.2426   -0.5648 C   0  0  0  0  0  0  0  0  0  0  0  0
    0.0595    1.1494    0.0410 C   0  0  0  0  0  0  0  0  0  0  0  0
    3.8443    0.1818   -0.9824 H   0  0  0  0  0  0  0  0  0  0  0  0
    2.4219   -0.0700   -2.0224 H   0  0  0  0  0  0  0  0  0  0  0  0
    2.5263    1.3780   -0.9925 H   0  0  0  0  0  0  0  0  0  0  0  0
    2.3102   -1.5004    0.0001 H   0  0  0  0  0  0  0  0  0  0  0  0
    2.3138    1.1649    1.4878 H   0  0  0  0  0  0  0  0  0  0  0  0
    2.0582   -0.4350    2.2249 H   0  0  0  0  0  0  0  0  0  0  0  0
    3.6319   -0.0313    1.4979 H   0  0  0  0  0  0  0  0  0  0  0  0
    0.3710   -2.2689   -0.2142 H   0  0  0  0  0  0  0  0  0  0  0  0
   -1.8966   -1.5790   -1.3687 H   0  0  0  0  0  0  0  0  0  0  0  0
   -2.0714   -2.0319    0.3462 H   0  0  0  0  0  0  0  0  0  0  0  0
   -3.8003   -0.5948    1.0329 H   0  0  0  0  0  0  0  0  0  0  0  0
   -3.5931    1.2575    0.8741 H   0  0  0  0  0  0  0  0  0  0  0  0
   -1.2870    1.1863   -1.6518 H   0  0  0  0  0  0  0  0  0  0  0  0
   -1.8130    2.1810   -0.2672 H   0  0  0  0  0  0  0  0  0  0  0  0
    0.0219    1.4639    1.0839 H   0  0  0  0  0  0  0  0  0  0  0  0
    0.7313    1.8093   -0.5079 H   0  0  0  0  0  0  0  0  0  0  0  0
  1  2  1  0  0  0  0
  2  3  1  0  0  0  0
  2  4  1  0  0  0  0
  4  5  2  0  0  0  0
  5  6  1  0  0  0  0
  6  7  1  0  0  0  0
  7  8  2  0  0  0  0
  7  9  1  0  0  0  0
  9 10  1  0  0  0  0
  4 10  1  0  0  0  0
  1 11  1  0  0  0  0
  1 12  1  0  0  0  0
  1 13  1  0  0  0  0
  2 14  1  0  0  0  0
  3 15  1  0  0  0  0
  3 16  1  0  0  0  0
  3 17  1  0  0  0  0
  5 18  1  0  0  0  0
  6 19  1  0  0  0  0
  6 20  1  0  0  0  0
  8 21  1  0  0  0  0
  8 22  1  0  0  0  0
  9 23  1  0  0  0  0
  9 24  1  0  0  0  0
 10 25  1  0  0  0  0
 10 26  1  0  0  0  0
M  END
$$$$
