C10H14O2
APtclcactv06291802543D 0   0.00000     0.00000
 
 26 26  0  0  0  0  0  0  0  0999 V2000
    3.4274    0.7460    0.0324 C   0  0  0  0  0  0  0  0  0  0  0  0
    1.9314    0.5649    0.0143 C   0  0  0  0  0  0  0  0  0  0  0  0
    1.1407    1.5977    0.2791 C   0  0  0  0  0  0  0  0  0  0  0  0
   -0.3561    1.5038    0.2920 C   0  0  0  0  0  0  0  0  0  0  0  0
   -0.8411    0.3099   -0.5290 C   0  0  0  0  0  0  0  0  0  0  0  0
   -0.1176   -0.9558   -0.0473 C   0  0  0  0  0  0  0  0  0  0  0  0
    1.3625   -0.7495   -0.3015 C   0  0  0  0  0  0  0  0  0  0  0  0
    2.0534   -1.6433   -0.7441 O   0  0  0  0  0  0  0  0  0  0  0  0
   -0.3534   -1.1490    1.3488 O   0  0  0  0  0  0  0  0  0  0  0  0
   -2.3273    0.1419   -0.3452 C   0  0  0  0  0  0  0  0  0  0  0  0
   -3.1276    0.2139   -1.3798 C   0  0  0  0  0  0  0  0  0  0  0  0
   -2.8930   -0.1089    1.0289 C   0  0  0  0  0  0  0  0  0  0  0  0
    3.6651    1.7806    0.2797 H   0  0  0  0  0  0  0  0  0  0  0  0
    3.8645    0.0841    0.7799 H   0  0  0  0  0  0  0  0  0  0  0  0
    3.8345    0.5044   -0.9495 H   0  0  0  0  0  0  0  0  0  0  0  0
    1.5975    2.5520    0.4960 H   0  0  0  0  0  0  0  0  0  0  0  0
   -0.6983    1.3926    1.3209 H   0  0  0  0  0  0  0  0  0  0  0  0
   -0.7753    2.4190   -0.1261 H   0  0  0  0  0  0  0  0  0  0  0  0
   -0.6193    0.4779   -1.5829 H   0  0  0  0  0  0  0  0  0  0  0  0
   -0.4716   -1.8212   -0.6074 H   0  0  0  0  0  0  0  0  0  0  0  0
    0.0772   -1.9334    1.7155 H   0  0  0  0  0  0  0  0  0  0  0  0
   -2.7222    0.3937   -2.3646 H   0  0  0  0  0  0  0  0  0  0  0  0
   -4.1927    0.0935   -1.2481 H   0  0  0  0  0  0  0  0  0  0  0  0
   -3.1259    0.8434    1.5053 H   0  0  0  0  0  0  0  0  0  0  0  0
   -3.8018   -0.7048    0.9445 H   0  0  0  0  0  0  0  0  0  0  0  0
   -2.1605   -0.6468    1.6308 H   0  0  0  0  0  0  0  0  0  0  0  0
  1  2  1  0  0  0  0
  2  3  2  0  0  0  0
  3  4  1  0  0  0  0
  4  5  1  0  0  0  0
  5  6  1  0  0  0  0
  6  7  1  0  0  0  0
  2  7  1  0  0  0  0
  7  8  2  0  0  0  0
  6  9  1  0  0  0  0
  5 10  1  0  0  0  0
 10 11  2  0  0  0  0
 10 12  1  0  0  0  0
  1 13  1  0  0  0  0
  1 14  1  0  0  0  0
  1 15  1  0  0  0  0
  3 16  1  0  0  0  0
  4 17  1  0  0  0  0
  4 18  1  0  0  0  0
  5 19  1  0  0  0  0
  6 20  1  0  0  0  0
  9 21  1  0  0  0  0
 11 22  1  0  0  0  0
 11 23  1  0  0  0  0
 12 24  1  0  0  0  0
 12 25  1  0  0  0  0
 12 26  1  0  0  0  0
M  END
$$$$
