C17H14O4
APtclcactv06281817233D 0   0.00000     0.00000
 
 35 37  0  0  0  0  0  0  0  0999 V2000
    5.1889    2.1145   -0.1272 C   0  0  0  0  0  0  0  0  0  0  0  0
    4.8524    0.7289   -0.2216 O   0  0  0  0  0  0  0  0  0  0  0  0
    3.5406    0.4033   -0.0954 C   0  0  0  0  0  0  0  0  0  0  0  0
    3.1523   -0.9294   -0.1784 C   0  0  0  0  0  0  0  0  0  0  0  0
    1.8178   -1.2707   -0.0553 C   0  0  0  0  0  0  0  0  0  0  0  0
    0.8665   -0.2647    0.1500 C   0  0  0  0  0  0  0  0  0  0  0  0
    1.2600    1.0826    0.2446 C   0  0  0  0  0  0  0  0  0  0  0  0
    2.6048    1.4024    0.1204 C   0  0  0  0  0  0  0  0  0  0  0  0
    0.3468    2.0478    0.4646 O   0  0  0  0  0  0  0  0  0  0  0  0
   -0.9550    1.8233    0.2864 C   0  0  0  0  0  0  0  0  0  0  0  0
   -1.4858    0.5771    0.1888 C   0  0  0  0  0  0  0  0  0  0  0  0
   -0.5684   -0.5771    0.2662 C   0  0  0  0  0  0  0  0  0  0  0  0
   -0.9730   -1.7173    0.4163 O   0  0  0  0  0  0  0  0  0  0  0  0
   -2.9450    0.3812    0.0103 C   0  0  0  0  0  0  0  0  0  0  0  0
   -3.5731    0.8237   -1.1527 C   0  0  0  0  0  0  0  0  0  0  0  0
   -4.9311    0.6383   -1.3136 C   0  0  0  0  0  0  0  0  0  0  0  0
   -5.6689    0.0150   -0.3233 C   0  0  0  0  0  0  0  0  0  0  0  0
   -5.0509   -0.4262    0.8329 C   0  0  0  0  0  0  0  0  0  0  0  0
   -3.6924   -0.2513    1.0022 C   0  0  0  0  0  0  0  0  0  0  0  0
    1.4339   -2.5699   -0.1332 O   0  0  0  0  0  0  0  0  0  0  0  0
    2.4627   -3.5389   -0.3445 C   0  0  0  0  0  0  0  0  0  0  0  0
    4.6729    2.6680   -0.9118 H   0  0  0  0  0  0  0  0  0  0  0  0
    4.8847    2.4967    0.8472 H   0  0  0  0  0  0  0  0  0  0  0  0
    6.2657    2.2357   -0.2451 H   0  0  0  0  0  0  0  0  0  0  0  0
    3.8934   -1.6983   -0.3395 H   0  0  0  0  0  0  0  0  0  0  0  0
    2.9218    2.4329    0.1846 H   0  0  0  0  0  0  0  0  0  0  0  0
   -1.6188    2.6723    0.2167 H   0  0  0  0  0  0  0  0  0  0  0  0
   -2.9981    1.3111   -1.9262 H   0  0  0  0  0  0  0  0  0  0  0  0
   -5.4188    0.9808   -2.2143 H   0  0  0  0  0  0  0  0  0  0  0  0
   -6.7316   -0.1273   -0.4532 H   0  0  0  0  0  0  0  0  0  0  0  0
   -5.6319   -0.9121    1.6028 H   0  0  0  0  0  0  0  0  0  0  0  0
   -3.2109   -0.5965    1.9052 H   0  0  0  0  0  0  0  0  0  0  0  0
    2.0209   -4.5344   -0.3870 H   0  0  0  0  0  0  0  0  0  0  0  0
    2.9735   -3.3276   -1.2839 H   0  0  0  0  0  0  0  0  0  0  0  0
    3.1784   -3.4937    0.4764 H   0  0  0  0  0  0  0  0  0  0  0  0
  1  2  1  0  0  0  0
  2  3  1  0  0  0  0
  3  4  2  0  0  0  0
  4  5  1  0  0  0  0
  5  6  2  0  0  0  0
  6  7  1  0  0  0  0
  7  8  2  0  0  0  0
  3  8  1  0  0  0  0
  7  9  1  0  0  0  0
  9 10  1  0  0  0  0
 10 11  2  0  0  0  0
 11 12  1  0  0  0  0
  6 12  1  0  0  0  0
 12 13  2  0  0  0  0
 11 14  1  0  0  0  0
 14 15  2  0  0  0  0
 15 16  1  0  0  0  0
 16 17  2  0  0  0  0
 17 18  1  0  0  0  0
 18 19  2  0  0  0  0
 14 19  1  0  0  0  0
  5 20  1  0  0  0  0
 20 21  1  0  0  0  0
  1 22  1  0  0  0  0
  1 23  1  0  0  0  0
  1 24  1  0  0  0  0
  4 25  1  0  0  0  0
  8 26  1  0  0  0  0
 10 27  1  0  0  0  0
 15 28  1  0  0  0  0
 16 29  1  0  0  0  0
 17 30  1  0  0  0  0
 18 31  1  0  0  0  0
 19 32  1  0  0  0  0
 21 33  1  0  0  0  0
 21 34  1  0  0  0  0
 21 35  1  0  0  0  0
M  END
$$$$
