C10H18O
APtclcactv06211804383D 0   0.00000     0.00000
 
 29 28  0  0  0  0  0  0  0  0999 V2000
   -3.0301    1.3720    0.1163 C   0  0  0  0  0  0  0  0  0  0  0  0
   -3.0121   -0.1321    0.0232 C   0  0  0  0  0  0  0  0  0  0  0  0
   -1.9210   -0.7521   -0.3524 C   0  0  0  0  0  0  0  0  0  0  0  0
   -0.6496    0.0266   -0.5722 C   0  0  0  0  0  0  0  0  0  0  0  0
    0.4725   -0.5799    0.2729 C   0  0  0  0  0  0  0  0  0  0  0  0
    1.7633    0.2106    0.0497 C   0  0  0  0  0  0  0  0  0  0  0  0
    1.5461    1.6683    0.4607 C   0  0  0  0  0  0  0  0  0  0  0  0
    2.8684   -0.3867    0.8821 C   0  0  0  0  0  0  0  0  0  0  0  0
    3.9464   -0.8531    0.3019 C   0  0  0  0  0  0  0  0  0  0  0  0
    2.1237    0.1540   -1.3319 O   0  0  0  0  0  0  0  0  0  0  0  0
   -4.2494   -0.9228    0.3622 C   0  0  0  0  0  0  0  0  0  0  0  0
   -2.7201    1.7988   -0.8375 H   0  0  0  0  0  0  0  0  0  0  0  0
   -4.0388    1.7092    0.3546 H   0  0  0  0  0  0  0  0  0  0  0  0
   -2.3443    1.6957    0.8993 H   0  0  0  0  0  0  0  0  0  0  0  0
   -1.9325   -1.8212   -0.5045 H   0  0  0  0  0  0  0  0  0  0  0  0
   -0.3746   -0.0166   -1.6261 H   0  0  0  0  0  0  0  0  0  0  0  0
   -0.8043    1.0650   -0.2794 H   0  0  0  0  0  0  0  0  0  0  0  0
    0.1975   -0.5367    1.3267 H   0  0  0  0  0  0  0  0  0  0  0  0
    0.6272   -1.6184   -0.0200 H   0  0  0  0  0  0  0  0  0  0  0  0
    1.2712    1.7115    1.5146 H   0  0  0  0  0  0  0  0  0  0  0  0
    2.4657    2.2315    0.3017 H   0  0  0  0  0  0  0  0  0  0  0  0
    0.7468    2.1004   -0.1413 H   0  0  0  0  0  0  0  0  0  0  0  0
    2.7717   -0.4303    1.9568 H   0  0  0  0  0  0  0  0  0  0  0  0
    4.7385   -1.2812    0.8985 H   0  0  0  0  0  0  0  0  0  0  0  0
    4.0432   -0.8094   -0.7728 H   0  0  0  0  0  0  0  0  0  0  0  0
    2.2771   -0.7419   -1.6620 H   0  0  0  0  0  0  0  0  0  0  0  0
   -4.8525   -1.0565   -0.5358 H   0  0  0  0  0  0  0  0  0  0  0  0
   -3.9611   -1.8980    0.7547 H   0  0  0  0  0  0  0  0  0  0  0  0
   -4.8293   -0.3860    1.1129 H   0  0  0  0  0  0  0  0  0  0  0  0
  1  2  1  0  0  0  0
  2  3  2  0  0  0  0
  3  4  1  0  0  0  0
  4  5  1  0  0  0  0
  5  6  1  0  0  0  0
  6  7  1  0  0  0  0
  6  8  1  0  0  0  0
  8  9  2  0  0  0  0
  6 10  1  0  0  0  0
  2 11  1  0  0  0  0
  1 12  1  0  0  0  0
  1 13  1  0  0  0  0
  1 14  1  0  0  0  0
  3 15  1  0  0  0  0
  4 16  1  0  0  0  0
  4 17  1  0  0  0  0
  5 18  1  0  0  0  0
  5 19  1  0  0  0  0
  7 20  1  0  0  0  0
  7 21  1  0  0  0  0
  7 22  1  0  0  0  0
  8 23  1  0  0  0  0
  9 24  1  0  0  0  0
  9 25  1  0  0  0  0
 10 26  1  0  0  0  0
 11 27  1  0  0  0  0
 11 28  1  0  0  0  0
 11 29  1  0  0  0  0
M  END
$$$$
