C9H8O
APtclcactv06211804383D 0   0.00000     0.00000
 
 18 19  0  0  0  0  0  0  0  0999 V2000
   -0.9070   -1.8217    0.0000 C   0  0  0  0  0  0  0  0  0  0  0  0
   -2.1365   -0.9030    0.0001 C   0  0  0  0  0  0  0  0  0  0  0  0
   -1.5850    0.5022   -0.0001 C   0  0  0  0  0  0  0  0  0  0  0  0
   -2.2388    1.5234    0.0002 O   0  0  0  0  0  0  0  0  0  0  0  0
   -0.1152    0.4169   -0.0003 C   0  0  0  0  0  0  0  0  0  0  0  0
    0.8480    1.4376   -0.0001 C   0  0  0  0  0  0  0  0  0  0  0  0
    2.1885    1.1212    0.0001 C   0  0  0  0  0  0  0  0  0  0  0  0
    2.5905   -0.2029    0.0002 C   0  0  0  0  0  0  0  0  0  0  0  0
    1.6486   -1.2159    0.0000 C   0  0  0  0  0  0  0  0  0  0  0  0
    0.3002   -0.9148   -0.0002 C   0  0  0  0  0  0  0  0  0  0  0  0
   -0.9061   -2.4459    0.8936 H   0  0  0  0  0  0  0  0  0  0  0  0
   -0.9063   -2.4461   -0.8934 H   0  0  0  0  0  0  0  0  0  0  0  0
   -2.7355   -1.0737   -0.8944 H   0  0  0  0  0  0  0  0  0  0  0  0
   -2.7353   -1.0735    0.8948 H   0  0  0  0  0  0  0  0  0  0  0  0
    0.5378    2.4721   -0.0006 H   0  0  0  0  0  0  0  0  0  0  0  0
    2.9277    1.9086   -0.0001 H   0  0  0  0  0  0  0  0  0  0  0  0
    3.6427   -0.4460    0.0001 H   0  0  0  0  0  0  0  0  0  0  0  0
    1.9689   -2.2473    0.0001 H   0  0  0  0  0  0  0  0  0  0  0  0
  1  2  1  0  0  0  0
  2  3  1  0  0  0  0
  3  4  2  0  0  0  0
  3  5  1  0  0  0  0
  5  6  2  0  0  0  0
  6  7  1  0  0  0  0
  7  8  2  0  0  0  0
  8  9  1  0  0  0  0
  9 10  2  0  0  0  0
  5 10  1  0  0  0  0
  1 10  1  0  0  0  0
  1 11  1  0  0  0  0
  1 12  1  0  0  0  0
  2 13  1  0  0  0  0
  2 14  1  0  0  0  0
  6 15  1  0  0  0  0
  7 16  1  0  0  0  0
  8 17  1  0  0  0  0
  9 18  1  0  0  0  0
M  END
$$$$
