C15H10O2
APtclcactv06211804383D 0   0.00000     0.00000
 
 27 29  0  0  0  0  0  0  0  0999 V2000
    4.7554    0.8871    0.2866 C   0  0  0  0  0  0  0  0  0  0  0  0
    3.3868    0.2684    0.1627 C   0  0  0  0  0  0  0  0  0  0  0  0
    2.2744    1.0817    0.0292 C   0  0  0  0  0  0  0  0  0  0  0  0
    1.0110    0.5115   -0.0849 C   0  0  0  0  0  0  0  0  0  0  0  0
    0.8729   -0.8888   -0.0646 C   0  0  0  0  0  0  0  0  0  0  0  0
    2.0008   -1.6913    0.0697 C   0  0  0  0  0  0  0  0  0  0  0  0
    3.2516   -1.1077    0.1775 C   0  0  0  0  0  0  0  0  0  0  0  0
   -0.4717   -1.4940   -0.1854 C   0  0  0  0  0  0  0  0  0  0  0  0
   -0.5932   -2.6801   -0.4194 O   0  0  0  0  0  0  0  0  0  0  0  0
   -1.6664   -0.6379   -0.0172 C   0  0  0  0  0  0  0  0  0  0  0  0
   -2.9234   -1.2044    0.1620 C   0  0  0  0  0  0  0  0  0  0  0  0
   -4.0307   -0.3874    0.3186 C   0  0  0  0  0  0  0  0  0  0  0  0
   -3.8952    0.9882    0.2977 C   0  0  0  0  0  0  0  0  0  0  0  0
   -2.6504    1.5686    0.1202 C   0  0  0  0  0  0  0  0  0  0  0  0
   -1.5284    0.7627   -0.0379 C   0  0  0  0  0  0  0  0  0  0  0  0
   -0.1899    1.3639   -0.2266 C   0  0  0  0  0  0  0  0  0  0  0  0
   -0.0781    2.5438   -0.4941 O   0  0  0  0  0  0  0  0  0  0  0  0
    4.9813    1.0618    1.3386 H   0  0  0  0  0  0  0  0  0  0  0  0
    5.4989    0.2123   -0.1375 H   0  0  0  0  0  0  0  0  0  0  0  0
    4.7758    1.8348   -0.2515 H   0  0  0  0  0  0  0  0  0  0  0  0
    2.3872    2.1556    0.0141 H   0  0  0  0  0  0  0  0  0  0  0  0
    1.9016   -2.7666    0.0858 H   0  0  0  0  0  0  0  0  0  0  0  0
    4.1271   -1.7314    0.2821 H   0  0  0  0  0  0  0  0  0  0  0  0
   -3.0361   -2.2784    0.1787 H   0  0  0  0  0  0  0  0  0  0  0  0
   -5.0069   -0.8281    0.4576 H   0  0  0  0  0  0  0  0  0  0  0  0
   -4.7663    1.6147    0.4204 H   0  0  0  0  0  0  0  0  0  0  0  0
   -2.5513    2.6439    0.1050 H   0  0  0  0  0  0  0  0  0  0  0  0
  1  2  1  0  0  0  0
  2  3  2  0  0  0  0
  3  4  1  0  0  0  0
  4  5  2  0  0  0  0
  5  6  1  0  0  0  0
  6  7  2  0  0  0  0
  2  7  1  0  0  0  0
  5  8  1  0  0  0  0
  8  9  2  0  0  0  0
  8 10  1  0  0  0  0
 10 11  2  0  0  0  0
 11 12  1  0  0  0  0
 12 13  2  0  0  0  0
 13 14  1  0  0  0  0
 14 15  2  0  0  0  0
 10 15  1  0  0  0  0
 15 16  1  0  0  0  0
  4 16  1  0  0  0  0
 16 17  2  0  0  0  0
  1 18  1  0  0  0  0
  1 19  1  0  0  0  0
  1 20  1  0  0  0  0
  3 21  1  0  0  0  0
  6 22  1  0  0  0  0
  7 23  1  0  0  0  0
 11 24  1  0  0  0  0
 12 25  1  0  0  0  0
 13 26  1  0  0  0  0
 14 27  1  0  0  0  0
M  END
$$$$
