C2H6OS
APtclcactv06211804313D 0   0.00000     0.00000
 
 10  9  0  0  0  0  0  0  0  0999 V2000
    1.4197   -0.8463   -0.1948 C   0  0  0  0  0  0  0  0  0  0  0  0
    0.0000    0.1375    0.3596 S   0  0  0  0  0  0  0  0  0  0  0  0
    0.0000    1.3895   -0.3124 O   0  0  0  0  0  0  0  0  0  0  0  0
   -1.4197   -0.8463   -0.1948 C   0  0  0  0  0  0  0  0  0  0  0  0
    2.3437   -0.3427    0.0890 H   0  0  0  0  0  0  0  0  0  0  0  0
    1.3841   -1.8306    0.2720 H   0  0  0  0  0  0  0  0  0  0  0  0
    1.3841   -0.9568   -1.2786 H   0  0  0  0  0  0  0  0  0  0  0  0
   -1.3841   -1.8306    0.2720 H   0  0  0  0  0  0  0  0  0  0  0  0
   -2.3437   -0.3427    0.0890 H   0  0  0  0  0  0  0  0  0  0  0  0
   -1.3841   -0.9568   -1.2786 H   0  0  0  0  0  0  0  0  0  0  0  0
  1  2  1  0  0  0  0
  2  3  2  0  0  0  0
  2  4  1  0  0  0  0
  1  5  1  0  0  0  0
  1  6  1  0  0  0  0
  1  7  1  0  0  0  0
  4  8  1  0  0  0  0
  4  9  1  0  0  0  0
  4 10  1  0  0  0  0
M  END
$$$$
