C13H18
APtclcactv06211806243D 0   0.00000     0.00000
 
 31 32  0  0  0  0  0  0  0  0999 V2000
    4.0532    0.1373   -0.0368 C   0  0  0  0  0  0  0  0  0  0  0  0
    2.5578   -0.0478   -0.0120 C   0  0  0  0  0  0  0  0  0  0  0  0
    1.7255    1.0502    0.0523 C   0  0  0  0  0  0  0  0  0  0  0  0
    0.3459    0.8898    0.0759 C   0  0  0  0  0  0  0  0  0  0  0  0
   -0.1942   -0.3755    0.0280 C   0  0  0  0  0  0  0  0  0  0  0  0
    0.6457   -1.4801   -0.0345 C   0  0  0  0  0  0  0  0  0  0  0  0
    2.0153   -1.3187   -0.0594 C   0  0  0  0  0  0  0  0  0  0  0  0
   -1.6800   -0.6234    0.0330 C   0  0  0  0  0  0  0  0  0  0  0  0
   -2.4281    0.6089    0.5376 C   0  0  0  0  0  0  0  0  0  0  0  0
   -1.9411    1.8283   -0.2541 C   0  0  0  0  0  0  0  0  0  0  0  0
   -0.5032    2.1310    0.1623 C   0  0  0  0  0  0  0  0  0  0  0  0
   -2.1423   -0.9472   -1.3890 C   0  0  0  0  0  0  0  0  0  0  0  0
   -1.9902   -1.8110    0.9463 C   0  0  0  0  0  0  0  0  0  0  0  0
    4.4361    0.1388    0.9838 H   0  0  0  0  0  0  0  0  0  0  0  0
    4.5112   -0.6789   -0.5954 H   0  0  0  0  0  0  0  0  0  0  0  0
    4.2940    1.0860   -0.5165 H   0  0  0  0  0  0  0  0  0  0  0  0
    2.1500    2.0428    0.0849 H   0  0  0  0  0  0  0  0  0  0  0  0
    0.2228   -2.4733   -0.0675 H   0  0  0  0  0  0  0  0  0  0  0  0
    2.6619   -2.1824   -0.1079 H   0  0  0  0  0  0  0  0  0  0  0  0
   -3.4992    0.4761    0.3850 H   0  0  0  0  0  0  0  0  0  0  0  0
   -2.2231    0.7541    1.5982 H   0  0  0  0  0  0  0  0  0  0  0  0
   -1.9759    1.6106   -1.3216 H   0  0  0  0  0  0  0  0  0  0  0  0
   -2.5756    2.6866   -0.0332 H   0  0  0  0  0  0  0  0  0  0  0  0
   -0.4963    2.5004    1.1878 H   0  0  0  0  0  0  0  0  0  0  0  0
   -0.0914    2.8949   -0.4971 H   0  0  0  0  0  0  0  0  0  0  0  0
   -1.6246   -1.8378   -1.7455 H   0  0  0  0  0  0  0  0  0  0  0  0
   -3.2173   -1.1273   -1.3894 H   0  0  0  0  0  0  0  0  0  0  0  0
   -1.9143   -0.1073   -2.0453 H   0  0  0  0  0  0  0  0  0  0  0  0
   -1.6536   -1.5884    1.9589 H   0  0  0  0  0  0  0  0  0  0  0  0
   -3.0648   -1.9936    0.9525 H   0  0  0  0  0  0  0  0  0  0  0  0
   -1.4733   -2.6973    0.5782 H   0  0  0  0  0  0  0  0  0  0  0  0
  1  2  1  0  0  0  0
  2  3  2  0  0  0  0
  3  4  1  0  0  0  0
  4  5  2  0  0  0  0
  5  6  1  0  0  0  0
  6  7  2  0  0  0  0
  2  7  1  0  0  0  0
  5  8  1  0  0  0  0
  8  9  1  0  0  0  0
  9 10  1  0  0  0  0
 10 11  1  0  0  0  0
  4 11  1  0  0  0  0
  8 12  1  0  0  0  0
  8 13  1  0  0  0  0
  1 14  1  0  0  0  0
  1 15  1  0  0  0  0
  1 16  1  0  0  0  0
  3 17  1  0  0  0  0
  6 18  1  0  0  0  0
  7 19  1  0  0  0  0
  9 20  1  0  0  0  0
  9 21  1  0  0  0  0
 10 22  1  0  0  0  0
 10 23  1  0  0  0  0
 11 24  1  0  0  0  0
 11 25  1  0  0  0  0
 12 26  1  0  0  0  0
 12 27  1  0  0  0  0
 12 28  1  0  0  0  0
 13 29  1  0  0  0  0
 13 30  1  0  0  0  0
 13 31  1  0  0  0  0
M  END
$$$$
