C20H20O7
APtclcactv06211806243D 0   0.00000     0.00000
 
 47 49  0  0  0  0  0  0  0  0999 V2000
    7.7908   -0.1504    0.5620 C   0  0  0  0  0  0  0  0  0  0  0  0
    6.9209    0.6637   -0.2270 O   0  0  0  0  0  0  0  0  0  0  0  0
    5.5936    0.3843   -0.1681 C   0  0  0  0  0  0  0  0  0  0  0  0
    4.6933    1.1383   -0.9112 C   0  0  0  0  0  0  0  0  0  0  0  0
    3.3459    0.8586   -0.8540 C   0  0  0  0  0  0  0  0  0  0  0  0
    2.8846   -0.1856   -0.0476 C   0  0  0  0  0  0  0  0  0  0  0  0
    3.7936   -0.9416    0.6978 C   0  0  0  0  0  0  0  0  0  0  0  0
    5.1398   -0.6584    0.6307 C   0  0  0  0  0  0  0  0  0  0  0  0
    1.4423   -0.4885    0.0172 C   0  0  0  0  0  0  0  0  0  0  0  0
    1.0480   -1.7902    0.0504 C   0  0  0  0  0  0  0  0  0  0  0  0
   -0.3307   -2.1004    0.1130 C   0  0  0  0  0  0  0  0  0  0  0  0
   -0.7195   -3.2569    0.1446 O   0  0  0  0  0  0  0  0  0  0  0  0
   -1.2790   -0.9735    0.1391 C   0  0  0  0  0  0  0  0  0  0  0  0
   -0.7665    0.3348    0.1008 C   0  0  0  0  0  0  0  0  0  0  0  0
    0.5695    0.5306    0.0466 O   0  0  0  0  0  0  0  0  0  0  0  0
   -1.6426    1.4131    0.1244 C   0  0  0  0  0  0  0  0  0  0  0  0
   -3.0120    1.1938    0.1858 C   0  0  0  0  0  0  0  0  0  0  0  0
   -3.5209   -0.1027    0.2239 C   0  0  0  0  0  0  0  0  0  0  0  0
   -2.6606   -1.1886    0.2001 C   0  0  0  0  0  0  0  0  0  0  0  0
   -3.1551   -2.4541    0.2368 O   0  0  0  0  0  0  0  0  0  0  0  0
   -3.3734   -3.1018   -1.0181 C   0  0  0  0  0  0  0  0  0  0  0  0
   -4.8662   -0.3029    0.2841 O   0  0  0  0  0  0  0  0  0  0  0  0
   -5.5816   -0.2795   -0.9528 C   0  0  0  0  0  0  0  0  0  0  0  0
   -3.8637    2.2530    0.2095 O   0  0  0  0  0  0  0  0  0  0  0  0
   -4.2071    2.7808    1.4923 C   0  0  0  0  0  0  0  0  0  0  0  0
   -1.1578    2.6850    0.0877 O   0  0  0  0  0  0  0  0  0  0  0  0
   -0.9670    3.2696   -1.2022 C   0  0  0  0  0  0  0  0  0  0  0  0
    7.5188   -0.0597    1.6136 H   0  0  0  0  0  0  0  0  0  0  0  0
    7.6964   -1.1907    0.2507 H   0  0  0  0  0  0  0  0  0  0  0  0
    8.8208    0.1782    0.4235 H   0  0  0  0  0  0  0  0  0  0  0  0
    5.0506    1.9450   -1.5341 H   0  0  0  0  0  0  0  0  0  0  0  0
    2.6468    1.4455   -1.4313 H   0  0  0  0  0  0  0  0  0  0  0  0
    3.4414   -1.7491    1.3225 H   0  0  0  0  0  0  0  0  0  0  0  0
    5.8430   -1.2421    1.2063 H   0  0  0  0  0  0  0  0  0  0  0  0
    1.7828   -2.5815    0.0287 H   0  0  0  0  0  0  0  0  0  0  0  0
   -4.0072   -2.4748   -1.6453 H   0  0  0  0  0  0  0  0  0  0  0  0
   -2.4168   -3.2634   -1.5149 H   0  0  0  0  0  0  0  0  0  0  0  0
   -3.8629   -4.0614   -0.8514 H   0  0  0  0  0  0  0  0  0  0  0  0
   -5.3776    0.6564   -1.4728 H   0  0  0  0  0  0  0  0  0  0  0  0
   -5.2622   -1.1170   -1.5731 H   0  0  0  0  0  0  0  0  0  0  0  0
   -6.6506   -0.3602   -0.7558 H   0  0  0  0  0  0  0  0  0  0  0  0
   -4.6117    1.9841    2.1166 H   0  0  0  0  0  0  0  0  0  0  0  0
   -3.3167    3.1958    1.9646 H   0  0  0  0  0  0  0  0  0  0  0  0
   -4.9548    3.5651    1.3743 H   0  0  0  0  0  0  0  0  0  0  0  0
   -1.9312    3.3754   -1.6995 H   0  0  0  0  0  0  0  0  0  0  0  0
   -0.5055    4.2509   -1.0918 H   0  0  0  0  0  0  0  0  0  0  0  0
   -0.3186    2.6284   -1.7994 H   0  0  0  0  0  0  0  0  0  0  0  0
  1  2  1  0  0  0  0
  2  3  1  0  0  0  0
  3  4  2  0  0  0  0
  4  5  1  0  0  0  0
  5  6  2  0  0  0  0
  6  7  1  0  0  0  0
  7  8  2  0  0  0  0
  3  8  1  0  0  0  0
  6  9  1  0  0  0  0
  9 10  2  0  0  0  0
 10 11  1  0  0  0  0
 11 12  2  0  0  0  0
 11 13  1  0  0  0  0
 13 14  2  0  0  0  0
 14 15  1  0  0  0  0
  9 15  1  0  0  0  0
 14 16  1  0  0  0  0
 16 17  2  0  0  0  0
 17 18  1  0  0  0  0
 18 19  2  0  0  0  0
 13 19  1  0  0  0  0
 19 20  1  0  0  0  0
 20 21  1  0  0  0  0
 18 22  1  0  0  0  0
 22 23  1  0  0  0  0
 17 24  1  0  0  0  0
 24 25  1  0  0  0  0
 16 26  1  0  0  0  0
 26 27  1  0  0  0  0
  1 28  1  0  0  0  0
  1 29  1  0  0  0  0
  1 30  1  0  0  0  0
  4 31  1  0  0  0  0
  5 32  1  0  0  0  0
  7 33  1  0  0  0  0
  8 34  1  0  0  0  0
 10 35  1  0  0  0  0
 21 36  1  0  0  0  0
 21 37  1  0  0  0  0
 21 38  1  0  0  0  0
 23 39  1  0  0  0  0
 23 40  1  0  0  0  0
 23 41  1  0  0  0  0
 25 42  1  0  0  0  0
 25 43  1  0  0  0  0
 25 44  1  0  0  0  0
 27 45  1  0  0  0  0
 27 46  1  0  0  0  0
 27 47  1  0  0  0  0
M  END
$$$$
