C12H8O4
APtclcactv06211806253D 0   0.00000     0.00000
 
 24 26  0  0  0  0  0  0  0  0999 V2000
    2.2745    3.3442    0.0009 C   0  0  0  0  0  0  0  0  0  0  0  0
    0.9491    2.8098    0.0004 O   0  0  0  0  0  0  0  0  0  0  0  0
    0.8298    1.4574    0.0007 C   0  0  0  0  0  0  0  0  0  0  0  0
   -0.4495    0.8657    0.0002 C   0  0  0  0  0  0  0  0  0  0  0  0
   -1.6184    1.6699    0.0004 C   0  0  0  0  0  0  0  0  0  0  0  0
   -2.8329    1.0622    0.0003 C   0  0  0  0  0  0  0  0  0  0  0  0
   -2.9115   -0.3451   -0.0000 C   0  0  0  0  0  0  0  0  0  0  0  0
   -4.0034   -0.8854   -0.0005 O   0  0  0  0  0  0  0  0  0  0  0  0
   -1.7995   -1.0992   -0.0002 O   0  0  0  0  0  0  0  0  0  0  0  0
   -0.5746   -0.5320   -0.0001 C   0  0  0  0  0  0  0  0  0  0  0  0
    0.5803   -1.3209    0.0002 C   0  0  0  0  0  0  0  0  0  0  0  0
    0.8292   -2.7679    0.0001 C   0  0  0  0  0  0  0  0  0  0  0  0
    2.1605   -2.9170    0.0006 C   0  0  0  0  0  0  0  0  0  0  0  0
    2.7607   -1.7134    0.0009 O   0  0  0  0  0  0  0  0  0  0  0  0
    1.8489   -0.7204    0.0007 C   0  0  0  0  0  0  0  0  0  0  0  0
    1.9592    0.6694   -0.0044 C   0  0  0  0  0  0  0  0  0  0  0  0
    2.8031    3.0037    0.8912 H   0  0  0  0  0  0  0  0  0  0  0  0
    2.8040    3.0033   -0.8887 H   0  0  0  0  0  0  0  0  0  0  0  0
    2.2272    4.4331    0.0007 H   0  0  0  0  0  0  0  0  0  0  0  0
   -1.5436    2.7473    0.0010 H   0  0  0  0  0  0  0  0  0  0  0  0
   -3.7355    1.6552    0.0009 H   0  0  0  0  0  0  0  0  0  0  0  0
    0.0884   -3.5537    0.0001 H   0  0  0  0  0  0  0  0  0  0  0  0
    2.6767   -3.8657    0.0010 H   0  0  0  0  0  0  0  0  0  0  0  0
    2.9358    1.1305   -0.0101 H   0  0  0  0  0  0  0  0  0  0  0  0
  1  2  1  0  0  0  0
  2  3  1  0  0  0  0
  3  4  2  0  0  0  0
  4  5  1  0  0  0  0
  5  6  2  0  0  0  0
  6  7  1  0  0  0  0
  7  8  2  0  0  0  0
  7  9  1  0  0  0  0
  9 10  1  0  0  0  0
  4 10  1  0  0  0  0
 10 11  2  0  0  0  0
 11 12  1  0  0  0  0
 12 13  2  0  0  0  0
 13 14  1  0  0  0  0
 14 15  1  0  0  0  0
 11 15  1  0  0  0  0
 15 16  2  0  0  0  0
  3 16  1  0  0  0  0
  1 17  1  0  0  0  0
  1 18  1  0  0  0  0
  1 19  1  0  0  0  0
  5 20  1  0  0  0  0
  6 21  1  0  0  0  0
 12 22  1  0  0  0  0
 13 23  1  0  0  0  0
 16 24  1  0  0  0  0
M  END
$$$$
