C26H54O
APtclcactv06211806253D 0   0.00000     0.00000
 
 81 80  0  0  0  0  0  0  0  0999 V2000
   16.3203   -0.4170   -0.0000 C   0  0  0  0  0  0  0  0  0  0  0  0
   15.0706    0.4656    0.0000 C   0  0  0  0  0  0  0  0  0  0  0  0
   13.8218   -0.4185   -0.0000 C   0  0  0  0  0  0  0  0  0  0  0  0
   12.5721    0.4642    0.0000 C   0  0  0  0  0  0  0  0  0  0  0  0
   11.3234   -0.4199   -0.0000 C   0  0  0  0  0  0  0  0  0  0  0  0
   10.0736    0.4627    0.0000 C   0  0  0  0  0  0  0  0  0  0  0  0
    8.8249   -0.4213   -0.0000 C   0  0  0  0  0  0  0  0  0  0  0  0
    7.5751    0.4613    0.0000 C   0  0  0  0  0  0  0  0  0  0  0  0
    6.3264   -0.4228   -0.0000 C   0  0  0  0  0  0  0  0  0  0  0  0
    5.0766    0.4598    0.0000 C   0  0  0  0  0  0  0  0  0  0  0  0
    3.8279   -0.4242   -0.0000 C   0  0  0  0  0  0  0  0  0  0  0  0
    2.5782    0.4584    0.0000 C   0  0  0  0  0  0  0  0  0  0  0  0
    1.3294   -0.4257   -0.0000 C   0  0  0  0  0  0  0  0  0  0  0  0
    0.0797    0.4570   -0.0000 C   0  0  0  0  0  0  0  0  0  0  0  0
   -1.1690   -0.4271    0.0000 C   0  0  0  0  0  0  0  0  0  0  0  0
   -2.4188    0.4555   -0.0000 C   0  0  0  0  0  0  0  0  0  0  0  0
   -3.6675   -0.4285    0.0000 C   0  0  0  0  0  0  0  0  0  0  0  0
   -4.9173    0.4541   -0.0000 C   0  0  0  0  0  0  0  0  0  0  0  0
   -6.1660   -0.4300    0.0000 C   0  0  0  0  0  0  0  0  0  0  0  0
   -7.4158    0.4526   -0.0000 C   0  0  0  0  0  0  0  0  0  0  0  0
   -8.6645   -0.4314    0.0000 C   0  0  0  0  0  0  0  0  0  0  0  0
   -9.9142    0.4512   -0.0000 C   0  0  0  0  0  0  0  0  0  0  0  0
  -11.1630   -0.4329    0.0000 C   0  0  0  0  0  0  0  0  0  0  0  0
  -12.4127    0.4498   -0.0000 C   0  0  0  0  0  0  0  0  0  0  0  0
  -13.6614   -0.4343    0.0000 C   0  0  0  0  0  0  0  0  0  0  0  0
  -14.9112    0.4483   -0.0000 C   0  0  0  0  0  0  0  0  0  0  0  0
  -16.0775   -0.3774    0.0000 O   0  0  0  0  0  0  0  0  0  0  0  0
   16.3207   -1.0463    0.8900 H   0  0  0  0  0  0  0  0  0  0  0  0
   16.3207   -1.0463   -0.8900 H   0  0  0  0  0  0  0  0  0  0  0  0
   17.2099    0.2128    0.0000 H   0  0  0  0  0  0  0  0  0  0  0  0
   15.0702    1.0949    0.8900 H   0  0  0  0  0  0  0  0  0  0  0  0
   15.0702    1.0949   -0.8900 H   0  0  0  0  0  0  0  0  0  0  0  0
   13.8222   -1.0478   -0.8900 H   0  0  0  0  0  0  0  0  0  0  0  0
   13.8222   -1.0478    0.8900 H   0  0  0  0  0  0  0  0  0  0  0  0
   12.5717    1.0935    0.8900 H   0  0  0  0  0  0  0  0  0  0  0  0
   12.5717    1.0935   -0.8900 H   0  0  0  0  0  0  0  0  0  0  0  0
   11.3237   -1.0492   -0.8900 H   0  0  0  0  0  0  0  0  0  0  0  0
   11.3237   -1.0492    0.8900 H   0  0  0  0  0  0  0  0  0  0  0  0
   10.0732    1.0920    0.8900 H   0  0  0  0  0  0  0  0  0  0  0  0
   10.0732    1.0920   -0.8900 H   0  0  0  0  0  0  0  0  0  0  0  0
    8.8252   -1.0507   -0.8900 H   0  0  0  0  0  0  0  0  0  0  0  0
    8.8252   -1.0507    0.8900 H   0  0  0  0  0  0  0  0  0  0  0  0
    7.5748    1.0906    0.8900 H   0  0  0  0  0  0  0  0  0  0  0  0
    7.5748    1.0906   -0.8900 H   0  0  0  0  0  0  0  0  0  0  0  0
    6.3268   -1.0521   -0.8900 H   0  0  0  0  0  0  0  0  0  0  0  0
    6.3268   -1.0521    0.8900 H   0  0  0  0  0  0  0  0  0  0  0  0
    5.0763    1.0892    0.8900 H   0  0  0  0  0  0  0  0  0  0  0  0
    5.0763    1.0892   -0.8900 H   0  0  0  0  0  0  0  0  0  0  0  0
    3.8283   -1.0535   -0.8900 H   0  0  0  0  0  0  0  0  0  0  0  0
    3.8283   -1.0535    0.8900 H   0  0  0  0  0  0  0  0  0  0  0  0
    2.5778    1.0877    0.8900 H   0  0  0  0  0  0  0  0  0  0  0  0
    2.5778    1.0877   -0.8900 H   0  0  0  0  0  0  0  0  0  0  0  0
    1.3298   -1.0550   -0.8900 H   0  0  0  0  0  0  0  0  0  0  0  0
    1.3298   -1.0550    0.8900 H   0  0  0  0  0  0  0  0  0  0  0  0
    0.0793    1.0863    0.8900 H   0  0  0  0  0  0  0  0  0  0  0  0
    0.0793    1.0863   -0.8900 H   0  0  0  0  0  0  0  0  0  0  0  0
   -1.1687   -1.0564   -0.8900 H   0  0  0  0  0  0  0  0  0  0  0  0
   -1.1687   -1.0564    0.8900 H   0  0  0  0  0  0  0  0  0  0  0  0
   -2.4192    1.0848    0.8900 H   0  0  0  0  0  0  0  0  0  0  0  0
   -2.4192    1.0848   -0.8900 H   0  0  0  0  0  0  0  0  0  0  0  0
   -3.6672   -1.0579   -0.8900 H   0  0  0  0  0  0  0  0  0  0  0  0
   -3.6672   -1.0579    0.8900 H   0  0  0  0  0  0  0  0  0  0  0  0
   -4.9176    1.0834    0.8900 H   0  0  0  0  0  0  0  0  0  0  0  0
   -4.9176    1.0834   -0.8900 H   0  0  0  0  0  0  0  0  0  0  0  0
   -6.1656   -1.0593   -0.8900 H   0  0  0  0  0  0  0  0  0  0  0  0
   -6.1656   -1.0593    0.8900 H   0  0  0  0  0  0  0  0  0  0  0  0
   -7.4161    1.0819    0.8900 H   0  0  0  0  0  0  0  0  0  0  0  0
   -7.4161    1.0819   -0.8900 H   0  0  0  0  0  0  0  0  0  0  0  0
   -8.6641   -1.0607   -0.8900 H   0  0  0  0  0  0  0  0  0  0  0  0
   -8.6641   -1.0607    0.8900 H   0  0  0  0  0  0  0  0  0  0  0  0
   -9.9146    1.0805    0.8900 H   0  0  0  0  0  0  0  0  0  0  0  0
   -9.9146    1.0805   -0.8900 H   0  0  0  0  0  0  0  0  0  0  0  0
  -11.1626   -1.0622   -0.8900 H   0  0  0  0  0  0  0  0  0  0  0  0
  -11.1626   -1.0622    0.8900 H   0  0  0  0  0  0  0  0  0  0  0  0
  -12.4131    1.0791    0.8900 H   0  0  0  0  0  0  0  0  0  0  0  0
  -12.4131    1.0791   -0.8900 H   0  0  0  0  0  0  0  0  0  0  0  0
  -13.6611   -1.0636   -0.8900 H   0  0  0  0  0  0  0  0  0  0  0  0
  -13.6611   -1.0636    0.8900 H   0  0  0  0  0  0  0  0  0  0  0  0
  -14.9116    1.0776    0.8900 H   0  0  0  0  0  0  0  0  0  0  0  0
  -14.9116    1.0776   -0.8900 H   0  0  0  0  0  0  0  0  0  0  0  0
  -16.9089    0.1163   -0.0000 H   0  0  0  0  0  0  0  0  0  0  0  0
  1  2  1  0  0  0  0
  2  3  1  0  0  0  0
  3  4  1  0  0  0  0
  4  5  1  0  0  0  0
  5  6  1  0  0  0  0
  6  7  1  0  0  0  0
  7  8  1  0  0  0  0
  8  9  1  0  0  0  0
  9 10  1  0  0  0  0
 10 11  1  0  0  0  0
 11 12  1  0  0  0  0
 12 13  1  0  0  0  0
 13 14  1  0  0  0  0
 14 15  1  0  0  0  0
 15 16  1  0  0  0  0
 16 17  1  0  0  0  0
 17 18  1  0  0  0  0
 18 19  1  0  0  0  0
 19 20  1  0  0  0  0
 20 21  1  0  0  0  0
 21 22  1  0  0  0  0
 22 23  1  0  0  0  0
 23 24  1  0  0  0  0
 24 25  1  0  0  0  0
 25 26  1  0  0  0  0
 26 27  1  0  0  0  0
  1 28  1  0  0  0  0
  1 29  1  0  0  0  0
  1 30  1  0  0  0  0
  2 31  1  0  0  0  0
  2 32  1  0  0  0  0
  3 33  1  0  0  0  0
  3 34  1  0  0  0  0
  4 35  1  0  0  0  0
  4 36  1  0  0  0  0
  5 37  1  0  0  0  0
  5 38  1  0  0  0  0
  6 39  1  0  0  0  0
  6 40  1  0  0  0  0
  7 41  1  0  0  0  0
  7 42  1  0  0  0  0
  8 43  1  0  0  0  0
  8 44  1  0  0  0  0
  9 45  1  0  0  0  0
  9 46  1  0  0  0  0
 10 47  1  0  0  0  0
 10 48  1  0  0  0  0
 11 49  1  0  0  0  0
 11 50  1  0  0  0  0
 12 51  1  0  0  0  0
 12 52  1  0  0  0  0
 13 53  1  0  0  0  0
 13 54  1  0  0  0  0
 14 55  1  0  0  0  0
 14 56  1  0  0  0  0
 15 57  1  0  0  0  0
 15 58  1  0  0  0  0
 16 59  1  0  0  0  0
 16 60  1  0  0  0  0
 17 61  1  0  0  0  0
 17 62  1  0  0  0  0
 18 63  1  0  0  0  0
 18 64  1  0  0  0  0
 19 65  1  0  0  0  0
 19 66  1  0  0  0  0
 20 67  1  0  0  0  0
 20 68  1  0  0  0  0
 21 69  1  0  0  0  0
 21 70  1  0  0  0  0
 22 71  1  0  0  0  0
 22 72  1  0  0  0  0
 23 73  1  0  0  0  0
 23 74  1  0  0  0  0
 24 75  1  0  0  0  0
 24 76  1  0  0  0  0
 25 77  1  0  0  0  0
 25 78  1  0  0  0  0
 26 79  1  0  0  0  0
 26 80  1  0  0  0  0
 27 81  1  0  0  0  0
M  END
$$$$
