C13H10O6
APtclcactv06211806253D 0   0.00000     0.00000
 
 29 30  0  0  0  0  0  0  0  0999 V2000
   -1.0959   -0.9383   -0.3231 C   0  0  0  0  0  0  0  0  0  0  0  0
   -2.2534   -1.6701   -0.4739 C   0  0  0  0  0  0  0  0  0  0  0  0
   -3.4894   -1.0683   -0.2787 C   0  0  0  0  0  0  0  0  0  0  0  0
   -3.5646    0.2794    0.0704 C   0  0  0  0  0  0  0  0  0  0  0  0
   -2.4080    1.0188    0.2232 C   0  0  0  0  0  0  0  0  0  0  0  0
   -1.1640    0.4128    0.0270 C   0  0  0  0  0  0  0  0  0  0  0  0
    0.0754    1.1984    0.1895 C   0  0  0  0  0  0  0  0  0  0  0  0
    0.0140    2.3958    0.3978 O   0  0  0  0  0  0  0  0  0  0  0  0
    1.3831    0.5345    0.0996 C   0  0  0  0  0  0  0  0  0  0  0  0
    2.0816    0.5114   -1.1194 C   0  0  0  0  0  0  0  0  0  0  0  0
    3.3117   -0.1151   -1.1949 C   0  0  0  0  0  0  0  0  0  0  0  0
    3.8574   -0.7207   -0.0701 C   0  0  0  0  0  0  0  0  0  0  0  0
    3.1737   -0.7026    1.1391 C   0  0  0  0  0  0  0  0  0  0  0  0
    1.9450   -0.0760    1.2337 C   0  0  0  0  0  0  0  0  0  0  0  0
    1.2793   -0.0590    2.4156 O   0  0  0  0  0  0  0  0  0  0  0  0
    5.0651   -1.3339   -0.1531 O   0  0  0  0  0  0  0  0  0  0  0  0
    1.5502    1.1017   -2.2192 O   0  0  0  0  0  0  0  0  0  0  0  0
   -4.7768    0.8661    0.2601 O   0  0  0  0  0  0  0  0  0  0  0  0
   -4.6275   -1.7939   -0.4285 O   0  0  0  0  0  0  0  0  0  0  0  0
   -0.1357   -1.4100   -0.4712 H   0  0  0  0  0  0  0  0  0  0  0  0
   -2.1993   -2.7142   -0.7449 H   0  0  0  0  0  0  0  0  0  0  0  0
   -2.4648    2.0630    0.4932 H   0  0  0  0  0  0  0  0  0  0  0  0
    3.8497   -0.1341   -2.1311 H   0  0  0  0  0  0  0  0  0  0  0  0
    3.6052   -1.1758    2.0087 H   0  0  0  0  0  0  0  0  0  0  0  0
    1.4305    0.7387    2.9408 H   0  0  0  0  0  0  0  0  0  0  0  0
    5.8148   -0.7534    0.0372 H   0  0  0  0  0  0  0  0  0  0  0  0
    1.7953    2.0313   -2.3237 H   0  0  0  0  0  0  0  0  0  0  0  0
   -5.1001    0.8158    1.1701 H   0  0  0  0  0  0  0  0  0  0  0  0
   -4.9292   -2.2243    0.3832 H   0  0  0  0  0  0  0  0  0  0  0  0
  1  2  2  0  0  0  0
  2  3  1  0  0  0  0
  3  4  2  0  0  0  0
  4  5  1  0  0  0  0
  5  6  2  0  0  0  0
  1  6  1  0  0  0  0
  6  7  1  0  0  0  0
  7  8  2  0  0  0  0
  7  9  1  0  0  0  0
  9 10  2  0  0  0  0
 10 11  1  0  0  0  0
 11 12  2  0  0  0  0
 12 13  1  0  0  0  0
 13 14  2  0  0  0  0
  9 14  1  0  0  0  0
 14 15  1  0  0  0  0
 12 16  1  0  0  0  0
 10 17  1  0  0  0  0
  4 18  1  0  0  0  0
  3 19  1  0  0  0  0
  1 20  1  0  0  0  0
  2 21  1  0  0  0  0
  5 22  1  0  0  0  0
 11 23  1  0  0  0  0
 13 24  1  0  0  0  0
 15 25  1  0  0  0  0
 16 26  1  0  0  0  0
 17 27  1  0  0  0  0
 18 28  1  0  0  0  0
 19 29  1  0  0  0  0
M  END
$$$$
