C14H12O3
APtclcactv06211806253D 0   0.00000     0.00000
 
 29 31  0  0  0  0  0  0  0  0999 V2000
   -3.1035    0.2316    1.6520 C   0  0  0  0  0  0  0  0  0  0  0  0
   -3.0776    0.3938    0.1308 C   0  0  0  0  0  0  0  0  0  0  0  0
   -2.2757    1.6180   -0.2247 C   0  0  0  0  0  0  0  0  0  0  0  0
   -0.9609    1.5192   -0.4136 C   0  0  0  0  0  0  0  0  0  0  0  0
   -0.3373    0.1864   -0.2757 C   0  0  0  0  0  0  0  0  0  0  0  0
   -1.1624   -0.9445   -0.3041 C   0  0  0  0  0  0  0  0  0  0  0  0
   -2.4999   -0.7721   -0.4574 O   0  0  0  0  0  0  0  0  0  0  0  0
   -0.6134   -2.2142   -0.1767 C   0  0  0  0  0  0  0  0  0  0  0  0
    0.7352   -2.3703   -0.0231 C   0  0  0  0  0  0  0  0  0  0  0  0
    1.5781   -1.2520    0.0077 C   0  0  0  0  0  0  0  0  0  0  0  0
    1.0435    0.0422   -0.1202 C   0  0  0  0  0  0  0  0  0  0  0  0
    1.8472    1.1219   -0.0920 O   0  0  0  0  0  0  0  0  0  0  0  0
    3.1676    0.9767    0.0581 C   0  0  0  0  0  0  0  0  0  0  0  0
    3.8656    1.9745    0.0790 O   0  0  0  0  0  0  0  0  0  0  0  0
    3.7855   -0.2819    0.1927 C   0  0  0  0  0  0  0  0  0  0  0  0
    3.0257   -1.4085    0.1714 C   0  0  0  0  0  0  0  0  0  0  0  0
   -4.5089    0.5611   -0.3832 C   0  0  0  0  0  0  0  0  0  0  0  0
   -3.5612    1.1119    2.1035 H   0  0  0  0  0  0  0  0  0  0  0  0
   -3.6832   -0.6537    1.9132 H   0  0  0  0  0  0  0  0  0  0  0  0
   -2.0845    0.1212    2.0230 H   0  0  0  0  0  0  0  0  0  0  0  0
   -2.7662    2.5748   -0.3268 H   0  0  0  0  0  0  0  0  0  0  0  0
   -0.3680    2.3875   -0.6605 H   0  0  0  0  0  0  0  0  0  0  0  0
   -1.2557   -3.0822   -0.1988 H   0  0  0  0  0  0  0  0  0  0  0  0
    1.1534   -3.3611    0.0755 H   0  0  0  0  0  0  0  0  0  0  0  0
    4.8567   -0.3513    0.3115 H   0  0  0  0  0  0  0  0  0  0  0  0
    3.4736   -2.3860    0.2728 H   0  0  0  0  0  0  0  0  0  0  0  0
   -4.9570    1.4450    0.0707 H   0  0  0  0  0  0  0  0  0  0  0  0
   -4.4945    0.6770   -1.4670 H   0  0  0  0  0  0  0  0  0  0  0  0
   -5.0949   -0.3194   -0.1197 H   0  0  0  0  0  0  0  0  0  0  0  0
  1  2  1  0  0  0  0
  2  3  1  0  0  0  0
  3  4  2  0  0  0  0
  4  5  1  0  0  0  0
  5  6  2  0  0  0  0
  6  7  1  0  0  0  0
  2  7  1  0  0  0  0
  6  8  1  0  0  0  0
  8  9  2  0  0  0  0
  9 10  1  0  0  0  0
 10 11  2  0  0  0  0
  5 11  1  0  0  0  0
 11 12  1  0  0  0  0
 12 13  1  0  0  0  0
 13 14  2  0  0  0  0
 13 15  1  0  0  0  0
 15 16  2  0  0  0  0
 10 16  1  0  0  0  0
  2 17  1  0  0  0  0
  1 18  1  0  0  0  0
  1 19  1  0  0  0  0
  1 20  1  0  0  0  0
  3 21  1  0  0  0  0
  4 22  1  0  0  0  0
  8 23  1  0  0  0  0
  9 24  1  0  0  0  0
 15 25  1  0  0  0  0
 16 26  1  0  0  0  0
 17 27  1  0  0  0  0
 17 28  1  0  0  0  0
 17 29  1  0  0  0  0
M  END
$$$$
