C14H13NO4
APtclcactv06211806253D 0   0.00000     0.00000
 
 32 34  0  0  0  0  0  0  0  0999 V2000
    4.6834   -1.2743   -0.0872 C   0  0  0  0  0  0  0  0  0  0  0  0
    3.3803   -1.8562   -0.1606 O   0  0  0  0  0  0  0  0  0  0  0  0
    2.3210   -1.0055   -0.1127 C   0  0  0  0  0  0  0  0  0  0  0  0
    2.5435    0.3687    0.0033 C   0  0  0  0  0  0  0  0  0  0  0  0
    1.5012    1.2478    0.0538 C   0  0  0  0  0  0  0  0  0  0  0  0
    0.1748    0.7685   -0.0117 C   0  0  0  0  0  0  0  0  0  0  0  0
   -0.0446   -0.6262   -0.1293 C   0  0  0  0  0  0  0  0  0  0  0  0
    1.0510   -1.5036   -0.1842 C   0  0  0  0  0  0  0  0  0  0  0  0
   -1.3685   -1.1097   -0.1950 C   0  0  0  0  0  0  0  0  0  0  0  0
   -2.3999   -0.1778   -0.1400 C   0  0  0  0  0  0  0  0  0  0  0  0
   -3.8652   -0.2687   -0.1772 C   0  0  0  0  0  0  0  0  0  0  0  0
   -4.3181    0.9873   -0.0845 C   0  0  0  0  0  0  0  0  0  0  0  0
   -3.2892    1.8498    0.0063 O   0  0  0  0  0  0  0  0  0  0  0  0
   -2.1067    1.1988   -0.0224 C   0  0  0  0  0  0  0  0  0  0  0  0
   -0.8569    1.6168    0.0370 N   0  0  0  0  0  0  0  0  0  0  0  0
   -1.6263   -2.4359   -0.3083 O   0  0  0  0  0  0  0  0  0  0  0  0
   -1.7749   -3.1740    0.9063 C   0  0  0  0  0  0  0  0  0  0  0  0
    1.7391    2.5808    0.1672 O   0  0  0  0  0  0  0  0  0  0  0  0
    3.1060    2.9929    0.2285 C   0  0  0  0  0  0  0  0  0  0  0  0
    4.7864   -0.7309    0.8520 H   0  0  0  0  0  0  0  0  0  0  0  0
    5.4360   -2.0613   -0.1360 H   0  0  0  0  0  0  0  0  0  0  0  0
    4.8219   -0.5870   -0.9217 H   0  0  0  0  0  0  0  0  0  0  0  0
    3.5560    0.7410    0.0542 H   0  0  0  0  0  0  0  0  0  0  0  0
    0.8898   -2.5677   -0.2742 H   0  0  0  0  0  0  0  0  0  0  0  0
   -4.4577   -1.1676   -0.2624 H   0  0  0  0  0  0  0  0  0  0  0  0
   -5.3608    1.2686   -0.0834 H   0  0  0  0  0  0  0  0  0  0  0  0
   -2.6038   -2.7626    1.4823 H   0  0  0  0  0  0  0  0  0  0  0  0
   -1.9777   -4.2194    0.6737 H   0  0  0  0  0  0  0  0  0  0  0  0
   -0.8567   -3.1029    1.4893 H   0  0  0  0  0  0  0  0  0  0  0  0
    3.1546    4.0782    0.3179 H   0  0  0  0  0  0  0  0  0  0  0  0
    3.5851    2.5353    1.0940 H   0  0  0  0  0  0  0  0  0  0  0  0
    3.6210    2.6798   -0.6797 H   0  0  0  0  0  0  0  0  0  0  0  0
  1  2  1  0  0  0  0
  2  3  1  0  0  0  0
  3  4  2  0  0  0  0
  4  5  1  0  0  0  0
  5  6  2  0  0  0  0
  6  7  1  0  0  0  0
  7  8  2  0  0  0  0
  3  8  1  0  0  0  0
  7  9  1  0  0  0  0
  9 10  2  0  0  0  0
 10 11  1  0  0  0  0
 11 12  2  0  0  0  0
 12 13  1  0  0  0  0
 13 14  1  0  0  0  0
 10 14  1  0  0  0  0
 14 15  2  0  0  0  0
  6 15  1  0  0  0  0
  9 16  1  0  0  0  0
 16 17  1  0  0  0  0
  5 18  1  0  0  0  0
 18 19  1  0  0  0  0
  1 20  1  0  0  0  0
  1 21  1  0  0  0  0
  1 22  1  0  0  0  0
  4 23  1  0  0  0  0
  8 24  1  0  0  0  0
 11 25  1  0  0  0  0
 12 26  1  0  0  0  0
 17 27  1  0  0  0  0
 17 28  1  0  0  0  0
 17 29  1  0  0  0  0
 19 30  1  0  0  0  0
 19 31  1  0  0  0  0
 19 32  1  0  0  0  0
M  END
$$$$
