C15H11ClO7
APtclcactv06211806253D 0   0.00000     0.00000
 
 34 35  0  0  0  0  0  0  0  0999 V2000
    0.4520   -0.6403   -1.2980 C   0  0  0  0  0  0  0  0  0  0  0  0
   -0.3053   -1.0883   -0.2145 C   0  0  0  0  0  0  0  0  0  0  0  0
    0.2307   -2.0271    0.6683 C   0  0  0  0  0  0  0  0  0  0  0  0
    1.5107   -2.5113    0.4680 C   0  0  0  0  0  0  0  0  0  0  0  0
    2.2642   -2.0629   -0.6127 C   0  0  0  0  0  0  0  0  0  0  0  0
    1.7316   -1.1272   -1.4945 C   0  0  0  0  0  0  0  0  0  0  0  0
    2.4703   -0.6903   -2.5495 O   0  0  0  0  0  0  0  0  0  0  0  0
    3.5226   -2.5399   -0.8075 O   0  0  0  0  0  0  0  0  0  0  0  0
    2.0335   -3.4261    1.3280 O   0  0  0  0  0  0  0  0  0  0  0  0
   -1.6739   -0.5686   -0.0020 C   0  0  0  0  0  0  0  0  0  0  0  0
   -2.6752   -1.4605    0.4228 C   0  0  0  0  0  0  0  0  0  0  0  0
   -3.9443   -0.9595    0.6164 C   0  0  0  0  0  0  0  0  0  0  0  0
   -4.0989    0.4192    0.3614 C   0  0  0  0  0  0  0  0  0  0  0  0
   -5.3403    1.0620    0.5190 C   0  0  0  0  0  0  0  0  0  0  0  0
   -5.4456    2.4004    0.2613 C   0  0  0  0  0  0  0  0  0  0  0  0
   -4.3324    3.1322   -0.1567 C   0  0  0  0  0  0  0  0  0  0  0  0
   -3.1053    2.5270   -0.3193 C   0  0  0  0  0  0  0  0  0  0  0  0
   -2.9632    1.1548   -0.0622 C   0  0  0  0  0  0  0  0  0  0  0  0
   -1.8842    0.6065   -0.1961 O   0  3  0  0  0  0  0  0  0  0  0  0
   -4.4611    4.4608   -0.4073 O   0  0  0  0  0  0  0  0  0  0  0  0
   -6.4275    0.3571    0.9242 O   0  0  0  0  0  0  0  0  0  0  0  0
   -2.3999   -2.7746    0.6352 O   0  0  0  0  0  0  0  0  0  0  0  0
   13.1461    2.5258    0.7598 Cl  0  5  0  0  0  0  0  0  0  0  0  0
    0.0375    0.0828   -1.9849 H   0  0  0  0  0  0  0  0  0  0  0  0
   -0.3535   -2.3748    1.5075 H   0  0  0  0  0  0  0  0  0  0  0  0
    2.3596   -1.2177   -3.3524 H   0  0  0  0  0  0  0  0  0  0  0  0
    3.5617   -3.3315   -1.3616 H   0  0  0  0  0  0  0  0  0  0  0  0
    1.8595   -4.3442    1.0791 H   0  0  0  0  0  0  0  0  0  0  0  0
   -4.7657   -1.5809    0.9412 H   0  0  0  0  0  0  0  0  0  0  0  0
   -6.3978    2.8957    0.3817 H   0  0  0  0  0  0  0  0  0  0  0  0
   -2.2545    3.1076   -0.6440 H   0  0  0  0  0  0  0  0  0  0  0  0
   -4.2993    5.0236    0.3622 H   0  0  0  0  0  0  0  0  0  0  0  0
   -6.5436    0.3304    1.8839 H   0  0  0  0  0  0  0  0  0  0  0  0
   -2.1213   -2.9771    1.5388 H   0  0  0  0  0  0  0  0  0  0  0  0
  1  2  2  0  0  0  0
  2  3  1  0  0  0  0
  3  4  2  0  0  0  0
  4  5  1  0  0  0  0
  5  6  2  0  0  0  0
  1  6  1  0  0  0  0
  6  7  1  0  0  0  0
  5  8  1  0  0  0  0
  4  9  1  0  0  0  0
  2 10  1  0  0  0  0
 10 11  2  0  0  0  0
 11 12  1  0  0  0  0
 12 13  2  0  0  0  0
 13 14  1  0  0  0  0
 14 15  2  0  0  0  0
 15 16  1  0  0  0  0
 16 17  2  0  0  0  0
 17 18  1  0  0  0  0
 13 18  1  0  0  0  0
 18 19  2  0  0  0  0
 10 19  1  0  0  0  0
 16 20  1  0  0  0  0
 14 21  1  0  0  0  0
 11 22  1  0  0  0  0
  1 24  1  0  0  0  0
  3 25  1  0  0  0  0
  7 26  1  0  0  0  0
  8 27  1  0  0  0  0
  9 28  1  0  0  0  0
 12 29  1  0  0  0  0
 15 30  1  0  0  0  0
 17 31  1  0  0  0  0
 20 32  1  0  0  0  0
 21 33  1  0  0  0  0
 22 34  1  0  0  0  0
M  CHG  2  19   1  23  -1
M  END
$$$$
