C11H10N2O
APtclcactv06211806253D 0   0.00000     0.00000
 
 24 26  0  0  0  0  0  0  0  0999 V2000
   -3.6176   -0.3355    0.3171 C   0  0  0  0  0  0  0  0  0  0  0  0
   -2.6961   -1.4997   -0.1058 C   0  0  0  0  0  0  0  0  0  0  0  0
   -1.2970   -0.9061   -0.0703 C   0  0  0  0  0  0  0  0  0  0  0  0
   -0.1540   -1.5387   -0.0484 N   0  0  0  0  0  0  0  0  0  0  0  0
    1.0337   -0.8914   -0.0149 C   0  0  0  0  0  0  0  0  0  0  0  0
    2.2477   -1.5809    0.0098 C   0  0  0  0  0  0  0  0  0  0  0  0
    3.4311   -0.8776    0.0433 C   0  0  0  0  0  0  0  0  0  0  0  0
    3.4337    0.5107    0.0534 C   0  0  0  0  0  0  0  0  0  0  0  0
    2.2487    1.2137    0.0294 C   0  0  0  0  0  0  0  0  0  0  0  0
    1.0407    0.5213   -0.0043 C   0  0  0  0  0  0  0  0  0  0  0  0
   -0.2549    1.2114   -0.0302 C   0  0  0  0  0  0  0  0  0  0  0  0
   -0.3187    2.4270   -0.0212 O   0  0  0  0  0  0  0  0  0  0  0  0
   -1.3800    0.4516   -0.0631 N   0  0  0  0  0  0  0  0  0  0  0  0
   -2.7842    0.8945   -0.0976 C   0  0  0  0  0  0  0  0  0  0  0  0
   -4.5616   -0.3682   -0.2270 H   0  0  0  0  0  0  0  0  0  0  0  0
   -3.7892   -0.3453    1.3934 H   0  0  0  0  0  0  0  0  0  0  0  0
   -2.7774   -2.3257    0.6008 H   0  0  0  0  0  0  0  0  0  0  0  0
   -2.9426   -1.8337   -1.1136 H   0  0  0  0  0  0  0  0  0  0  0  0
    2.2584   -2.6608    0.0022 H   0  0  0  0  0  0  0  0  0  0  0  0
    4.3690   -1.4128    0.0624 H   0  0  0  0  0  0  0  0  0  0  0  0
    4.3724    1.0442    0.0798 H   0  0  0  0  0  0  0  0  0  0  0  0
    2.2566    2.2937    0.0374 H   0  0  0  0  0  0  0  0  0  0  0  0
   -3.0551    1.2100   -1.1051 H   0  0  0  0  0  0  0  0  0  0  0  0
   -2.9393    1.7107    0.6080 H   0  0  0  0  0  0  0  0  0  0  0  0
  1  2  1  0  0  0  0
  2  3  1  0  0  0  0
  3  4  2  0  0  0  0
  4  5  1  0  0  0  0
  5  6  2  0  0  0  0
  6  7  1  0  0  0  0
  7  8  2  0  0  0  0
  8  9  1  0  0  0  0
  9 10  2  0  0  0  0
  5 10  1  0  0  0  0
 10 11  1  0  0  0  0
 11 12  2  0  0  0  0
 11 13  1  0  0  0  0
  3 13  1  0  0  0  0
 13 14  1  0  0  0  0
  1 14  1  0  0  0  0
  1 15  1  0  0  0  0
  1 16  1  0  0  0  0
  2 17  1  0  0  0  0
  2 18  1  0  0  0  0
  6 19  1  0  0  0  0
  7 20  1  0  0  0  0
  8 21  1  0  0  0  0
  9 22  1  0  0  0  0
 14 23  1  0  0  0  0
 14 24  1  0  0  0  0
M  END
$$$$
