C10H14O2
APtclcactv06211806253D 0   0.00000     0.00000
 
 26 26  0  0  0  0  0  0  0  0999 V2000
    4.5759   -0.4093    0.3610 C   0  0  0  0  0  0  0  0  0  0  0  0
    3.2799    0.4032    0.3297 C   0  0  0  0  0  0  0  0  0  0  0  0
    3.3469    1.4266   -0.8057 C   0  0  0  0  0  0  0  0  0  0  0  0
    2.0943   -0.5363    0.1001 C   0  0  0  0  0  0  0  0  0  0  0  0
    0.7894    0.2572    0.1928 C   0  0  0  0  0  0  0  0  0  0  0  0
   -0.3783   -0.6682   -0.0334 C   0  0  0  0  0  0  0  0  0  0  0  0
   -0.1857   -1.8468   -0.2477 O   0  0  0  0  0  0  0  0  0  0  0  0
   -1.7469   -0.1444    0.0056 C   0  0  0  0  0  0  0  0  0  0  0  0
   -2.1324    1.1488    0.2326 C   0  0  0  0  0  0  0  0  0  0  0  0
   -3.4658    1.2042    0.1842 O   0  0  0  0  0  0  0  0  0  0  0  0
   -3.9884   -0.0065   -0.0673 C   0  0  0  0  0  0  0  0  0  0  0  0
   -2.9950   -0.8977   -0.1977 C   0  0  0  0  0  0  0  0  0  0  0  0
    5.4205    0.2600    0.5246 H   0  0  0  0  0  0  0  0  0  0  0  0
    4.5282   -1.1384    1.1699 H   0  0  0  0  0  0  0  0  0  0  0  0
    4.7024   -0.9284   -0.5890 H   0  0  0  0  0  0  0  0  0  0  0  0
    3.1534    0.9223    1.2797 H   0  0  0  0  0  0  0  0  0  0  0  0
    3.4734    0.9075   -1.7558 H   0  0  0  0  0  0  0  0  0  0  0  0
    2.4236    2.0055   -0.8281 H   0  0  0  0  0  0  0  0  0  0  0  0
    4.1915    2.0959   -0.6421 H   0  0  0  0  0  0  0  0  0  0  0  0
    2.1752   -0.9884   -0.8884 H   0  0  0  0  0  0  0  0  0  0  0  0
    2.0985   -1.3187    0.8589 H   0  0  0  0  0  0  0  0  0  0  0  0
    0.7086    0.7093    1.1812 H   0  0  0  0  0  0  0  0  0  0  0  0
    0.7853    1.0396   -0.5661 H   0  0  0  0  0  0  0  0  0  0  0  0
   -1.4713    1.9821    0.4195 H   0  0  0  0  0  0  0  0  0  0  0  0
   -5.0420   -0.2270   -0.1550 H   0  0  0  0  0  0  0  0  0  0  0  0
   -3.0914   -1.9536   -0.4028 H   0  0  0  0  0  0  0  0  0  0  0  0
  1  2  1  0  0  0  0
  2  3  1  0  0  0  0
  2  4  1  0  0  0  0
  4  5  1  0  0  0  0
  5  6  1  0  0  0  0
  6  7  2  0  0  0  0
  6  8  1  0  0  0  0
  8  9  2  0  0  0  0
  9 10  1  0  0  0  0
 10 11  1  0  0  0  0
 11 12  2  0  0  0  0
  8 12  1  0  0  0  0
  1 13  1  0  0  0  0
  1 14  1  0  0  0  0
  1 15  1  0  0  0  0
  2 16  1  0  0  0  0
  3 17  1  0  0  0  0
  3 18  1  0  0  0  0
  3 19  1  0  0  0  0
  4 20  1  0  0  0  0
  4 21  1  0  0  0  0
  5 22  1  0  0  0  0
  5 23  1  0  0  0  0
  9 24  1  0  0  0  0
 11 25  1  0  0  0  0
 12 26  1  0  0  0  0
M  END
$$$$
