C15H16O4
APtclcactv06211806253D 0   0.00000     0.00000
 
 35 36  0  0  0  0  0  0  0  0999 V2000
    5.2062   -1.1501   -0.7265 C   0  0  0  0  0  0  0  0  0  0  0  0
    3.8540   -0.5657   -0.4087 C   0  0  0  0  0  0  0  0  0  0  0  0
    3.7442    0.7675   -0.2785 C   0  0  0  0  0  0  0  0  0  0  0  0
    2.4789    1.3424    0.0212 C   0  0  0  0  0  0  0  0  0  0  0  0
    2.3426    2.5480    0.1460 O   0  0  0  0  0  0  0  0  0  0  0  0
    1.3406    0.4225    0.1739 C   0  0  0  0  0  0  0  0  0  0  0  0
    0.0551    0.8934    0.4686 C   0  0  0  0  0  0  0  0  0  0  0  0
   -0.9851   -0.0076    0.6029 C   0  0  0  0  0  0  0  0  0  0  0  0
   -0.7543   -1.3699    0.4462 C   0  0  0  0  0  0  0  0  0  0  0  0
    0.5159   -1.8432    0.1548 C   0  0  0  0  0  0  0  0  0  0  0  0
    1.5714   -0.9559    0.0159 C   0  0  0  0  0  0  0  0  0  0  0  0
    2.8136   -1.3958   -0.2738 O   0  0  0  0  0  0  0  0  0  0  0  0
   -1.7830   -2.2454    0.5803 O   0  0  0  0  0  0  0  0  0  0  0  0
   -2.3724    0.4880    0.9204 C   0  0  0  0  0  0  0  0  0  0  0  0
   -3.1123    0.7664   -0.3626 C   0  0  0  0  0  0  0  0  0  0  0  0
   -4.2812    0.2154   -0.5775 C   0  0  0  0  0  0  0  0  0  0  0  0
   -4.8272   -0.7972    0.3959 C   0  0  0  0  0  0  0  0  0  0  0  0
   -5.0798    0.5942   -1.7980 C   0  0  0  0  0  0  0  0  0  0  0  0
   -0.1678    2.2232    0.6216 O   0  0  0  0  0  0  0  0  0  0  0  0
    5.7331   -1.3726    0.2014 H   0  0  0  0  0  0  0  0  0  0  0  0
    5.0796   -2.0675   -1.3014 H   0  0  0  0  0  0  0  0  0  0  0  0
    5.7841   -0.4329   -1.3095 H   0  0  0  0  0  0  0  0  0  0  0  0
    4.6122    1.3984   -0.4004 H   0  0  0  0  0  0  0  0  0  0  0  0
    0.6828   -2.9036    0.0361 H   0  0  0  0  0  0  0  0  0  0  0  0
   -2.2534   -2.4289   -0.2444 H   0  0  0  0  0  0  0  0  0  0  0  0
   -2.9076   -0.2710    1.4911 H   0  0  0  0  0  0  0  0  0  0  0  0
   -2.3055    1.4040    1.5074 H   0  0  0  0  0  0  0  0  0  0  0  0
   -2.6788    1.4202   -1.1049 H   0  0  0  0  0  0  0  0  0  0  0  0
   -5.3285   -0.2808    1.2145 H   0  0  0  0  0  0  0  0  0  0  0  0
   -5.5393   -1.4451   -0.1152 H   0  0  0  0  0  0  0  0  0  0  0  0
   -4.0088   -1.3982    0.7923 H   0  0  0  0  0  0  0  0  0  0  0  0
   -4.8192   -0.0689   -2.6229 H   0  0  0  0  0  0  0  0  0  0  0  0
   -6.1436    0.5014   -1.5794 H   0  0  0  0  0  0  0  0  0  0  0  0
   -4.8543    1.6242   -2.0745 H   0  0  0  0  0  0  0  0  0  0  0  0
   -0.4046    2.6791   -0.1976 H   0  0  0  0  0  0  0  0  0  0  0  0
  1  2  1  0  0  0  0
  2  3  2  0  0  0  0
  3  4  1  0  0  0  0
  4  5  2  0  0  0  0
  4  6  1  0  0  0  0
  6  7  2  0  0  0  0
  7  8  1  0  0  0  0
  8  9  2  0  0  0  0
  9 10  1  0  0  0  0
 10 11  2  0  0  0  0
  6 11  1  0  0  0  0
 11 12  1  0  0  0  0
  2 12  1  0  0  0  0
  9 13  1  0  0  0  0
  8 14  1  0  0  0  0
 14 15  1  0  0  0  0
 15 16  2  0  0  0  0
 16 17  1  0  0  0  0
 16 18  1  0  0  0  0
  7 19  1  0  0  0  0
  1 20  1  0  0  0  0
  1 21  1  0  0  0  0
  1 22  1  0  0  0  0
  3 23  1  0  0  0  0
 10 24  1  0  0  0  0
 13 25  1  0  0  0  0
 14 26  1  0  0  0  0
 14 27  1  0  0  0  0
 15 28  1  0  0  0  0
 17 29  1  0  0  0  0
 17 30  1  0  0  0  0
 17 31  1  0  0  0  0
 18 32  1  0  0  0  0
 18 33  1  0  0  0  0
 18 34  1  0  0  0  0
 19 35  1  0  0  0  0
M  END
$$$$
