C15H16O3
APtclcactv06211806253D 0   0.00000     0.00000
 
 34 35  0  0  0  0  0  0  0  0999 V2000
   -4.2648   -1.9178    0.7501 C   0  0  0  0  0  0  0  0  0  0  0  0
   -4.0097   -1.0033   -0.4203 C   0  0  0  0  0  0  0  0  0  0  0  0
   -3.1663   -0.0080   -0.3022 C   0  0  0  0  0  0  0  0  0  0  0  0
   -2.3593    0.1500    0.9607 C   0  0  0  0  0  0  0  0  0  0  0  0
   -0.8941    0.2193    0.6152 C   0  0  0  0  0  0  0  0  0  0  0  0
   -0.3247    1.4390    0.2555 C   0  0  0  0  0  0  0  0  0  0  0  0
    1.0206    1.5206   -0.0656 C   0  0  0  0  0  0  0  0  0  0  0  0
    1.8079    0.3800   -0.0286 C   0  0  0  0  0  0  0  0  0  0  0  0
    1.2271   -0.8492    0.3359 C   0  0  0  0  0  0  0  0  0  0  0  0
   -0.1322   -0.9123    0.6621 C   0  0  0  0  0  0  0  0  0  0  0  0
    2.0676   -2.0479    0.3717 C   0  0  0  0  0  0  0  0  0  0  0  0
    3.3811   -1.9207    0.0492 C   0  0  0  0  0  0  0  0  0  0  0  0
    3.8967   -0.6575   -0.3069 C   0  0  0  0  0  0  0  0  0  0  0  0
    5.0760   -0.5576   -0.5942 O   0  0  0  0  0  0  0  0  0  0  0  0
    3.1210    0.4374   -0.3383 O   0  0  0  0  0  0  0  0  0  0  0  0
   -1.0945    2.5565    0.2189 O   0  0  0  0  0  0  0  0  0  0  0  0
   -0.4509    3.7756   -0.1575 C   0  0  0  0  0  0  0  0  0  0  0  0
   -4.7250   -1.2339   -1.7265 C   0  0  0  0  0  0  0  0  0  0  0  0
   -4.5712   -1.3266    1.6130 H   0  0  0  0  0  0  0  0  0  0  0  0
   -5.0549   -2.6237    0.4942 H   0  0  0  0  0  0  0  0  0  0  0  0
   -3.3527   -2.4645    0.9895 H   0  0  0  0  0  0  0  0  0  0  0  0
   -3.0492    0.6993   -1.1099 H   0  0  0  0  0  0  0  0  0  0  0  0
   -2.6564    1.0671    1.4694 H   0  0  0  0  0  0  0  0  0  0  0  0
   -2.5383   -0.7029    1.6153 H   0  0  0  0  0  0  0  0  0  0  0  0
    1.4545    2.4696   -0.3441 H   0  0  0  0  0  0  0  0  0  0  0  0
   -0.5788   -1.8548    0.9423 H   0  0  0  0  0  0  0  0  0  0  0  0
    1.6545   -3.0070    0.6474 H   0  0  0  0  0  0  0  0  0  0  0  0
    4.0288   -2.7847    0.0659 H   0  0  0  0  0  0  0  0  0  0  0  0
    0.3513    3.9955    0.5470 H   0  0  0  0  0  0  0  0  0  0  0  0
   -0.0360    3.6728   -1.1602 H   0  0  0  0  0  0  0  0  0  0  0  0
   -1.1772    4.5883   -0.1463 H   0  0  0  0  0  0  0  0  0  0  0  0
   -5.3799   -2.1003   -1.6342 H   0  0  0  0  0  0  0  0  0  0  0  0
   -5.3189   -0.3545   -1.9758 H   0  0  0  0  0  0  0  0  0  0  0  0
   -3.9936   -1.4136   -2.5145 H   0  0  0  0  0  0  0  0  0  0  0  0
  1  2  1  0  0  0  0
  2  3  2  0  0  0  0
  3  4  1  0  0  0  0
  4  5  1  0  0  0  0
  5  6  2  0  0  0  0
  6  7  1  0  0  0  0
  7  8  2  0  0  0  0
  8  9  1  0  0  0  0
  9 10  2  0  0  0  0
  5 10  1  0  0  0  0
  9 11  1  0  0  0  0
 11 12  2  0  0  0  0
 12 13  1  0  0  0  0
 13 14  2  0  0  0  0
 13 15  1  0  0  0  0
  8 15  1  0  0  0  0
  6 16  1  0  0  0  0
 16 17  1  0  0  0  0
  2 18  1  0  0  0  0
  1 19  1  0  0  0  0
  1 20  1  0  0  0  0
  1 21  1  0  0  0  0
  3 22  1  0  0  0  0
  4 23  1  0  0  0  0
  4 24  1  0  0  0  0
  7 25  1  0  0  0  0
 10 26  1  0  0  0  0
 11 27  1  0  0  0  0
 12 28  1  0  0  0  0
 17 29  1  0  0  0  0
 17 30  1  0  0  0  0
 17 31  1  0  0  0  0
 18 32  1  0  0  0  0
 18 33  1  0  0  0  0
 18 34  1  0  0  0  0
M  END
$$$$
