C20H20N20
APtclcactv06291802553D 0   0.00000     0.00000
 
 60 64  0  0  0  0  0  0  0  0999 V2000
  -25.1594    1.9741    0.2721 C   0  0  0  0  0  0  0  0  0  0  0  0
  -25.6970    0.8151    0.5326 N   0  0  0  0  0  0  0  0  0  0  0  0
  -24.8013   -0.1641    0.3053 C   0  0  0  0  0  0  0  0  0  0  0  0
  -23.6200    0.4581   -0.1304 C   0  0  0  0  0  0  0  0  0  0  0  0
  -23.8818    1.8118   -0.1398 N   0  0  0  0  0  0  0  0  0  0  0  0
  -22.5173   -0.3412   -0.4387 C   0  0  0  0  0  0  0  0  0  0  0  0
  -22.6322   -1.6600   -0.3065 N   0  0  0  0  0  0  0  0  0  0  0  0
  -23.7605   -2.2087    0.1065 C   0  0  0  0  0  0  0  0  0  0  0  0
  -24.8238   -1.4970    0.4075 N   0  0  0  0  0  0  0  0  0  0  0  0
  -21.3304    0.2264   -0.8729 N   0  0  0  0  0  0  0  0  0  0  0  0
   -9.3077    1.9969    0.3008 C   0  0  0  0  0  0  0  0  0  0  0  0
   -9.8453    0.8378    0.5613 N   0  0  0  0  0  0  0  0  0  0  0  0
   -8.9496   -0.1413    0.3341 C   0  0  0  0  0  0  0  0  0  0  0  0
   -7.7684    0.4808   -0.1017 C   0  0  0  0  0  0  0  0  0  0  0  0
   -8.0302    1.8345   -0.1111 N   0  0  0  0  0  0  0  0  0  0  0  0
   -6.6657   -0.3185   -0.4099 C   0  0  0  0  0  0  0  0  0  0  0  0
   -6.7805   -1.6373   -0.2778 N   0  0  0  0  0  0  0  0  0  0  0  0
   -7.9089   -2.1859    0.1352 C   0  0  0  0  0  0  0  0  0  0  0  0
   -8.9722   -1.4743    0.4363 N   0  0  0  0  0  0  0  0  0  0  0  0
   -5.4788    0.2491   -0.8441 N   0  0  0  0  0  0  0  0  0  0  0  0
    6.5439    2.0196    0.3295 C   0  0  0  0  0  0  0  0  0  0  0  0
    6.0063    0.8605    0.5901 N   0  0  0  0  0  0  0  0  0  0  0  0
    6.9020   -0.1186    0.3628 C   0  0  0  0  0  0  0  0  0  0  0  0
    8.0832    0.5035   -0.0729 C   0  0  0  0  0  0  0  0  0  0  0  0
    7.8214    1.8573   -0.0824 N   0  0  0  0  0  0  0  0  0  0  0  0
    9.1859   -0.2958   -0.3812 C   0  0  0  0  0  0  0  0  0  0  0  0
    9.0711   -1.6145   -0.2490 N   0  0  0  0  0  0  0  0  0  0  0  0
    7.9427   -2.1632    0.1639 C   0  0  0  0  0  0  0  0  0  0  0  0
    6.8794   -1.4515    0.4650 N   0  0  0  0  0  0  0  0  0  0  0  0
   10.3729    0.2718   -0.8154 N   0  0  0  0  0  0  0  0  0  0  0  0
   22.3955    2.0423    0.3583 C   0  0  0  0  0  0  0  0  0  0  0  0
   21.8579    0.8832    0.6188 N   0  0  0  0  0  0  0  0  0  0  0  0
   22.7536   -0.0959    0.3915 C   0  0  0  0  0  0  0  0  0  0  0  0
   23.9348    0.5263   -0.0442 C   0  0  0  0  0  0  0  0  0  0  0  0
   23.6730    1.8800   -0.0536 N   0  0  0  0  0  0  0  0  0  0  0  0
   25.0375   -0.2730   -0.3525 C   0  0  0  0  0  0  0  0  0  0  0  0
   24.9227   -1.5918   -0.2203 N   0  0  0  0  0  0  0  0  0  0  0  0
   23.7944   -2.1405    0.1927 C   0  0  0  0  0  0  0  0  0  0  0  0
   22.7310   -1.4288    0.4937 N   0  0  0  0  0  0  0  0  0  0  0  0
   26.2245    0.2946   -0.7867 N   0  0  0  0  0  0  0  0  0  0  0  0
  -25.6627    2.9250    0.3670 H   0  0  0  0  0  0  0  0  0  0  0  0
  -23.2651    2.5158   -0.3946 H   0  0  0  0  0  0  0  0  0  0  0  0
  -23.8116   -3.2834    0.1997 H   0  0  0  0  0  0  0  0  0  0  0  0
  -21.2587    1.1893   -0.9657 H   0  0  0  0  0  0  0  0  0  0  0  0
  -20.5711   -0.3391   -1.0840 H   0  0  0  0  0  0  0  0  0  0  0  0
   -9.8111    2.9477    0.3957 H   0  0  0  0  0  0  0  0  0  0  0  0
   -7.4135    2.5385   -0.3658 H   0  0  0  0  0  0  0  0  0  0  0  0
   -7.9600   -3.2607    0.2284 H   0  0  0  0  0  0  0  0  0  0  0  0
   -5.4070    1.2120   -0.9369 H   0  0  0  0  0  0  0  0  0  0  0  0
   -4.7195   -0.3164   -1.0553 H   0  0  0  0  0  0  0  0  0  0  0  0
    6.0405    2.9704    0.4245 H   0  0  0  0  0  0  0  0  0  0  0  0
    8.4382    2.5613   -0.3371 H   0  0  0  0  0  0  0  0  0  0  0  0
    7.8917   -3.2380    0.2572 H   0  0  0  0  0  0  0  0  0  0  0  0
   10.4446    1.2347   -0.9082 H   0  0  0  0  0  0  0  0  0  0  0  0
   11.1322   -0.2937   -1.0266 H   0  0  0  0  0  0  0  0  0  0  0  0
   21.8922    2.9931    0.4532 H   0  0  0  0  0  0  0  0  0  0  0  0
   24.2898    2.5840   -0.3084 H   0  0  0  0  0  0  0  0  0  0  0  0
   23.7433   -3.2152    0.2859 H   0  0  0  0  0  0  0  0  0  0  0  0
   26.2962    1.2574   -0.8795 H   0  0  0  0  0  0  0  0  0  0  0  0
   26.9838   -0.2709   -0.9978 H   0  0  0  0  0  0  0  0  0  0  0  0
  1  2  2  0  0  0  0
  2  3  1  0  0  0  0
  3  4  2  0  0  0  0
  4  5  1  0  0  0  0
  1  5  1  0  0  0  0
  4  6  1  0  0  0  0
  6  7  2  0  0  0  0
  7  8  1  0  0  0  0
  8  9  2  0  0  0  0
  3  9  1  0  0  0  0
  6 10  1  0  0  0  0
 11 12  2  0  0  0  0
 12 13  1  0  0  0  0
 13 14  2  0  0  0  0
 14 15  1  0  0  0  0
 11 15  1  0  0  0  0
 14 16  1  0  0  0  0
 16 17  2  0  0  0  0
 17 18  1  0  0  0  0
 18 19  2  0  0  0  0
 13 19  1  0  0  0  0
 16 20  1  0  0  0  0
 21 22  2  0  0  0  0
 22 23  1  0  0  0  0
 23 24  2  0  0  0  0
 24 25  1  0  0  0  0
 21 25  1  0  0  0  0
 24 26  1  0  0  0  0
 26 27  2  0  0  0  0
 27 28  1  0  0  0  0
 28 29  2  0  0  0  0
 23 29  1  0  0  0  0
 26 30  1  0  0  0  0
 31 32  2  0  0  0  0
 32 33  1  0  0  0  0
 33 34  2  0  0  0  0
 34 35  1  0  0  0  0
 31 35  1  0  0  0  0
 34 36  1  0  0  0  0
 36 37  2  0  0  0  0
 37 38  1  0  0  0  0
 38 39  2  0  0  0  0
 33 39  1  0  0  0  0
 36 40  1  0  0  0  0
  1 41  1  0  0  0  0
  5 42  1  0  0  0  0
  8 43  1  0  0  0  0
 10 44  1  0  0  0  0
 10 45  1  0  0  0  0
 11 46  1  0  0  0  0
 15 47  1  0  0  0  0
 18 48  1  0  0  0  0
 20 49  1  0  0  0  0
 20 50  1  0  0  0  0
 21 51  1  0  0  0  0
 25 52  1  0  0  0  0
 28 53  1  0  0  0  0
 30 54  1  0  0  0  0
 30 55  1  0  0  0  0
 31 56  1  0  0  0  0
 35 57  1  0  0  0  0
 38 58  1  0  0  0  0
 40 59  1  0  0  0  0
 40 60  1  0  0  0  0
M  END
$$$$
