C10H17NO9S2
APtclcactv06281817133D 0   0.00000     0.00000
 
 39 39  0  0  0  0  0  0  0  0999 V2000
    1.1791    4.5131   -1.0691 C   0  0  0  0  0  0  0  0  0  0  0  0
    1.5605    3.2668   -0.9374 C   0  0  0  0  0  0  0  0  0  0  0  0
    1.8108    2.6963    0.4348 C   0  0  0  0  0  0  0  0  0  0  0  0
    0.9683    1.4616    0.6268 C   0  0  0  0  0  0  0  0  0  0  0  0
    1.5116    0.2906    0.5547 N   0  0  0  0  0  0  0  0  0  0  0  0
    2.9149    0.1689    0.4097 O   0  0  0  0  0  0  0  0  0  0  0  0
    3.4075   -1.2694    0.3389 S   0  0  0  0  0  0  0  0  0  0  0  0
    4.8260   -1.2111    0.3985 O   0  0  0  0  0  0  0  0  0  0  0  0
    2.6205   -2.0090    1.2625 O   0  0  0  0  0  0  0  0  0  0  0  0
    3.0568   -1.7982   -1.0445 O   0  0  0  0  0  0  0  0  0  0  0  0
   -0.7572    1.6139    0.9496 S   0  0  0  0  0  0  0  0  0  0  0  0
   -1.2079   -0.1341    1.0809 C   0  0  0  0  0  0  0  0  0  0  0  0
   -2.6782   -0.2530    1.4906 C   0  0  0  0  0  0  0  0  0  0  0  0
   -3.5556    0.3728    0.4021 C   0  0  0  0  0  0  0  0  0  0  0  0
   -3.2662   -0.3205   -0.9328 C   0  0  0  0  0  0  0  0  0  0  0  0
   -1.7732   -0.1991   -1.2489 C   0  0  0  0  0  0  0  0  0  0  0  0
   -1.0138   -0.7725   -0.1828 O   0  0  0  0  0  0  0  0  0  0  0  0
   -1.4654   -0.9410   -2.5511 C   0  0  0  0  0  0  0  0  0  0  0  0
   -0.0975   -0.7306   -2.9072 O   0  0  0  0  0  0  0  0  0  0  0  0
   -3.6243   -1.7009   -0.8414 O   0  0  0  0  0  0  0  0  0  0  0  0
   -4.9331    0.2012    0.7411 O   0  0  0  0  0  0  0  0  0  0  0  0
   -3.0207   -1.6316    1.6462 O   0  0  0  0  0  0  0  0  0  0  0  0
    0.9998    4.9219   -2.0525 H   0  0  0  0  0  0  0  0  0  0  0  0
    1.0397    5.1304   -0.1939 H   0  0  0  0  0  0  0  0  0  0  0  0
    1.6957    2.6481   -1.8123 H   0  0  0  0  0  0  0  0  0  0  0  0
    2.8646    2.4360    0.5334 H   0  0  0  0  0  0  0  0  0  0  0  0
    1.5473    3.4370    1.1898 H   0  0  0  0  0  0  0  0  0  0  0  0
    3.3286   -2.7137   -1.1962 H   0  0  0  0  0  0  0  0  0  0  0  0
   -0.5813   -0.6157    1.8317 H   0  0  0  0  0  0  0  0  0  0  0  0
   -2.8373    0.2714    2.4329 H   0  0  0  0  0  0  0  0  0  0  0  0
   -3.3292    1.4357    0.3175 H   0  0  0  0  0  0  0  0  0  0  0  0
   -3.8459    0.1555   -1.7237 H   0  0  0  0  0  0  0  0  0  0  0  0
   -1.5092    0.8527   -1.3584 H   0  0  0  0  0  0  0  0  0  0  0  0
   -1.6450   -2.0072   -2.4131 H   0  0  0  0  0  0  0  0  0  0  0  0
   -2.1097   -0.5638   -3.3452 H   0  0  0  0  0  0  0  0  0  0  0  0
    0.1685   -1.1730   -3.7249 H   0  0  0  0  0  0  0  0  0  0  0  0
   -4.5574   -1.8526   -0.6381 H   0  0  0  0  0  0  0  0  0  0  0  0
   -5.1856    0.6101    1.5803 H   0  0  0  0  0  0  0  0  0  0  0  0
   -2.4997   -2.0929    2.3176 H   0  0  0  0  0  0  0  0  0  0  0  0
  1  2  2  0  0  0  0
  2  3  1  0  0  0  0
  3  4  1  0  0  0  0
  4  5  2  0  0  0  0
  5  6  1  0  0  0  0
  6  7  1  0  0  0  0
  7  8  2  0  0  0  0
  7  9  2  0  0  0  0
  7 10  1  0  0  0  0
  4 11  1  0  0  0  0
 11 12  1  0  0  0  0
 12 13  1  0  0  0  0
 13 14  1  0  0  0  0
 14 15  1  0  0  0  0
 15 16  1  0  0  0  0
 16 17  1  0  0  0  0
 12 17  1  0  0  0  0
 16 18  1  0  0  0  0
 18 19  1  0  0  0  0
 15 20  1  0  0  0  0
 14 21  1  0  0  0  0
 13 22  1  0  0  0  0
  1 23  1  0  0  0  0
  1 24  1  0  0  0  0
  2 25  1  0  0  0  0
  3 26  1  0  0  0  0
  3 27  1  0  0  0  0
 10 28  1  0  0  0  0
 12 29  1  0  0  0  0
 13 30  1  0  0  0  0
 14 31  1  0  0  0  0
 15 32  1  0  0  0  0
 16 33  1  0  0  0  0
 18 34  1  0  0  0  0
 18 35  1  0  0  0  0
 19 36  1  0  0  0  0
 20 37  1  0  0  0  0
 21 38  1  0  0  0  0
 22 39  1  0  0  0  0
M  END
$$$$
