C18H17NO4
APtclcactv06291802553D 0   0.00000     0.00000
 
 40 44  0  0  0  0  0  0  0  0999 V2000
   -0.3082   -3.1545   -1.2129 C   0  0  0  0  0  0  0  0  0  0  0  0
    0.0406   -2.6237    0.0672 O   0  0  0  0  0  0  0  0  0  0  0  0
    1.0317   -1.6936    0.1005 C   0  0  0  0  0  0  0  0  0  0  0  0
    2.3637   -2.0890    0.1361 C   0  0  0  0  0  0  0  0  0  0  0  0
    3.3636   -1.1342    0.1818 C   0  0  0  0  0  0  0  0  0  0  0  0
    3.0555    0.2211    0.1929 C   0  0  0  0  0  0  0  0  0  0  0  0
    4.1899    1.2028    0.2746 C   0  0  0  0  0  0  0  0  0  0  0  0
    3.7053    2.6346    0.4308 C   0  0  0  0  0  0  0  0  0  0  0  0
    2.5025    2.8669   -0.3713 N   0  0  0  0  0  0  0  0  0  0  0  0
    1.3714    2.0830    0.1456 C   0  0  0  0  0  0  0  0  0  0  0  0
    1.7377    0.6215    0.1406 C   0  0  0  0  0  0  0  0  0  0  0  0
    0.7213   -0.3338    0.0935 C   0  0  0  0  0  0  0  0  0  0  0  0
   -0.6952    0.1026    0.0180 C   0  0  0  0  0  0  0  0  0  0  0  0
   -1.7166   -0.8107    0.2969 C   0  0  0  0  0  0  0  0  0  0  0  0
   -3.0205   -0.3470    0.2223 C   0  0  0  0  0  0  0  0  0  0  0  0
   -3.2994    0.9835   -0.1304 C   0  0  0  0  0  0  0  0  0  0  0  0
   -2.2812    1.8799   -0.4290 C   0  0  0  0  0  0  0  0  0  0  0  0
   -0.9766    1.4131   -0.3636 C   0  0  0  0  0  0  0  0  0  0  0  0
    0.1500    2.3343   -0.7358 C   0  0  0  0  0  0  0  0  0  0  0  0
   -4.6397    1.1655   -0.1157 O   0  0  0  0  0  0  0  0  0  0  0  0
   -5.1742    0.0464    0.6215 C   0  0  0  0  0  0  0  0  0  0  0  0
   -4.1877   -0.9920    0.4472 O   0  0  0  0  0  0  0  0  0  0  0  0
    2.6831   -3.4109    0.1265 O   0  0  0  0  0  0  0  0  0  0  0  0
    0.5336   -3.7189   -1.6139 H   0  0  0  0  0  0  0  0  0  0  0  0
   -1.1711   -3.8125   -1.1105 H   0  0  0  0  0  0  0  0  0  0  0  0
   -0.5532   -2.3368   -1.8908 H   0  0  0  0  0  0  0  0  0  0  0  0
    4.3972   -1.4460    0.2095 H   0  0  0  0  0  0  0  0  0  0  0  0
    4.8173    0.9473    1.1284 H   0  0  0  0  0  0  0  0  0  0  0  0
    4.7867    1.1292   -0.6345 H   0  0  0  0  0  0  0  0  0  0  0  0
    3.4788    2.8242    1.4800 H   0  0  0  0  0  0  0  0  0  0  0  0
    4.4907    3.3167    0.1052 H   0  0  0  0  0  0  0  0  0  0  0  0
    2.2754    3.8494   -0.4065 H   0  0  0  0  0  0  0  0  0  0  0  0
    1.1489    2.3972    1.1653 H   0  0  0  0  0  0  0  0  0  0  0  0
   -1.4984   -1.8351    0.5600 H   0  0  0  0  0  0  0  0  0  0  0  0
   -2.4972    2.9024   -0.7015 H   0  0  0  0  0  0  0  0  0  0  0  0
   -0.1749    3.3674   -0.6128 H   0  0  0  0  0  0  0  0  0  0  0  0
    0.4229    2.1657   -1.7776 H   0  0  0  0  0  0  0  0  0  0  0  0
   -5.2799    0.2995    1.6764 H   0  0  0  0  0  0  0  0  0  0  0  0
   -6.1324   -0.2632    0.2042 H   0  0  0  0  0  0  0  0  0  0  0  0
    2.8029   -3.7802   -0.7592 H   0  0  0  0  0  0  0  0  0  0  0  0
  1  2  1  0  0  0  0
  2  3  1  0  0  0  0
  3  4  2  0  0  0  0
  4  5  1  0  0  0  0
  5  6  2  0  0  0  0
  6  7  1  0  0  0  0
  7  8  1  0  0  0  0
  8  9  1  0  0  0  0
  9 10  1  0  0  0  0
 10 11  1  0  0  0  0
  6 11  1  0  0  0  0
 11 12  2  0  0  0  0
  3 12  1  0  0  0  0
 12 13  1  0  0  0  0
 13 14  2  0  0  0  0
 14 15  1  0  0  0  0
 15 16  2  0  0  0  0
 16 17  1  0  0  0  0
 17 18  2  0  0  0  0
 13 18  1  0  0  0  0
 18 19  1  0  0  0  0
 10 19  1  0  0  0  0
 16 20  1  0  0  0  0
 20 21  1  0  0  0  0
 21 22  1  0  0  0  0
 15 22  1  0  0  0  0
  4 23  1  0  0  0  0
  1 24  1  0  0  0  0
  1 25  1  0  0  0  0
  1 26  1  0  0  0  0
  5 27  1  0  0  0  0
  7 28  1  0  0  0  0
  7 29  1  0  0  0  0
  8 30  1  0  0  0  0
  8 31  1  0  0  0  0
  9 32  1  0  0  0  0
 10 33  1  0  0  0  0
 14 34  1  0  0  0  0
 17 35  1  0  0  0  0
 19 36  1  0  0  0  0
 19 37  1  0  0  0  0
 21 38  1  0  0  0  0
 21 39  1  0  0  0  0
 23 40  1  0  0  0  0
M  END
$$$$
