C15H24
APtclcactv06211804393D 0   0.00000     0.00000
 
 39 40  0  0  0  0  0  0  0  0999 V2000
    0.9362   -1.9389   -1.2416 C   0  0  0  0  0  0  0  0  0  0  0  0
    0.0130   -2.0113   -0.0236 C   0  0  0  0  0  0  0  0  0  0  0  0
    0.8512   -1.8727    1.2433 C   0  0  0  0  0  0  0  0  0  0  0  0
    2.0264   -0.9146    0.9754 C   0  0  0  0  0  0  0  0  0  0  0  0
    1.4619    0.4163    0.5870 C   0  0  0  0  0  0  0  0  0  0  0  0
    2.0956    1.1952   -0.2543 C   0  0  0  0  0  0  0  0  0  0  0  0
    3.4698    0.8164   -0.7432 C   0  0  0  0  0  0  0  0  0  0  0  0
    1.4503    2.4701   -0.7333 C   0  0  0  0  0  0  0  0  0  0  0  0
    0.1459    0.8368    1.1883 C   0  0  0  0  0  0  0  0  0  0  0  0
   -0.9810    0.3043    0.3378 C   0  0  0  0  0  0  0  0  0  0  0  0
   -1.0325   -0.9217   -0.1327 C   0  0  0  0  0  0  0  0  0  0  0  0
   -2.3502   -1.1396   -0.8598 C   0  0  0  0  0  0  0  0  0  0  0  0
   -2.8609    0.2786   -1.1921 C   0  0  0  0  0  0  0  0  0  0  0  0
   -2.1946    1.1073   -0.0727 C   0  0  0  0  0  0  0  0  0  0  0  0
   -3.1508    1.2685    1.1108 C   0  0  0  0  0  0  0  0  0  0  0  0
    1.6657   -2.7473   -1.1931 H   0  0  0  0  0  0  0  0  0  0  0  0
    0.3450   -2.0371   -2.1520 H   0  0  0  0  0  0  0  0  0  0  0  0
    1.4557   -0.9806   -1.2473 H   0  0  0  0  0  0  0  0  0  0  0  0
   -0.4860   -2.9803   -0.0144 H   0  0  0  0  0  0  0  0  0  0  0  0
    0.2324   -1.4735    2.0469 H   0  0  0  0  0  0  0  0  0  0  0  0
    1.2375   -2.8501    1.5325 H   0  0  0  0  0  0  0  0  0  0  0  0
    2.6290   -0.8098    1.8776 H   0  0  0  0  0  0  0  0  0  0  0  0
    2.6416   -1.3043    0.1644 H   0  0  0  0  0  0  0  0  0  0  0  0
    3.3807    0.2163   -1.6487 H   0  0  0  0  0  0  0  0  0  0  0  0
    4.0399    1.7197   -0.9605 H   0  0  0  0  0  0  0  0  0  0  0  0
    3.9828    0.2393    0.0261 H   0  0  0  0  0  0  0  0  0  0  0  0
    1.3262    3.1526    0.1074 H   0  0  0  0  0  0  0  0  0  0  0  0
    2.0828    2.9358   -1.4890 H   0  0  0  0  0  0  0  0  0  0  0  0
    0.4752    2.2439   -1.1647 H   0  0  0  0  0  0  0  0  0  0  0  0
    0.0617    0.4345    2.1978 H   0  0  0  0  0  0  0  0  0  0  0  0
    0.0928    1.9249    1.2235 H   0  0  0  0  0  0  0  0  0  0  0  0
   -2.1882   -1.7083   -1.7754 H   0  0  0  0  0  0  0  0  0  0  0  0
   -3.0593   -1.6557   -0.2125 H   0  0  0  0  0  0  0  0  0  0  0  0
   -2.5161    0.5991   -2.1752 H   0  0  0  0  0  0  0  0  0  0  0  0
   -3.9476    0.3299   -1.1238 H   0  0  0  0  0  0  0  0  0  0  0  0
   -1.8925    2.0833   -0.4524 H   0  0  0  0  0  0  0  0  0  0  0  0
   -3.4323    0.2850    1.4871 H   0  0  0  0  0  0  0  0  0  0  0  0
   -2.6576    1.8328    1.9022 H   0  0  0  0  0  0  0  0  0  0  0  0
   -4.0439    1.8025    0.7862 H   0  0  0  0  0  0  0  0  0  0  0  0
  1  2  1  0  0  0  0
  2  3  1  0  0  0  0
  3  4  1  0  0  0  0
  4  5  1  0  0  0  0
  5  6  2  0  0  0  0
  6  7  1  0  0  0  0
  6  8  1  0  0  0  0
  5  9  1  0  0  0  0
  9 10  1  0  0  0  0
 10 11  2  0  0  0  0
  2 11  1  0  0  0  0
 11 12  1  0  0  0  0
 12 13  1  0  0  0  0
 13 14  1  0  0  0  0
 10 14  1  0  0  0  0
 14 15  1  0  0  0  0
  1 16  1  0  0  0  0
  1 17  1  0  0  0  0
  1 18  1  0  0  0  0
  2 19  1  0  0  0  0
  3 20  1  0  0  0  0
  3 21  1  0  0  0  0
  4 22  1  0  0  0  0
  4 23  1  0  0  0  0
  7 24  1  0  0  0  0
  7 25  1  0  0  0  0
  7 26  1  0  0  0  0
  8 27  1  0  0  0  0
  8 28  1  0  0  0  0
  8 29  1  0  0  0  0
  9 30  1  0  0  0  0
  9 31  1  0  0  0  0
 12 32  1  0  0  0  0
 12 33  1  0  0  0  0
 13 34  1  0  0  0  0
 13 35  1  0  0  0  0
 14 36  1  0  0  0  0
 15 37  1  0  0  0  0
 15 38  1  0  0  0  0
 15 39  1  0  0  0  0
M  END
$$$$
