C12H20O2
APtclcactv06281817233D 0   0.00000     0.00000
 
 34 35  0  0  0  0  0  0  0  0999 V2000
    3.9050   -0.8669   -0.2640 C   0  0  0  0  0  0  0  0  0  0  0  0
    2.7501    0.0611    0.0115 C   0  0  0  0  0  0  0  0  0  0  0  0
    2.9569    1.2244    0.2646 O   0  0  0  0  0  0  0  0  0  0  0  0
    1.4916   -0.4045   -0.0242 O   0  0  0  0  0  0  0  0  0  0  0  0
    0.4290    0.5459    0.2512 C   0  0  0  0  0  0  0  0  0  0  0  0
   -0.0689    1.1929   -1.0614 C   0  0  0  0  0  0  0  0  0  0  0  0
   -1.5722    0.7894   -1.1543 C   0  0  0  0  0  0  0  0  0  0  0  0
   -2.2666    1.6079   -0.0232 C   0  0  0  0  0  0  0  0  0  0  0  0
   -1.7687    0.9609    1.2894 C   0  0  0  0  0  0  0  0  0  0  0  0
   -0.8203   -0.1875    0.8278 C   0  0  0  0  0  0  0  0  0  0  0  0
   -1.5311   -0.6356   -0.4978 C   0  0  0  0  0  0  0  0  0  0  0  0
   -2.9340   -1.1884   -0.2381 C   0  0  0  0  0  0  0  0  0  0  0  0
   -0.6760   -1.6147   -1.3048 C   0  0  0  0  0  0  0  0  0  0  0  0
   -0.5371   -1.2779    1.8631 C   0  0  0  0  0  0  0  0  0  0  0  0
    4.8413   -0.3137   -0.1903 H   0  0  0  0  0  0  0  0  0  0  0  0
    3.9028   -1.6763    0.4661 H   0  0  0  0  0  0  0  0  0  0  0  0
    3.8062   -1.2820   -1.2670 H   0  0  0  0  0  0  0  0  0  0  0  0
    0.7758    1.3120    0.9447 H   0  0  0  0  0  0  0  0  0  0  0  0
    0.0312    2.2772   -1.0125 H   0  0  0  0  0  0  0  0  0  0  0  0
    0.4840    0.7975   -1.9135 H   0  0  0  0  0  0  0  0  0  0  0  0
   -2.0252    0.8635   -2.1429 H   0  0  0  0  0  0  0  0  0  0  0  0
   -1.9635    2.6538   -0.0702 H   0  0  0  0  0  0  0  0  0  0  0  0
   -3.3503    1.5215   -0.1022 H   0  0  0  0  0  0  0  0  0  0  0  0
   -1.2208    1.6888    1.8878 H   0  0  0  0  0  0  0  0  0  0  0  0
   -2.6076    0.5564    1.8558 H   0  0  0  0  0  0  0  0  0  0  0  0
   -3.5461   -0.4192    0.2328 H   0  0  0  0  0  0  0  0  0  0  0  0
   -3.3880   -1.4859   -1.1833 H   0  0  0  0  0  0  0  0  0  0  0  0
   -2.8672   -2.0538    0.4212 H   0  0  0  0  0  0  0  0  0  0  0  0
   -0.4801   -2.5045   -0.7064 H   0  0  0  0  0  0  0  0  0  0  0  0
   -1.2074   -1.8976   -2.2134 H   0  0  0  0  0  0  0  0  0  0  0  0
    0.2686   -1.1395   -1.5693 H   0  0  0  0  0  0  0  0  0  0  0  0
   -1.4749   -1.7433    2.1665 H   0  0  0  0  0  0  0  0  0  0  0  0
    0.1182   -2.0317    1.4269 H   0  0  0  0  0  0  0  0  0  0  0  0
   -0.0528   -0.8353    2.7336 H   0  0  0  0  0  0  0  0  0  0  0  0
  1  2  1  0  0  0  0
  2  3  2  0  0  0  0
  2  4  1  0  0  0  0
  4  5  1  0  0  0  0
  5  6  1  0  0  0  0
  6  7  1  0  0  0  0
  7  8  1  0  0  0  0
  8  9  1  0  0  0  0
  9 10  1  0  0  0  0
  5 10  1  0  0  0  0
 10 11  1  0  0  0  0
  7 11  1  0  0  0  0
 11 12  1  0  0  0  0
 11 13  1  0  0  0  0
 10 14  1  0  0  0  0
  1 15  1  0  0  0  0
  1 16  1  0  0  0  0
  1 17  1  0  0  0  0
  5 18  1  0  0  0  0
  6 19  1  0  0  0  0
  6 20  1  0  0  0  0
  7 21  1  0  0  0  0
  8 22  1  0  0  0  0
  8 23  1  0  0  0  0
  9 24  1  0  0  0  0
  9 25  1  0  0  0  0
 12 26  1  0  0  0  0
 12 27  1  0  0  0  0
 12 28  1  0  0  0  0
 13 29  1  0  0  0  0
 13 30  1  0  0  0  0
 13 31  1  0  0  0  0
 14 32  1  0  0  0  0
 14 33  1  0  0  0  0
 14 34  1  0  0  0  0
M  END
$$$$
