C16H14O4
APtclcactv06211806253D 0   0.00000     0.00000
 
 34 36  0  0  0  0  0  0  0  0999 V2000
   -4.4302   -0.8189   -0.6511 C   0  0  0  0  0  0  0  0  0  0  0  0
   -3.6157   -1.5368    0.3939 C   0  0  0  0  0  0  0  0  0  0  0  0
   -2.3202   -1.6601    0.2440 C   0  0  0  0  0  0  0  0  0  0  0  0
   -1.6444   -1.0841   -0.9737 C   0  0  0  0  0  0  0  0  0  0  0  0
   -0.5384   -0.1557   -0.5424 C   0  0  0  0  0  0  0  0  0  0  0  0
    0.7536   -0.6434   -0.3464 C   0  0  0  0  0  0  0  0  0  0  0  0
    1.0590   -2.0624   -0.5553 C   0  0  0  0  0  0  0  0  0  0  0  0
    2.3334   -2.4813   -0.3503 C   0  0  0  0  0  0  0  0  0  0  0  0
    3.3201   -1.5564    0.0530 C   0  0  0  0  0  0  0  0  0  0  0  0
    4.4597   -1.9463    0.2329 O   0  0  0  0  0  0  0  0  0  0  0  0
    3.0364   -0.2591    0.2430 O   0  0  0  0  0  0  0  0  0  0  0  0
    1.7873    0.2263    0.0567 C   0  0  0  0  0  0  0  0  0  0  0  0
    1.5204    1.5730    0.2606 C   0  0  0  0  0  0  0  0  0  0  0  0
    0.2339    2.0646    0.0675 C   0  0  0  0  0  0  0  0  0  0  0  0
   -0.7951    1.1945   -0.3420 C   0  0  0  0  0  0  0  0  0  0  0  0
   -1.9983    2.0320   -0.4463 C   0  0  0  0  0  0  0  0  0  0  0  0
   -1.6204    3.2716   -0.1101 C   0  0  0  0  0  0  0  0  0  0  0  0
   -0.3089    3.2944    0.1865 O   0  0  0  0  0  0  0  0  0  0  0  0
    2.5177    2.4124    0.6500 O   0  0  0  0  0  0  0  0  0  0  0  0
   -4.2915   -2.1128    1.6115 C   0  0  0  0  0  0  0  0  0  0  0  0
   -4.3234   -1.3287   -1.6086 H   0  0  0  0  0  0  0  0  0  0  0  0
   -5.4795   -0.8167   -0.3558 H   0  0  0  0  0  0  0  0  0  0  0  0
   -4.0771    0.2081   -0.7449 H   0  0  0  0  0  0  0  0  0  0  0  0
   -1.7364   -2.1746    0.9929 H   0  0  0  0  0  0  0  0  0  0  0  0
   -1.2268   -1.8924   -1.5740 H   0  0  0  0  0  0  0  0  0  0  0  0
   -2.3731   -0.5307   -1.5660 H   0  0  0  0  0  0  0  0  0  0  0  0
    0.2904   -2.7555   -0.8637 H   0  0  0  0  0  0  0  0  0  0  0  0
    2.5918   -3.5199   -0.4950 H   0  0  0  0  0  0  0  0  0  0  0  0
   -2.9882    1.7119   -0.7362 H   0  0  0  0  0  0  0  0  0  0  0  0
   -2.2740    4.1310   -0.0854 H   0  0  0  0  0  0  0  0  0  0  0  0
    2.9968    2.8211   -0.0839 H   0  0  0  0  0  0  0  0  0  0  0  0
   -4.5966   -3.1389    1.4065 H   0  0  0  0  0  0  0  0  0  0  0  0
   -3.5974   -2.1012    2.4519 H   0  0  0  0  0  0  0  0  0  0  0  0
   -5.1692   -1.5149    1.8569 H   0  0  0  0  0  0  0  0  0  0  0  0
  1  2  1  0  0  0  0
  2  3  2  0  0  0  0
  3  4  1  0  0  0  0
  4  5  1  0  0  0  0
  5  6  2  0  0  0  0
  6  7  1  0  0  0  0
  7  8  2  0  0  0  0
  8  9  1  0  0  0  0
  9 10  2  0  0  0  0
  9 11  1  0  0  0  0
 11 12  1  0  0  0  0
  6 12  1  0  0  0  0
 12 13  2  0  0  0  0
 13 14  1  0  0  0  0
 14 15  2  0  0  0  0
  5 15  1  0  0  0  0
 15 16  1  0  0  0  0
 16 17  2  0  0  0  0
 17 18  1  0  0  0  0
 14 18  1  0  0  0  0
 13 19  1  0  0  0  0
  2 20  1  0  0  0  0
  1 21  1  0  0  0  0
  1 22  1  0  0  0  0
  1 23  1  0  0  0  0
  3 24  1  0  0  0  0
  4 25  1  0  0  0  0
  4 26  1  0  0  0  0
  7 27  1  0  0  0  0
  8 28  1  0  0  0  0
 16 29  1  0  0  0  0
 17 30  1  0  0  0  0
 19 31  1  0  0  0  0
 20 32  1  0  0  0  0
 20 33  1  0  0  0  0
 20 34  1  0  0  0  0
M  END
$$$$
