C10H16O
APtclcactv06291802553D 0   0.00000     0.00000
 
 27 27  0  0  0  0  0  0  0  0999 V2000
    3.2575    0.5330   -0.1230 C   0  0  0  0  0  0  0  0  0  0  0  0
    1.8332    0.4657    0.4317 C   0  0  0  0  0  0  0  0  0  0  0  0
    1.0441    1.6860   -0.0474 C   0  0  0  0  0  0  0  0  0  0  0  0
   -0.4352    1.4742    0.2983 C   0  0  0  0  0  0  0  0  0  0  0  0
   -0.9734    0.3259   -0.5580 C   0  0  0  0  0  0  0  0  0  0  0  0
   -0.0545   -0.8575   -0.4721 C   0  0  0  0  0  0  0  0  0  0  0  0
    1.1733   -0.7957   -0.0436 C   0  0  0  0  0  0  0  0  0  0  0  0
    1.9005   -1.9408   -0.0260 O   0  0  0  0  0  0  0  0  0  0  0  0
   -2.3417   -0.0671   -0.0637 C   0  0  0  0  0  0  0  0  0  0  0  0
   -3.3752    0.0121   -0.8647 C   0  0  0  0  0  0  0  0  0  0  0  0
   -2.5210   -0.5513    1.3521 C   0  0  0  0  0  0  0  0  0  0  0  0
    3.7427    1.4426    0.2310 H   0  0  0  0  0  0  0  0  0  0  0  0
    3.8214   -0.3356    0.2172 H   0  0  0  0  0  0  0  0  0  0  0  0
    3.2232    0.5400   -1.2125 H   0  0  0  0  0  0  0  0  0  0  0  0
    1.8695    0.4638    1.5211 H   0  0  0  0  0  0  0  0  0  0  0  0
    1.4130    2.5808    0.4540 H   0  0  0  0  0  0  0  0  0  0  0  0
    1.1563    1.7944   -1.1262 H   0  0  0  0  0  0  0  0  0  0  0  0
   -0.5321    1.2206    1.3539 H   0  0  0  0  0  0  0  0  0  0  0  0
   -0.9954    2.3845    0.0843 H   0  0  0  0  0  0  0  0  0  0  0  0
   -1.0462    0.6522   -1.5955 H   0  0  0  0  0  0  0  0  0  0  0  0
   -0.4349   -1.8189   -0.7843 H   0  0  0  0  0  0  0  0  0  0  0  0
    1.4196   -2.7171   -0.3442 H   0  0  0  0  0  0  0  0  0  0  0  0
   -3.2467    0.3590   -1.8793 H   0  0  0  0  0  0  0  0  0  0  0  0
   -4.3558   -0.2696   -0.5104 H   0  0  0  0  0  0  0  0  0  0  0  0
   -2.7299    0.2979    2.0028 H   0  0  0  0  0  0  0  0  0  0  0  0
   -3.3533   -1.2539    1.3932 H   0  0  0  0  0  0  0  0  0  0  0  0
   -1.6094   -1.0480    1.6844 H   0  0  0  0  0  0  0  0  0  0  0  0
  1  2  1  0  0  0  0
  2  3  1  0  0  0  0
  3  4  1  0  0  0  0
  4  5  1  0  0  0  0
  5  6  1  0  0  0  0
  6  7  2  0  0  0  0
  2  7  1  0  0  0  0
  7  8  1  0  0  0  0
  5  9  1  0  0  0  0
  9 10  2  0  0  0  0
  9 11  1  0  0  0  0
  1 12  1  0  0  0  0
  1 13  1  0  0  0  0
  1 14  1  0  0  0  0
  2 15  1  0  0  0  0
  3 16  1  0  0  0  0
  3 17  1  0  0  0  0
  4 18  1  0  0  0  0
  4 19  1  0  0  0  0
  5 20  1  0  0  0  0
  6 21  1  0  0  0  0
  8 22  1  0  0  0  0
 10 23  1  0  0  0  0
 10 24  1  0  0  0  0
 11 25  1  0  0  0  0
 11 26  1  0  0  0  0
 11 27  1  0  0  0  0
M  END
$$$$
