C8H10O2
APtclcactv06211806253D 0   0.00000     0.00000
 
 20 20  0  0  0  0  0  0  0  0999 V2000
   -1.1396    2.5064   -0.0133 C   0  0  0  0  0  0  0  0  0  0  0  0
   -0.3863    1.2012   -0.0139 C   0  0  0  0  0  0  0  0  0  0  0  0
    0.9951    1.2011   -0.0149 C   0  0  0  0  0  0  0  0  0  0  0  0
    1.6884   -0.0001   -0.0150 C   0  0  0  0  0  0  0  0  0  0  0  0
    0.9948   -1.2012   -0.0146 C   0  0  0  0  0  0  0  0  0  0  0  0
   -0.3865   -1.2011   -0.0136 C   0  0  0  0  0  0  0  0  0  0  0  0
   -1.0799    0.0001   -0.0078 C   0  0  0  0  0  0  0  0  0  0  0  0
   -2.4397    0.0003   -0.0069 O   0  0  0  0  0  0  0  0  0  0  0  0
   -1.1401   -2.5061   -0.0136 C   0  0  0  0  0  0  0  0  0  0  0  0
    3.0483   -0.0003   -0.0159 O   0  0  0  0  0  0  0  0  0  0  0  0
   -1.3220    2.8212   -1.0408 H   0  0  0  0  0  0  0  0  0  0  0  0
   -2.0917    2.3761    0.5011 H   0  0  0  0  0  0  0  0  0  0  0  0
   -0.5501    3.2659    0.5002 H   0  0  0  0  0  0  0  0  0  0  0  0
    1.5351    2.1363   -0.0159 H   0  0  0  0  0  0  0  0  0  0  0  0
    1.5347   -2.1366   -0.0154 H   0  0  0  0  0  0  0  0  0  0  0  0
   -2.8324   -0.0036    0.8768 H   0  0  0  0  0  0  0  0  0  0  0  0
   -1.3211   -2.8212    1.0140 H   0  0  0  0  0  0  0  0  0  0  0  0
   -2.0929   -2.3755   -0.5268 H   0  0  0  0  0  0  0  0  0  0  0  0
   -0.5515   -3.2656   -0.5282 H   0  0  0  0  0  0  0  0  0  0  0  0
    3.4422   -0.0000    0.8672 H   0  0  0  0  0  0  0  0  0  0  0  0
  1  2  1  0  0  0  0
  2  3  2  0  0  0  0
  3  4  1  0  0  0  0
  4  5  2  0  0  0  0
  5  6  1  0  0  0  0
  6  7  2  0  0  0  0
  2  7  1  0  0  0  0
  7  8  1  0  0  0  0
  6  9  1  0  0  0  0
  4 10  1  0  0  0  0
  1 11  1  0  0  0  0
  1 12  1  0  0  0  0
  1 13  1  0  0  0  0
  3 14  1  0  0  0  0
  5 15  1  0  0  0  0
  8 16  1  0  0  0  0
  9 17  1  0  0  0  0
  9 18  1  0  0  0  0
  9 19  1  0  0  0  0
 10 20  1  0  0  0  0
M  END
$$$$
