C7H11N3O
APtclcactv06211806253D 0   0.00000     0.00000
 
 22 22  0  0  0  0  0  0  0  0999 V2000
    4.4901   -0.4226   -0.0743 C   0  0  0  0  0  0  0  0  0  0  0  0
    3.1231    0.1986    0.0539 C   0  0  0  0  0  0  0  0  0  0  0  0
    3.0150    1.3777    0.3167 O   0  0  0  0  0  0  0  0  0  0  0  0
    2.0206   -0.5561   -0.1235 N   0  0  0  0  0  0  0  0  0  0  0  0
    0.6917    0.0478    0.0011 C   0  0  0  0  0  0  0  0  0  0  0  0
   -0.3780   -1.0180   -0.2455 C   0  0  0  0  0  0  0  0  0  0  0  0
   -1.7450   -0.3968   -0.1173 C   0  0  0  0  0  0  0  0  0  0  0  0
   -2.4255    0.2521   -1.0814 C   0  0  0  0  0  0  0  0  0  0  0  0
   -3.5980    0.6499   -0.5657 N   0  0  0  0  0  0  0  0  0  0  0  0
   -3.6699    0.2722    0.6814 C   0  0  0  0  0  0  0  0  0  0  0  0
   -2.5361   -0.3888    0.9996 N   0  0  0  0  0  0  0  0  0  0  0  0
    5.2521    0.3367    0.1014 H   0  0  0  0  0  0  0  0  0  0  0  0
    4.5966   -1.2211    0.6600 H   0  0  0  0  0  0  0  0  0  0  0  0
    4.6102   -0.8327   -1.0770 H   0  0  0  0  0  0  0  0  0  0  0  0
    2.1070   -1.4991   -0.3336 H   0  0  0  0  0  0  0  0  0  0  0  0
    0.5715    0.4579    1.0039 H   0  0  0  0  0  0  0  0  0  0  0  0
    0.5851    0.8463   -0.7332 H   0  0  0  0  0  0  0  0  0  0  0  0
   -0.2578   -1.4281   -1.2483 H   0  0  0  0  0  0  0  0  0  0  0  0
   -0.2714   -1.8164    0.4888 H   0  0  0  0  0  0  0  0  0  0  0  0
   -2.0865    0.4224   -2.0926 H   0  0  0  0  0  0  0  0  0  0  0  0
   -4.5002    0.4549    1.3475 H   0  0  0  0  0  0  0  0  0  0  0  0
   -2.3204   -0.7802    1.8606 H   0  0  0  0  0  0  0  0  0  0  0  0
  1  2  1  0  0  0  0
  2  3  2  0  0  0  0
  2  4  1  0  0  0  0
  4  5  1  0  0  0  0
  5  6  1  0  0  0  0
  6  7  1  0  0  0  0
  7  8  2  0  0  0  0
  8  9  1  0  0  0  0
  9 10  2  0  0  0  0
 10 11  1  0  0  0  0
  7 11  1  0  0  0  0
  1 12  1  0  0  0  0
  1 13  1  0  0  0  0
  1 14  1  0  0  0  0
  4 15  1  0  0  0  0
  5 16  1  0  0  0  0
  5 17  1  0  0  0  0
  6 18  1  0  0  0  0
  6 19  1  0  0  0  0
  8 20  1  0  0  0  0
 10 21  1  0  0  0  0
 11 22  1  0  0  0  0
M  END
$$$$
