C7H7N5O2
APtclcactv06211806253D 0   0.00000     0.00000
 
 21 22  0  0  0  0  0  0  0  0999 V2000
   -1.8905    1.2240    0.0002 C   0  0  0  0  0  0  0  0  0  0  0  0
   -2.0966   -0.1496   -0.0002 C   0  0  0  0  0  0  0  0  0  0  0  0
   -1.0709   -0.9790   -0.0002 N   0  0  0  0  0  0  0  0  0  0  0  0
    0.1621   -0.4933   -0.0004 C   0  0  0  0  0  0  0  0  0  0  0  0
    0.3731    0.8973   -0.0005 C   0  0  0  0  0  0  0  0  0  0  0  0
   -0.6661    1.7193    0.0000 N   0  0  0  0  0  0  0  0  0  0  0  0
    1.6703    1.3658   -0.0002 N   0  0  0  0  0  0  0  0  0  0  0  0
    2.7158    0.4978    0.0002 C   0  0  0  0  0  0  0  0  0  0  0  0
    2.5626   -0.8096   -0.0001 N   0  0  0  0  0  0  0  0  0  0  0  0
    1.3479   -1.3755    0.0000 C   0  0  0  0  0  0  0  0  0  0  0  0
    1.2239   -2.5885    0.0001 O   0  0  0  0  0  0  0  0  0  0  0  0
    3.9844    1.0054    0.0005 N   0  0  0  0  0  0  0  0  0  0  0  0
   -3.5011   -0.6959    0.0000 C   0  0  0  0  0  0  0  0  0  0  0  0
   -4.4334    0.3871    0.0006 O   0  0  0  0  0  0  0  0  0  0  0  0
   -2.7386    1.8927   -0.0040 H   0  0  0  0  0  0  0  0  0  0  0  0
    1.8374    2.3213   -0.0007 H   0  0  0  0  0  0  0  0  0  0  0  0
    4.1226    1.9655    0.0005 H   0  0  0  0  0  0  0  0  0  0  0  0
    4.7468    0.4056    0.0008 H   0  0  0  0  0  0  0  0  0  0  0  0
   -3.6537   -1.3062   -0.8901 H   0  0  0  0  0  0  0  0  0  0  0  0
   -3.6533   -1.3067    0.8899 H   0  0  0  0  0  0  0  0  0  0  0  0
   -5.3595    0.1088    0.0007 H   0  0  0  0  0  0  0  0  0  0  0  0
  1  2  2  0  0  0  0
  2  3  1  0  0  0  0
  3  4  2  0  0  0  0
  4  5  1  0  0  0  0
  5  6  2  0  0  0  0
  1  6  1  0  0  0  0
  5  7  1  0  0  0  0
  7  8  1  0  0  0  0
  8  9  2  0  0  0  0
  9 10  1  0  0  0  0
  4 10  1  0  0  0  0
 10 11  2  0  0  0  0
  8 12  1  0  0  0  0
  2 13  1  0  0  0  0
 13 14  1  0  0  0  0
  1 15  1  0  0  0  0
  7 16  1  0  0  0  0
 12 17  1  0  0  0  0
 12 18  1  0  0  0  0
 13 19  1  0  0  0  0
 13 20  1  0  0  0  0
 14 21  1  0  0  0  0
M  END
$$$$
