C21H20O6
APtclcactv06291802553D 0   0.00000     0.00000
 
 47 49  0  0  0  0  0  0  0  0999 V2000
    4.6465    3.6368   -0.1978 C   0  0  0  0  0  0  0  0  0  0  0  0
    5.6221    2.6100   -0.0077 O   0  0  0  0  0  0  0  0  0  0  0  0
    5.1663    1.3306    0.0617 C   0  0  0  0  0  0  0  0  0  0  0  0
    6.0644    0.2799    0.2462 C   0  0  0  0  0  0  0  0  0  0  0  0
    5.6039   -1.0283    0.3178 C   0  0  0  0  0  0  0  0  0  0  0  0
    4.2573   -1.2955    0.2063 C   0  0  0  0  0  0  0  0  0  0  0  0
    3.3491   -0.2461    0.0209 C   0  0  0  0  0  0  0  0  0  0  0  0
    3.8140    1.0730   -0.0449 C   0  0  0  0  0  0  0  0  0  0  0  0
    1.9123   -0.5278   -0.0983 C   0  0  0  0  0  0  0  0  0  0  0  0
    1.4648   -1.8027   -0.0290 C   0  0  0  0  0  0  0  0  0  0  0  0
    0.0814   -2.0739   -0.1437 C   0  0  0  0  0  0  0  0  0  0  0  0
   -0.3727   -3.3785   -0.0724 C   0  0  0  0  0  0  0  0  0  0  0  0
   -1.7353   -3.6536   -0.1899 C   0  0  0  0  0  0  0  0  0  0  0  0
   -2.1378   -4.7995   -0.1202 O   0  0  0  0  0  0  0  0  0  0  0  0
   -2.7063   -2.5175   -0.4039 C   0  0  0  0  0  0  0  0  0  0  0  0
   -2.1108   -1.2414    0.2024 C   0  0  0  0  0  0  0  0  0  0  0  0
   -0.7922   -1.0557   -0.3173 O   0  0  0  0  0  0  0  0  0  0  0  0
   -2.9709   -0.0591   -0.1631 C   0  0  0  0  0  0  0  0  0  0  0  0
   -3.8778    0.4430    0.7515 C   0  0  0  0  0  0  0  0  0  0  0  0
   -4.6694    1.5300    0.4170 C   0  0  0  0  0  0  0  0  0  0  0  0
   -4.5489    2.1138   -0.8404 C   0  0  0  0  0  0  0  0  0  0  0  0
   -3.6379    1.6056   -1.7525 C   0  0  0  0  0  0  0  0  0  0  0  0
   -2.8472    0.5245   -1.4103 C   0  0  0  0  0  0  0  0  0  0  0  0
   -5.3239    3.1805   -1.1735 O   0  0  0  0  0  0  0  0  0  0  0  0
   -5.5624    2.0248    1.3154 O   0  0  0  0  0  0  0  0  0  0  0  0
   -5.6320    1.3750    2.5862 C   0  0  0  0  0  0  0  0  0  0  0  0
    7.3937    0.5367    0.3559 O   0  0  0  0  0  0  0  0  0  0  0  0
    5.1425    4.6067   -0.2353 H   0  0  0  0  0  0  0  0  0  0  0  0
    4.1149    3.4641   -1.1336 H   0  0  0  0  0  0  0  0  0  0  0  0
    3.9381    3.6227    0.6305 H   0  0  0  0  0  0  0  0  0  0  0  0
    6.3037   -1.8385    0.4608 H   0  0  0  0  0  0  0  0  0  0  0  0
    3.9022   -2.3139    0.2616 H   0  0  0  0  0  0  0  0  0  0  0  0
    3.1175    1.8860   -0.1878 H   0  0  0  0  0  0  0  0  0  0  0  0
    1.2132    0.2829   -0.2413 H   0  0  0  0  0  0  0  0  0  0  0  0
    2.1639   -2.6134    0.1140 H   0  0  0  0  0  0  0  0  0  0  0  0
    0.3293   -4.1860    0.0742 H   0  0  0  0  0  0  0  0  0  0  0  0
   -2.8704   -2.3729   -1.4717 H   0  0  0  0  0  0  0  0  0  0  0  0
   -3.6524   -2.7480    0.0859 H   0  0  0  0  0  0  0  0  0  0  0  0
   -2.0624   -1.3399    1.2868 H   0  0  0  0  0  0  0  0  0  0  0  0
   -3.9696   -0.0122    1.7265 H   0  0  0  0  0  0  0  0  0  0  0  0
   -3.5424    2.0569   -2.7290 H   0  0  0  0  0  0  0  0  0  0  0  0
   -2.1375    0.1293   -2.1221 H   0  0  0  0  0  0  0  0  0  0  0  0
   -4.9294    4.0363   -0.9565 H   0  0  0  0  0  0  0  0  0  0  0  0
   -5.9071    0.3298    2.4452 H   0  0  0  0  0  0  0  0  0  0  0  0
   -4.6605    1.4320    3.0771 H   0  0  0  0  0  0  0  0  0  0  0  0
   -6.3815    1.8676    3.2056 H   0  0  0  0  0  0  0  0  0  0  0  0
    7.6911    0.6900    1.2632 H   0  0  0  0  0  0  0  0  0  0  0  0
  1  2  1  0  0  0  0
  2  3  1  0  0  0  0
  3  4  2  0  0  0  0
  4  5  1  0  0  0  0
  5  6  2  0  0  0  0
  6  7  1  0  0  0  0
  7  8  2  0  0  0  0
  3  8  1  0  0  0  0
  7  9  1  0  0  0  0
  9 10  2  0  0  0  0
 10 11  1  0  0  0  0
 11 12  2  0  0  0  0
 12 13  1  0  0  0  0
 13 14  2  0  0  0  0
 13 15  1  0  0  0  0
 15 16  1  0  0  0  0
 16 17  1  0  0  0  0
 11 17  1  0  0  0  0
 16 18  1  0  0  0  0
 18 19  2  0  0  0  0
 19 20  1  0  0  0  0
 20 21  2  0  0  0  0
 21 22  1  0  0  0  0
 22 23  2  0  0  0  0
 18 23  1  0  0  0  0
 21 24  1  0  0  0  0
 20 25  1  0  0  0  0
 25 26  1  0  0  0  0
  4 27  1  0  0  0  0
  1 28  1  0  0  0  0
  1 29  1  0  0  0  0
  1 30  1  0  0  0  0
  5 31  1  0  0  0  0
  6 32  1  0  0  0  0
  8 33  1  0  0  0  0
  9 34  1  0  0  0  0
 10 35  1  0  0  0  0
 12 36  1  0  0  0  0
 15 37  1  0  0  0  0
 15 38  1  0  0  0  0
 16 39  1  0  0  0  0
 19 40  1  0  0  0  0
 22 41  1  0  0  0  0
 23 42  1  0  0  0  0
 24 43  1  0  0  0  0
 26 44  1  0  0  0  0
 26 45  1  0  0  0  0
 26 46  1  0  0  0  0
 27 47  1  0  0  0  0
M  END
$$$$
