C10H14O
APtclcactv06211804393D 0   0.00000     0.00000
 
 25 25  0  0  0  0  0  0  0  0999 V2000
    3.6589   -0.4162   -0.0030 C   0  0  0  0  0  0  0  0  0  0  0  0
    2.1572   -0.2897    0.0004 C   0  0  0  0  0  0  0  0  0  0  0  0
    1.5702    0.9604    0.0205 C   0  0  0  0  0  0  0  0  0  0  0  0
    0.1875    1.0763    0.0231 C   0  0  0  0  0  0  0  0  0  0  0  0
   -0.6018   -0.0643    0.0056 C   0  0  0  0  0  0  0  0  0  0  0  0
   -0.0096   -1.3124   -0.0145 C   0  0  0  0  0  0  0  0  0  0  0  0
    1.3682   -1.4251   -0.0224 C   0  0  0  0  0  0  0  0  0  0  0  0
   -2.1038    0.0579    0.0089 C   0  0  0  0  0  0  0  0  0  0  0  0
   -2.6717   -0.5995   -1.2505 C   0  0  0  0  0  0  0  0  0  0  0  0
   -2.6695   -0.6395    1.2476 C   0  0  0  0  0  0  0  0  0  0  0  0
   -0.3925    2.3051    0.0434 O   0  0  0  0  0  0  0  0  0  0  0  0
    4.0219   -0.4628    1.0237 H   0  0  0  0  0  0  0  0  0  0  0  0
    3.9457   -1.3254   -0.5314 H   0  0  0  0  0  0  0  0  0  0  0  0
    4.0952    0.4480   -0.5038 H   0  0  0  0  0  0  0  0  0  0  0  0
    2.1868    1.8470    0.0345 H   0  0  0  0  0  0  0  0  0  0  0  0
   -0.6237   -2.2008   -0.0282 H   0  0  0  0  0  0  0  0  0  0  0  0
    1.8291   -2.4017   -0.0381 H   0  0  0  0  0  0  0  0  0  0  0  0
   -2.3826    1.1115    0.0260 H   0  0  0  0  0  0  0  0  0  0  0  0
   -2.3930   -1.6531   -1.2677 H   0  0  0  0  0  0  0  0  0  0  0  0
   -3.7582   -0.5111   -1.2481 H   0  0  0  0  0  0  0  0  0  0  0  0
   -2.2687   -0.1026   -2.1330 H   0  0  0  0  0  0  0  0  0  0  0  0
   -2.2649   -0.1712    2.1449 H   0  0  0  0  0  0  0  0  0  0  0  0
   -3.7559   -0.5512    1.2500 H   0  0  0  0  0  0  0  0  0  0  0  0
   -2.3907   -1.6931    1.2305 H   0  0  0  0  0  0  0  0  0  0  0  0
   -0.5609    2.6751   -0.8341 H   0  0  0  0  0  0  0  0  0  0  0  0
  1  2  1  0  0  0  0
  2  3  2  0  0  0  0
  3  4  1  0  0  0  0
  4  5  2  0  0  0  0
  5  6  1  0  0  0  0
  6  7  2  0  0  0  0
  2  7  1  0  0  0  0
  5  8  1  0  0  0  0
  8  9  1  0  0  0  0
  8 10  1  0  0  0  0
  4 11  1  0  0  0  0
  1 12  1  0  0  0  0
  1 13  1  0  0  0  0
  1 14  1  0  0  0  0
  3 15  1  0  0  0  0
  6 16  1  0  0  0  0
  7 17  1  0  0  0  0
  8 18  1  0  0  0  0
  9 19  1  0  0  0  0
  9 20  1  0  0  0  0
  9 21  1  0  0  0  0
 10 22  1  0  0  0  0
 10 23  1  0  0  0  0
 10 24  1  0  0  0  0
 11 25  1  0  0  0  0
M  END
$$$$
