C10H8O4
APtclcactv06211806263D 0   0.00000     0.00000
 
 22 23  0  0  0  0  0  0  0  0999 V2000
    3.0392    2.3231   -0.0013 C   0  0  0  0  0  0  0  0  0  0  0  0
    3.0472    0.8941   -0.0083 O   0  0  0  0  0  0  0  0  0  0  0  0
    1.8405    0.2708   -0.0087 C   0  0  0  0  0  0  0  0  0  0  0  0
    1.7814   -1.1257   -0.0154 C   0  0  0  0  0  0  0  0  0  0  0  0
    0.5617   -1.7678   -0.0154 C   0  0  0  0  0  0  0  0  0  0  0  0
   -0.6178   -1.0137   -0.0087 C   0  0  0  0  0  0  0  0  0  0  0  0
   -1.9284   -1.6665   -0.0080 C   0  0  0  0  0  0  0  0  0  0  0  0
   -3.0370   -0.8811   -0.0010 C   0  0  0  0  0  0  0  0  0  0  0  0
   -2.9019    0.5222    0.0054 C   0  0  0  0  0  0  0  0  0  0  0  0
   -3.9038    1.2148    0.0120 O   0  0  0  0  0  0  0  0  0  0  0  0
   -1.6977    1.1144    0.0047 O   0  0  0  0  0  0  0  0  0  0  0  0
   -0.5560    0.3921   -0.0021 C   0  0  0  0  0  0  0  0  0  0  0  0
    0.6791    1.0231    0.0032 C   0  0  0  0  0  0  0  0  0  0  0  0
    2.9307   -1.8532   -0.0223 O   0  0  0  0  0  0  0  0  0  0  0  0
    4.0648    2.6921   -0.0017 H   0  0  0  0  0  0  0  0  0  0  0  0
    2.5215    2.6878   -0.8884 H   0  0  0  0  0  0  0  0  0  0  0  0
    2.5253    2.6792    0.8915 H   0  0  0  0  0  0  0  0  0  0  0  0
    0.5162   -2.8469   -0.0209 H   0  0  0  0  0  0  0  0  0  0  0  0
   -2.0117   -2.7433   -0.0133 H   0  0  0  0  0  0  0  0  0  0  0  0
   -4.0191   -1.3305   -0.0006 H   0  0  0  0  0  0  0  0  0  0  0  0
    0.7344    2.1016    0.0129 H   0  0  0  0  0  0  0  0  0  0  0  0
    3.2657   -2.0679    0.8591 H   0  0  0  0  0  0  0  0  0  0  0  0
  1  2  1  0  0  0  0
  2  3  1  0  0  0  0
  3  4  2  0  0  0  0
  4  5  1  0  0  0  0
  5  6  2  0  0  0  0
  6  7  1  0  0  0  0
  7  8  2  0  0  0  0
  8  9  1  0  0  0  0
  9 10  2  0  0  0  0
  9 11  1  0  0  0  0
 11 12  1  0  0  0  0
  6 12  1  0  0  0  0
 12 13  2  0  0  0  0
  3 13  1  0  0  0  0
  4 14  1  0  0  0  0
  1 15  1  0  0  0  0
  1 16  1  0  0  0  0
  1 17  1  0  0  0  0
  5 18  1  0  0  0  0
  7 19  1  0  0  0  0
  8 20  1  0  0  0  0
 13 21  1  0  0  0  0
 14 22  1  0  0  0  0
M  END
$$$$
