C20H40O2
APtclcactv06211806263D 0   0.00000     0.00000
 
 62 61  0  0  0  0  0  0  0  0999 V2000
   13.0459   -0.3466   -0.0000 C   0  0  0  0  0  0  0  0  0  0  0  0
   11.7881    0.5244    0.0000 C   0  0  0  0  0  0  0  0  0  0  0  0
   10.5476   -0.3711   -0.0000 C   0  0  0  0  0  0  0  0  0  0  0  0
    9.2897    0.4999    0.0000 C   0  0  0  0  0  0  0  0  0  0  0  0
    8.0492   -0.3956   -0.0000 C   0  0  0  0  0  0  0  0  0  0  0  0
    6.7914    0.4754    0.0000 C   0  0  0  0  0  0  0  0  0  0  0  0
    5.5509   -0.4202   -0.0000 C   0  0  0  0  0  0  0  0  0  0  0  0
    4.2930    0.4509    0.0000 C   0  0  0  0  0  0  0  0  0  0  0  0
    3.0525   -0.4447   -0.0000 C   0  0  0  0  0  0  0  0  0  0  0  0
    1.7946    0.4264    0.0000 C   0  0  0  0  0  0  0  0  0  0  0  0
    0.5541   -0.4692   -0.0000 C   0  0  0  0  0  0  0  0  0  0  0  0
   -0.7037    0.4018    0.0000 C   0  0  0  0  0  0  0  0  0  0  0  0
   -1.9442   -0.4937    0.0000 C   0  0  0  0  0  0  0  0  0  0  0  0
   -3.2021    0.3773    0.0000 C   0  0  0  0  0  0  0  0  0  0  0  0
   -4.4426   -0.5182    0.0000 C   0  0  0  0  0  0  0  0  0  0  0  0
   -5.7004    0.3528   -0.0000 C   0  0  0  0  0  0  0  0  0  0  0  0
   -6.9409   -0.5428    0.0000 C   0  0  0  0  0  0  0  0  0  0  0  0
   -8.1988    0.3283   -0.0000 C   0  0  0  0  0  0  0  0  0  0  0  0
   -9.3761   -0.5216    0.0000 O   0  0  0  0  0  0  0  0  0  0  0  0
  -10.5702    0.0914   -0.0000 C   0  0  0  0  0  0  0  0  0  0  0  0
  -10.6298    1.2982   -0.0000 O   0  0  0  0  0  0  0  0  0  0  0  0
  -11.8366   -0.7256    0.0000 C   0  0  0  0  0  0  0  0  0  0  0  0
   13.9297    0.2914    0.0000 H   0  0  0  0  0  0  0  0  0  0  0  0
   13.0521   -0.9759    0.8900 H   0  0  0  0  0  0  0  0  0  0  0  0
   13.0521   -0.9759   -0.8900 H   0  0  0  0  0  0  0  0  0  0  0  0
   11.7819    1.1537    0.8900 H   0  0  0  0  0  0  0  0  0  0  0  0
   11.7819    1.1537   -0.8900 H   0  0  0  0  0  0  0  0  0  0  0  0
   10.5538   -1.0004   -0.8900 H   0  0  0  0  0  0  0  0  0  0  0  0
   10.5538   -1.0004    0.8900 H   0  0  0  0  0  0  0  0  0  0  0  0
    9.2835    1.1292    0.8900 H   0  0  0  0  0  0  0  0  0  0  0  0
    9.2835    1.1292   -0.8900 H   0  0  0  0  0  0  0  0  0  0  0  0
    8.0554   -1.0249   -0.8900 H   0  0  0  0  0  0  0  0  0  0  0  0
    8.0554   -1.0249    0.8900 H   0  0  0  0  0  0  0  0  0  0  0  0
    6.7852    1.1047    0.8900 H   0  0  0  0  0  0  0  0  0  0  0  0
    6.7852    1.1047   -0.8900 H   0  0  0  0  0  0  0  0  0  0  0  0
    5.5570   -1.0494   -0.8900 H   0  0  0  0  0  0  0  0  0  0  0  0
    5.5570   -1.0494    0.8900 H   0  0  0  0  0  0  0  0  0  0  0  0
    4.2868    1.0802    0.8900 H   0  0  0  0  0  0  0  0  0  0  0  0
    4.2868    1.0802   -0.8900 H   0  0  0  0  0  0  0  0  0  0  0  0
    3.0587   -1.0740   -0.8900 H   0  0  0  0  0  0  0  0  0  0  0  0
    3.0587   -1.0740    0.8900 H   0  0  0  0  0  0  0  0  0  0  0  0
    1.7885    1.0556    0.8900 H   0  0  0  0  0  0  0  0  0  0  0  0
    1.7885    1.0556   -0.8900 H   0  0  0  0  0  0  0  0  0  0  0  0
    0.5603   -1.0985   -0.8900 H   0  0  0  0  0  0  0  0  0  0  0  0
    0.5603   -1.0985    0.8900 H   0  0  0  0  0  0  0  0  0  0  0  0
   -0.7099    1.0311    0.8900 H   0  0  0  0  0  0  0  0  0  0  0  0
   -0.7099    1.0311   -0.8900 H   0  0  0  0  0  0  0  0  0  0  0  0
   -1.9380   -1.1230   -0.8900 H   0  0  0  0  0  0  0  0  0  0  0  0
   -1.9380   -1.1230    0.8900 H   0  0  0  0  0  0  0  0  0  0  0  0
   -3.2082    1.0066    0.8900 H   0  0  0  0  0  0  0  0  0  0  0  0
   -3.2082    1.0066   -0.8900 H   0  0  0  0  0  0  0  0  0  0  0  0
   -4.4364   -1.1475   -0.8900 H   0  0  0  0  0  0  0  0  0  0  0  0
   -4.4364   -1.1475    0.8900 H   0  0  0  0  0  0  0  0  0  0  0  0
   -5.7066    0.9821    0.8900 H   0  0  0  0  0  0  0  0  0  0  0  0
   -5.7066    0.9821   -0.8900 H   0  0  0  0  0  0  0  0  0  0  0  0
   -6.9348   -1.1720   -0.8900 H   0  0  0  0  0  0  0  0  0  0  0  0
   -6.9348   -1.1720    0.8900 H   0  0  0  0  0  0  0  0  0  0  0  0
   -8.2050    0.9576    0.8900 H   0  0  0  0  0  0  0  0  0  0  0  0
   -8.2050    0.9576   -0.8900 H   0  0  0  0  0  0  0  0  0  0  0  0
  -11.8633   -1.3543    0.8900 H   0  0  0  0  0  0  0  0  0  0  0  0
  -12.6990   -0.0590   -0.0000 H   0  0  0  0  0  0  0  0  0  0  0  0
  -11.8633   -1.3543   -0.8900 H   0  0  0  0  0  0  0  0  0  0  0  0
  1  2  1  0  0  0  0
  2  3  1  0  0  0  0
  3  4  1  0  0  0  0
  4  5  1  0  0  0  0
  5  6  1  0  0  0  0
  6  7  1  0  0  0  0
  7  8  1  0  0  0  0
  8  9  1  0  0  0  0
  9 10  1  0  0  0  0
 10 11  1  0  0  0  0
 11 12  1  0  0  0  0
 12 13  1  0  0  0  0
 13 14  1  0  0  0  0
 14 15  1  0  0  0  0
 15 16  1  0  0  0  0
 16 17  1  0  0  0  0
 17 18  1  0  0  0  0
 18 19  1  0  0  0  0
 19 20  1  0  0  0  0
 20 21  2  0  0  0  0
 20 22  1  0  0  0  0
  1 23  1  0  0  0  0
  1 24  1  0  0  0  0
  1 25  1  0  0  0  0
  2 26  1  0  0  0  0
  2 27  1  0  0  0  0
  3 28  1  0  0  0  0
  3 29  1  0  0  0  0
  4 30  1  0  0  0  0
  4 31  1  0  0  0  0
  5 32  1  0  0  0  0
  5 33  1  0  0  0  0
  6 34  1  0  0  0  0
  6 35  1  0  0  0  0
  7 36  1  0  0  0  0
  7 37  1  0  0  0  0
  8 38  1  0  0  0  0
  8 39  1  0  0  0  0
  9 40  1  0  0  0  0
  9 41  1  0  0  0  0
 10 42  1  0  0  0  0
 10 43  1  0  0  0  0
 11 44  1  0  0  0  0
 11 45  1  0  0  0  0
 12 46  1  0  0  0  0
 12 47  1  0  0  0  0
 13 48  1  0  0  0  0
 13 49  1  0  0  0  0
 14 50  1  0  0  0  0
 14 51  1  0  0  0  0
 15 52  1  0  0  0  0
 15 53  1  0  0  0  0
 16 54  1  0  0  0  0
 16 55  1  0  0  0  0
 17 56  1  0  0  0  0
 17 57  1  0  0  0  0
 18 58  1  0  0  0  0
 18 59  1  0  0  0  0
 22 60  1  0  0  0  0
 22 61  1  0  0  0  0
 22 62  1  0  0  0  0
M  END
$$$$
