C6H10O3
APtclcactv06211802133D 0   0.00000     0.00000
 
 19 18  0  0  0  0  0  0  0  0999 V2000
   -2.1967    1.0699   -0.8148 C   0  0  0  0  0  0  0  0  0  0  0  0
   -1.9846    0.0273    0.2847 C   0  0  0  0  0  0  0  0  0  0  0  0
   -3.1504   -0.9635    0.2798 C   0  0  0  0  0  0  0  0  0  0  0  0
   -0.6760   -0.7235    0.0300 C   0  0  0  0  0  0  0  0  0  0  0  0
    0.4835    0.2307    0.1564 C   0  0  0  0  0  0  0  0  0  0  0  0
    0.2839    1.3918    0.4227 O   0  0  0  0  0  0  0  0  0  0  0  0
    1.8768   -0.2583   -0.0474 C   0  0  0  0  0  0  0  0  0  0  0  0
    2.0772   -1.4240   -0.3148 O   0  0  0  0  0  0  0  0  0  0  0  0
    2.9124    0.5939    0.0655 O   0  0  0  0  0  0  0  0  0  0  0  0
   -1.3661    1.7758   -0.8113 H   0  0  0  0  0  0  0  0  0  0  0  0
   -2.2461    0.5719   -1.7831 H   0  0  0  0  0  0  0  0  0  0  0  0
   -3.1289    1.6049   -0.6333 H   0  0  0  0  0  0  0  0  0  0  0  0
   -1.9351    0.5254    1.2530 H   0  0  0  0  0  0  0  0  0  0  0  0
   -3.1998   -1.4615   -0.6885 H   0  0  0  0  0  0  0  0  0  0  0  0
   -2.9993   -1.7062    1.0631 H   0  0  0  0  0  0  0  0  0  0  0  0
   -4.0826   -0.4285    0.4613 H   0  0  0  0  0  0  0  0  0  0  0  0
   -0.5686   -1.5247    0.7612 H   0  0  0  0  0  0  0  0  0  0  0  0
   -0.6899   -1.1474   -0.9741 H   0  0  0  0  0  0  0  0  0  0  0  0
    3.7974    0.2305   -0.0754 H   0  0  0  0  0  0  0  0  0  0  0  0
  1  2  1  0  0  0  0
  2  3  1  0  0  0  0
  2  4  1  0  0  0  0
  4  5  1  0  0  0  0
  5  6  2  0  0  0  0
  5  7  1  0  0  0  0
  7  8  2  0  0  0  0
  7  9  1  0  0  0  0
  1 10  1  0  0  0  0
  1 11  1  0  0  0  0
  1 12  1  0  0  0  0
  2 13  1  0  0  0  0
  3 14  1  0  0  0  0
  3 15  1  0  0  0  0
  3 16  1  0  0  0  0
  4 17  1  0  0  0  0
  4 18  1  0  0  0  0
  9 19  1  0  0  0  0
M  END
$$$$
