C11H10
APtclcactv06211804393D 0   0.00000     0.00000
 
 21 22  0  0  0  0  0  0  0  0999 V2000
    1.8252    2.1745   -0.0008 C   0  0  0  0  0  0  0  0  0  0  0  0
    1.3716    0.7374   -0.0006 C   0  0  0  0  0  0  0  0  0  0  0  0
    2.2876   -0.2691   -0.0005 C   0  0  0  0  0  0  0  0  0  0  0  0
    1.8870   -1.6041   -0.0003 C   0  0  0  0  0  0  0  0  0  0  0  0
    0.5683   -1.9401   -0.0003 C   0  0  0  0  0  0  0  0  0  0  0  0
   -0.4071   -0.9282    0.0000 C   0  0  0  0  0  0  0  0  0  0  0  0
   -1.7780   -1.2360   -0.0005 C   0  0  0  0  0  0  0  0  0  0  0  0
   -2.6943   -0.2294   -0.0005 C   0  0  0  0  0  0  0  0  0  0  0  0
   -2.2939    1.1052   -0.0006 C   0  0  0  0  0  0  0  0  0  0  0  0
   -0.9748    1.4412   -0.0006 C   0  0  0  0  0  0  0  0  0  0  0  0
    0.0002    0.4295    0.0053 C   0  0  0  0  0  0  0  0  0  0  0  0
    1.9346    2.5208   -1.0285 H   0  0  0  0  0  0  0  0  0  0  0  0
    1.0859    2.7889    0.5130 H   0  0  0  0  0  0  0  0  0  0  0  0
    2.7833    2.2531    0.5130 H   0  0  0  0  0  0  0  0  0  0  0  0
    3.3407   -0.0297   -0.0009 H   0  0  0  0  0  0  0  0  0  0  0  0
    2.6345   -2.3836   -0.0005 H   0  0  0  0  0  0  0  0  0  0  0  0
    0.2728   -2.9789   -0.0008 H   0  0  0  0  0  0  0  0  0  0  0  0
   -2.1030   -2.2659   -0.0012 H   0  0  0  0  0  0  0  0  0  0  0  0
   -3.7475   -0.4687   -0.0009 H   0  0  0  0  0  0  0  0  0  0  0  0
   -3.0414    1.8848   -0.0010 H   0  0  0  0  0  0  0  0  0  0  0  0
   -0.6792    2.4799   -0.0013 H   0  0  0  0  0  0  0  0  0  0  0  0
  1  2  1  0  0  0  0
  2  3  2  0  0  0  0
  3  4  1  0  0  0  0
  4  5  2  0  0  0  0
  5  6  1  0  0  0  0
  6  7  2  0  0  0  0
  7  8  1  0  0  0  0
  8  9  2  0  0  0  0
  9 10  1  0  0  0  0
 10 11  2  0  0  0  0
  2 11  1  0  0  0  0
  6 11  1  0  0  0  0
  1 12  1  0  0  0  0
  1 13  1  0  0  0  0
  1 14  1  0  0  0  0
  3 15  1  0  0  0  0
  4 16  1  0  0  0  0
  5 17  1  0  0  0  0
  7 18  1  0  0  0  0
  8 19  1  0  0  0  0
  9 20  1  0  0  0  0
 10 21  1  0  0  0  0
M  END
$$$$
