C12H16O4
APtclcactv06281816273D 0   0.00000     0.00000
 
 32 32  0  0  0  0  0  0  0  0999 V2000
    4.5723    1.0366    0.0011 C   0  0  0  0  0  0  0  0  0  0  0  0
    3.0681    1.3164    0.0007 C   0  0  0  0  0  0  0  0  0  0  0  0
    2.3143    0.0115    0.0008 C   0  0  0  0  0  0  0  0  0  0  0  0
    2.9208   -1.0395    0.0012 O   0  0  0  0  0  0  0  0  0  0  0  0
    0.8496    0.0118    0.0005 C   0  0  0  0  0  0  0  0  0  0  0  0
    0.1454    1.2246    0.0001 C   0  0  0  0  0  0  0  0  0  0  0  0
   -1.2325    1.2184   -0.0002 C   0  0  0  0  0  0  0  0  0  0  0  0
   -1.9291    0.0081    0.0005 C   0  0  0  0  0  0  0  0  0  0  0  0
   -1.2406   -1.1954    0.0013 C   0  0  0  0  0  0  0  0  0  0  0  0
    0.1433   -1.2037   -0.0052 C   0  0  0  0  0  0  0  0  0  0  0  0
    0.8165   -2.3816   -0.0048 O   0  0  0  0  0  0  0  0  0  0  0  0
    0.0329   -3.5766    0.0025 C   0  0  0  0  0  0  0  0  0  0  0  0
   -3.2865    0.0098    0.0007 O   0  0  0  0  0  0  0  0  0  0  0  0
   -3.9369   -1.2626    0.0013 C   0  0  0  0  0  0  0  0  0  0  0  0
   -1.9162    2.3947   -0.0006 O   0  0  0  0  0  0  0  0  0  0  0  0
   -1.1415    3.5955   -0.0007 C   0  0  0  0  0  0  0  0  0  0  0  0
    5.1174    1.9804    0.0010 H   0  0  0  0  0  0  0  0  0  0  0  0
    4.8353    0.4651    0.8912 H   0  0  0  0  0  0  0  0  0  0  0  0
    4.8357    0.4647   -0.8887 H   0  0  0  0  0  0  0  0  0  0  0  0
    2.8047    1.8882    0.8905 H   0  0  0  0  0  0  0  0  0  0  0  0
    2.8050    1.8878   -0.8895 H   0  0  0  0  0  0  0  0  0  0  0  0
    0.6822    2.1618    0.0003 H   0  0  0  0  0  0  0  0  0  0  0  0
   -1.7852   -2.1280    0.0026 H   0  0  0  0  0  0  0  0  0  0  0  0
   -0.5918   -3.5960    0.8956 H   0  0  0  0  0  0  0  0  0  0  0  0
   -0.6002   -3.6014   -0.8844 H   0  0  0  0  0  0  0  0  0  0  0  0
    0.6931   -4.4440    0.0020 H   0  0  0  0  0  0  0  0  0  0  0  0
   -5.0173   -1.1184    0.0014 H   0  0  0  0  0  0  0  0  0  0  0  0
   -3.6449   -1.8203   -0.8885 H   0  0  0  0  0  0  0  0  0  0  0  0
   -3.6446   -1.8196    0.8915 H   0  0  0  0  0  0  0  0  0  0  0  0
   -0.5126    3.6220   -0.8906 H   0  0  0  0  0  0  0  0  0  0  0  0
   -1.8080    4.4579   -0.0011 H   0  0  0  0  0  0  0  0  0  0  0  0
   -0.5129    3.6224    0.8894 H   0  0  0  0  0  0  0  0  0  0  0  0
  1  2  1  0  0  0  0
  2  3  1  0  0  0  0
  3  4  2  0  0  0  0
  3  5  1  0  0  0  0
  5  6  2  0  0  0  0
  6  7  1  0  0  0  0
  7  8  2  0  0  0  0
  8  9  1  0  0  0  0
  9 10  2  0  0  0  0
  5 10  1  0  0  0  0
 10 11  1  0  0  0  0
 11 12  1  0  0  0  0
  8 13  1  0  0  0  0
 13 14  1  0  0  0  0
  7 15  1  0  0  0  0
 15 16  1  0  0  0  0
  1 17  1  0  0  0  0
  1 18  1  0  0  0  0
  1 19  1  0  0  0  0
  2 20  1  0  0  0  0
  2 21  1  0  0  0  0
  6 22  1  0  0  0  0
  9 23  1  0  0  0  0
 12 24  1  0  0  0  0
 12 25  1  0  0  0  0
 12 26  1  0  0  0  0
 14 27  1  0  0  0  0
 14 28  1  0  0  0  0
 14 29  1  0  0  0  0
 16 30  1  0  0  0  0
 16 31  1  0  0  0  0
 16 32  1  0  0  0  0
M  END
$$$$
