C8H8O4
APtclcactv06211806263D 0   0.00000     0.00000
 
 20 20  0  0  0  0  0  0  0  0999 V2000
    3.8143    0.3130   -0.0091 C   0  0  0  0  0  0  0  0  0  0  0  0
    2.5132    0.9038   -0.0144 O   0  0  0  0  0  0  0  0  0  0  0  0
    1.4500    0.0558   -0.0066 C   0  0  0  0  0  0  0  0  0  0  0  0
    1.6564   -1.3130    0.0059 C   0  0  0  0  0  0  0  0  0  0  0  0
    0.5785   -2.1835    0.0138 C   0  0  0  0  0  0  0  0  0  0  0  0
   -0.7096   -1.6962    0.0090 C   0  0  0  0  0  0  0  0  0  0  0  0
   -0.9350   -0.3159   -0.0035 C   0  0  0  0  0  0  0  0  0  0  0  0
    0.1543    0.5641   -0.0053 C   0  0  0  0  0  0  0  0  0  0  0  0
   -0.0523    1.9055   -0.0170 O   0  0  0  0  0  0  0  0  0  0  0  0
   -2.3122    0.2099   -0.0087 C   0  0  0  0  0  0  0  0  0  0  0  0
   -2.5044    1.4096   -0.0195 O   0  0  0  0  0  0  0  0  0  0  0  0
   -3.3579   -0.6399   -0.0013 O   0  0  0  0  0  0  0  0  0  0  0  0
    4.5700    1.0985   -0.0163 H   0  0  0  0  0  0  0  0  0  0  0  0
    3.9328   -0.2969    0.8864 H   0  0  0  0  0  0  0  0  0  0  0  0
    3.9326   -0.3131   -0.8934 H   0  0  0  0  0  0  0  0  0  0  0  0
    2.6630   -1.7044    0.0090 H   0  0  0  0  0  0  0  0  0  0  0  0
    0.7493   -3.2498    0.0235 H   0  0  0  0  0  0  0  0  0  0  0  0
   -1.5457   -2.3799    0.0145 H   0  0  0  0  0  0  0  0  0  0  0  0
   -0.1163    2.3012    0.8630 H   0  0  0  0  0  0  0  0  0  0  0  0
   -4.2420   -0.2482   -0.0051 H   0  0  0  0  0  0  0  0  0  0  0  0
  1  2  1  0  0  0  0
  2  3  1  0  0  0  0
  3  4  2  0  0  0  0
  4  5  1  0  0  0  0
  5  6  2  0  0  0  0
  6  7  1  0  0  0  0
  7  8  2  0  0  0  0
  3  8  1  0  0  0  0
  8  9  1  0  0  0  0
  7 10  1  0  0  0  0
 10 11  2  0  0  0  0
 10 12  1  0  0  0  0
  1 13  1  0  0  0  0
  1 14  1  0  0  0  0
  1 15  1  0  0  0  0
  4 16  1  0  0  0  0
  5 17  1  0  0  0  0
  6 18  1  0  0  0  0
  9 19  1  0  0  0  0
 12 20  1  0  0  0  0
M  END
$$$$
