C7H5N5O3
APtclcactv06211806263D 0   0.00000     0.00000
 
 20 21  0  0  0  0  0  0  0  0999 V2000
   -1.4486    1.6151    0.0003 C   0  0  0  0  0  0  0  0  0  0  0  0
   -1.8376    0.2704   -0.0001 C   0  0  0  0  0  0  0  0  0  0  0  0
   -0.9203   -0.6909   -0.0003 N   0  0  0  0  0  0  0  0  0  0  0  0
    0.3601   -0.3681   -0.0004 C   0  0  0  0  0  0  0  0  0  0  0  0
    0.7514    0.9874   -0.0004 C   0  0  0  0  0  0  0  0  0  0  0  0
   -0.1700    1.9406    0.0002 N   0  0  0  0  0  0  0  0  0  0  0  0
    2.0961    1.2815   -0.0001 N   0  0  0  0  0  0  0  0  0  0  0  0
    3.0205    0.2845    0.0002 C   0  0  0  0  0  0  0  0  0  0  0  0
    2.7003   -0.9921    0.0002 N   0  0  0  0  0  0  0  0  0  0  0  0
    1.4230   -1.3973   -0.0001 C   0  0  0  0  0  0  0  0  0  0  0  0
    1.1438   -2.5839    0.0003 O   0  0  0  0  0  0  0  0  0  0  0  0
    4.3435    0.6238    0.0001 N   0  0  0  0  0  0  0  0  0  0  0  0
   -3.2745   -0.0816    0.0001 C   0  0  0  0  0  0  0  0  0  0  0  0
   -4.1145    0.7956    0.0006 O   0  0  0  0  0  0  0  0  0  0  0  0
   -3.6511   -1.3748   -0.0003 O   0  0  0  0  0  0  0  0  0  0  0  0
   -2.1998    2.3911   -0.0038 H   0  0  0  0  0  0  0  0  0  0  0  0
    2.3863    2.2071   -0.0005 H   0  0  0  0  0  0  0  0  0  0  0  0
    4.6047    1.5579   -0.0003 H   0  0  0  0  0  0  0  0  0  0  0  0
    5.0219   -0.0695    0.0003 H   0  0  0  0  0  0  0  0  0  0  0  0
   -4.6011   -1.5554   -0.0002 H   0  0  0  0  0  0  0  0  0  0  0  0
  1  2  2  0  0  0  0
  2  3  1  0  0  0  0
  3  4  2  0  0  0  0
  4  5  1  0  0  0  0
  5  6  2  0  0  0  0
  1  6  1  0  0  0  0
  5  7  1  0  0  0  0
  7  8  1  0  0  0  0
  8  9  2  0  0  0  0
  9 10  1  0  0  0  0
  4 10  1  0  0  0  0
 10 11  2  0  0  0  0
  8 12  1  0  0  0  0
  2 13  1  0  0  0  0
 13 14  2  0  0  0  0
 13 15  1  0  0  0  0
  1 16  1  0  0  0  0
  7 17  1  0  0  0  0
 12 18  1  0  0  0  0
 12 19  1  0  0  0  0
 15 20  1  0  0  0  0
M  END
$$$$
