C11H10
APtclcactv06211802463D 0   0.00000     0.00000
 
 21 22  0  0  0  0  0  0  0  0999 V2000
    3.5020    0.6955    0.0008 C   0  0  0  0  0  0  0  0  0  0  0  0
    2.0816    0.1919    0.0008 C   0  0  0  0  0  0  0  0  0  0  0  0
    1.0541    1.0842    0.0004 C   0  0  0  0  0  0  0  0  0  0  0  0
   -0.2718    0.6180    0.0004 C   0  0  0  0  0  0  0  0  0  0  0  0
   -1.3585    1.5085   -0.0005 C   0  0  0  0  0  0  0  0  0  0  0  0
   -2.6293    1.0204   -0.0009 C   0  0  0  0  0  0  0  0  0  0  0  0
   -2.8707   -0.3519   -0.0004 C   0  0  0  0  0  0  0  0  0  0  0  0
   -1.8428   -1.2443    0.0010 C   0  0  0  0  0  0  0  0  0  0  0  0
   -0.5174   -0.7780    0.0009 C   0  0  0  0  0  0  0  0  0  0  0  0
    0.5697   -1.6689    0.0017 C   0  0  0  0  0  0  0  0  0  0  0  0
    1.8401   -1.1809   -0.0045 C   0  0  0  0  0  0  0  0  0  0  0  0
    3.8443    0.8172    1.0285 H   0  0  0  0  0  0  0  0  0  0  0  0
    4.1419   -0.0221   -0.5127 H   0  0  0  0  0  0  0  0  0  0  0  0
    3.5470    1.6556   -0.5133 H   0  0  0  0  0  0  0  0  0  0  0  0
    1.2565    2.1451    0.0005 H   0  0  0  0  0  0  0  0  0  0  0  0
   -1.1866    2.5747   -0.0006 H   0  0  0  0  0  0  0  0  0  0  0  0
   -3.4628    1.7071   -0.0013 H   0  0  0  0  0  0  0  0  0  0  0  0
   -3.8886   -0.7129   -0.0006 H   0  0  0  0  0  0  0  0  0  0  0  0
   -2.0450   -2.3052    0.0021 H   0  0  0  0  0  0  0  0  0  0  0  0
    0.3978   -2.7351    0.0027 H   0  0  0  0  0  0  0  0  0  0  0  0
    2.6737   -1.8676   -0.0038 H   0  0  0  0  0  0  0  0  0  0  0  0
  1  2  1  0  0  0  0
  2  3  2  0  0  0  0
  3  4  1  0  0  0  0
  4  5  2  0  0  0  0
  5  6  1  0  0  0  0
  6  7  2  0  0  0  0
  7  8  1  0  0  0  0
  8  9  2  0  0  0  0
  4  9  1  0  0  0  0
  9 10  1  0  0  0  0
 10 11  2  0  0  0  0
  2 11  1  0  0  0  0
  1 12  1  0  0  0  0
  1 13  1  0  0  0  0
  1 14  1  0  0  0  0
  3 15  1  0  0  0  0
  5 16  1  0  0  0  0
  6 17  1  0  0  0  0
  7 18  1  0  0  0  0
  8 19  1  0  0  0  0
 10 20  1  0  0  0  0
 11 21  1  0  0  0  0
M  END
$$$$
