C6H6N4O2
APtclcactv06211806263D 0   0.00000     0.00000
 
 18 19  0  0  0  0  0  0  0  0999 V2000
   -1.6340    2.2067   -0.0018 C   0  0  0  0  0  0  0  0  0  0  0  0
   -0.9627    0.9045   -0.0017 N   0  0  0  0  0  0  0  0  0  0  0  0
    0.4212    0.8398   -0.0002 C   0  0  0  0  0  0  0  0  0  0  0  0
    1.0342   -0.4069   -0.0002 C   0  0  0  0  0  0  0  0  0  0  0  0
    0.2314   -1.5679   -0.0009 C   0  0  0  0  0  0  0  0  0  0  0  0
    0.7452   -2.6722   -0.0004 O   0  0  0  0  0  0  0  0  0  0  0  0
   -1.1118   -1.4401   -0.0016 N   0  0  0  0  0  0  0  0  0  0  0  0
   -1.6917   -0.2274    0.0026 C   0  0  0  0  0  0  0  0  0  0  0  0
   -2.9053   -0.1508    0.0022 O   0  0  0  0  0  0  0  0  0  0  0  0
    2.3940   -0.1689    0.0006 N   0  0  0  0  0  0  0  0  0  0  0  0
    2.5596    1.1682    0.0010 C   0  0  0  0  0  0  0  0  0  0  0  0
    1.3912    1.7577    0.0005 N   0  0  0  0  0  0  0  0  0  0  0  0
   -1.7994    2.5301   -1.0295 H   0  0  0  0  0  0  0  0  0  0  0  0
   -2.5921    2.1216    0.5110 H   0  0  0  0  0  0  0  0  0  0  0  0
   -1.0100    2.9372    0.5130 H   0  0  0  0  0  0  0  0  0  0  0  0
   -1.6674   -2.2353   -0.0021 H   0  0  0  0  0  0  0  0  0  0  0  0
    3.0969   -0.8374    0.0009 H   0  0  0  0  0  0  0  0  0  0  0  0
    3.5125    1.6766    0.0016 H   0  0  0  0  0  0  0  0  0  0  0  0
  1  2  1  0  0  0  0
  2  3  1  0  0  0  0
  3  4  2  0  0  0  0
  4  5  1  0  0  0  0
  5  6  2  0  0  0  0
  5  7  1  0  0  0  0
  7  8  1  0  0  0  0
  2  8  1  0  0  0  0
  8  9  2  0  0  0  0
  4 10  1  0  0  0  0
 10 11  1  0  0  0  0
 11 12  2  0  0  0  0
  3 12  1  0  0  0  0
  1 13  1  0  0  0  0
  1 14  1  0  0  0  0
  1 15  1  0  0  0  0
  7 16  1  0  0  0  0
 10 17  1  0  0  0  0
 11 18  1  0  0  0  0
M  END
$$$$
