C12H20O12
APtclcactv06291802553D 0   0.00000     0.00000
 
 44 45  0  0  0  0  0  0  0  0999 V2000
   -0.6348    0.4557   -1.2183 C   0  0  0  0  0  0  0  0  0  0  0  0
   -1.9706    0.4204   -0.4732 C   0  0  0  0  0  0  0  0  0  0  0  0
   -3.0575   -0.1314   -1.3994 C   0  0  0  0  0  0  0  0  0  0  0  0
   -4.3780   -0.2201   -0.6282 C   0  0  0  0  0  0  0  0  0  0  0  0
   -4.1737   -1.0936    0.6134 C   0  0  0  0  0  0  0  0  0  0  0  0
   -3.0437   -0.5047    1.4619 C   0  0  0  0  0  0  0  0  0  0  0  0
   -1.8533   -0.4213    0.6758 O   0  0  0  0  0  0  0  0  0  0  0  0
   -3.4134    0.8020    1.9070 O   0  0  0  0  0  0  0  0  0  0  0  0
   -5.3798   -1.1244    1.3793 O   0  0  0  0  0  0  0  0  0  0  0  0
   -4.7874    1.0896   -0.2292 O   0  0  0  0  0  0  0  0  0  0  0  0
   -3.2169    0.7399   -2.5207 O   0  0  0  0  0  0  0  0  0  0  0  0
    0.3537    1.0777   -0.3949 O   0  0  0  0  0  0  0  0  0  0  0  0
    1.6454    1.1617   -1.0003 C   0  0  0  0  0  0  0  0  0  0  0  0
    2.5869    1.9513   -0.0871 C   0  0  0  0  0  0  0  0  0  0  0  0
    2.7435    1.2037    1.2407 C   0  0  0  0  0  0  0  0  0  0  0  0
    3.2578   -0.2115    0.9595 C   0  0  0  0  0  0  0  0  0  0  0  0
    2.2904   -0.9175    0.0059 C   0  0  0  0  0  0  0  0  0  0  0  0
    2.1665   -0.1544   -1.1960 O   0  0  0  0  0  0  0  0  0  0  0  0
    2.8201   -2.2897   -0.3224 C   0  0  0  0  0  0  0  0  0  0  0  0
    3.1505   -2.5549   -1.4539 O   0  0  0  0  0  0  0  0  0  0  0  0
    2.9248   -3.2172    0.6422 O   0  0  0  0  0  0  0  0  0  0  0  0
    4.5524   -0.1387    0.3589 O   0  0  0  0  0  0  0  0  0  0  0  0
    3.6779    1.8956    2.0715 O   0  0  0  0  0  0  0  0  0  0  0  0
    3.8637    2.0814   -0.7154 O   0  0  0  0  0  0  0  0  0  0  0  0
   -0.3233   -0.5619   -1.4541 H   0  0  0  0  0  0  0  0  0  0  0  0
   -0.7486    1.0239   -2.1415 H   0  0  0  0  0  0  0  0  0  0  0  0
   -2.2384    1.4292   -0.1591 H   0  0  0  0  0  0  0  0  0  0  0  0
   -2.7709   -1.1242   -1.7463 H   0  0  0  0  0  0  0  0  0  0  0  0
   -5.1430   -0.6645   -1.2649 H   0  0  0  0  0  0  0  0  0  0  0  0
   -3.9097   -2.1059    0.3072 H   0  0  0  0  0  0  0  0  0  0  0  0
   -2.8652   -1.1459    2.3251 H   0  0  0  0  0  0  0  0  0  0  0  0
   -2.7426    1.2364    2.4515 H   0  0  0  0  0  0  0  0  0  0  0  0
   -5.3224   -1.6606    2.1819 H   0  0  0  0  0  0  0  0  0  0  0  0
   -5.6183    1.1084    0.2651 H   0  0  0  0  0  0  0  0  0  0  0  0
   -3.8913    0.4509   -3.1506 H   0  0  0  0  0  0  0  0  0  0  0  0
    1.5637    1.6673   -1.9625 H   0  0  0  0  0  0  0  0  0  0  0  0
    2.1689    2.9406    0.0991 H   0  0  0  0  0  0  0  0  0  0  0  0
    1.7782    1.1476    1.7437 H   0  0  0  0  0  0  0  0  0  0  0  0
    3.3197   -0.7690    1.8941 H   0  0  0  0  0  0  0  0  0  0  0  0
    1.3136   -1.0088    0.4808 H   0  0  0  0  0  0  0  0  0  0  0  0
    3.2699   -4.0826    0.3835 H   0  0  0  0  0  0  0  0  0  0  0  0
    4.9396   -1.0005    0.1532 H   0  0  0  0  0  0  0  0  0  0  0  0
    3.8260    1.4767    2.9303 H   0  0  0  0  0  0  0  0  0  0  0  0
    3.8387    2.5420   -1.5653 H   0  0  0  0  0  0  0  0  0  0  0  0
  1  2  1  0  0  0  0
  2  3  1  0  0  0  0
  3  4  1  0  0  0  0
  4  5  1  0  0  0  0
  5  6  1  0  0  0  0
  6  7  1  0  0  0  0
  2  7  1  0  0  0  0
  6  8  1  0  0  0  0
  5  9  1  0  0  0  0
  4 10  1  0  0  0  0
  3 11  1  0  0  0  0
  1 12  1  0  0  0  0
 12 13  1  0  0  0  0
 13 14  1  0  0  0  0
 14 15  1  0  0  0  0
 15 16  1  0  0  0  0
 16 17  1  0  0  0  0
 17 18  1  0  0  0  0
 13 18  1  0  0  0  0
 17 19  1  0  0  0  0
 19 20  2  0  0  0  0
 19 21  1  0  0  0  0
 16 22  1  0  0  0  0
 15 23  1  0  0  0  0
 14 24  1  0  0  0  0
  1 25  1  0  0  0  0
  1 26  1  0  0  0  0
  2 27  1  0  0  0  0
  3 28  1  0  0  0  0
  4 29  1  0  0  0  0
  5 30  1  0  0  0  0
  6 31  1  0  0  0  0
  8 32  1  0  0  0  0
  9 33  1  0  0  0  0
 10 34  1  0  0  0  0
 11 35  1  0  0  0  0
 13 36  1  0  0  0  0
 14 37  1  0  0  0  0
 15 38  1  0  0  0  0
 16 39  1  0  0  0  0
 17 40  1  0  0  0  0
 21 41  1  0  0  0  0
 22 42  1  0  0  0  0
 23 43  1  0  0  0  0
 24 44  1  0  0  0  0
M  END
$$$$
