C4H6O
APtclcactv06211806263D 0   0.00000     0.00000
 
 11 11  0  0  0  0  0  0  0  0999 V2000
   -0.3870    1.2021   -0.1225 C   0  0  0  0  0  0  0  0  0  0  0  0
   -1.2121   -0.0768    0.1626 C   0  0  0  0  0  0  0  0  0  0  0  0
   -0.2569   -1.1145   -0.1332 O   0  0  0  0  0  0  0  0  0  0  0  0
    0.9890   -0.6179    0.0402 C   0  0  0  0  0  0  0  0  0  0  0  0
    1.0347    0.6967    0.0556 C   0  0  0  0  0  0  0  0  0  0  0  0
   -0.5515    1.5540   -1.1409 H   0  0  0  0  0  0  0  0  0  0  0  0
   -0.6167    1.9843    0.6011 H   0  0  0  0  0  0  0  0  0  0  0  0
   -1.5209   -0.1171    1.2072 H   0  0  0  0  0  0  0  0  0  0  0  0
   -2.0749   -0.1403   -0.5004 H   0  0  0  0  0  0  0  0  0  0  0  0
    1.8633   -1.2414    0.1556 H   0  0  0  0  0  0  0  0  0  0  0  0
    1.9197    1.3046    0.1725 H   0  0  0  0  0  0  0  0  0  0  0  0
  1  2  1  0  0  0  0
  2  3  1  0  0  0  0
  3  4  1  0  0  0  0
  4  5  2  0  0  0  0
  1  5  1  0  0  0  0
  1  6  1  0  0  0  0
  1  7  1  0  0  0  0
  2  8  1  0  0  0  0
  2  9  1  0  0  0  0
  4 10  1  0  0  0  0
  5 11  1  0  0  0  0
M  END
$$$$
