C12H10
APtclcactv06211804393D 0   0.00000     0.00000
 
 22 23  0  0  0  0  0  0  0  0999 V2000
   -3.5104   -0.0002    0.0001 C   0  0  0  0  0  0  0  0  0  0  0  0
   -2.8214   -1.1279   -0.4082 C   0  0  0  0  0  0  0  0  0  0  0  0
   -1.4412   -1.1333   -0.4105 C   0  0  0  0  0  0  0  0  0  0  0  0
   -0.7420    0.0000   -0.0006 C   0  0  0  0  0  0  0  0  0  0  0  0
   -1.4411    1.1333    0.4097 C   0  0  0  0  0  0  0  0  0  0  0  0
   -2.8213    1.1277    0.4081 C   0  0  0  0  0  0  0  0  0  0  0  0
    0.7420   -0.0001   -0.0005 C   0  0  0  0  0  0  0  0  0  0  0  0
    1.4413    1.1335   -0.4095 C   0  0  0  0  0  0  0  0  0  0  0  0
    2.8214    1.1279   -0.4075 C   0  0  0  0  0  0  0  0  0  0  0  0
    3.5104   -0.0004   -0.0008 C   0  0  0  0  0  0  0  0  0  0  0  0
    2.8213   -1.1287    0.4058 C   0  0  0  0  0  0  0  0  0  0  0  0
    1.4411   -1.1318    0.4141 C   0  0  0  0  0  0  0  0  0  0  0  0
   -4.5904    0.0013   -0.0039 H   0  0  0  0  0  0  0  0  0  0  0  0
   -3.3644   -2.0059   -0.7254 H   0  0  0  0  0  0  0  0  0  0  0  0
   -0.9042   -2.0145   -0.7292 H   0  0  0  0  0  0  0  0  0  0  0  0
   -0.9041    2.0143    0.7288 H   0  0  0  0  0  0  0  0  0  0  0  0
   -3.3643    2.0055    0.7260 H   0  0  0  0  0  0  0  0  0  0  0  0
    0.9043    2.0148   -0.7279 H   0  0  0  0  0  0  0  0  0  0  0  0
    3.3645    2.0061   -0.7244 H   0  0  0  0  0  0  0  0  0  0  0  0
    4.5904   -0.0006   -0.0011 H   0  0  0  0  0  0  0  0  0  0  0  0
    3.3642   -2.0071    0.7220 H   0  0  0  0  0  0  0  0  0  0  0  0
    0.9040   -2.0132    0.7321 H   0  0  0  0  0  0  0  0  0  0  0  0
  1  2  2  0  0  0  0
  2  3  1  0  0  0  0
  3  4  2  0  0  0  0
  4  5  1  0  0  0  0
  5  6  2  0  0  0  0
  1  6  1  0  0  0  0
  4  7  1  0  0  0  0
  7  8  2  0  0  0  0
  8  9  1  0  0  0  0
  9 10  2  0  0  0  0
 10 11  1  0  0  0  0
 11 12  2  0  0  0  0
  7 12  1  0  0  0  0
  1 13  1  0  0  0  0
  2 14  1  0  0  0  0
  3 15  1  0  0  0  0
  5 16  1  0  0  0  0
  6 17  1  0  0  0  0
  8 18  1  0  0  0  0
  9 19  1  0  0  0  0
 10 20  1  0  0  0  0
 11 21  1  0  0  0  0
 12 22  1  0  0  0  0
M  END
$$$$
