C14H10O3
APtclcactv06211806263D 0   0.00000     0.00000
 
 27 29  0  0  0  0  0  0  0  0999 V2000
    5.2692   -0.1554    0.2775 C   0  0  0  0  0  0  0  0  0  0  0  0
    4.1628    0.7463    0.2087 O   0  0  0  0  0  0  0  0  0  0  0  0
    2.9259    0.1970    0.0781 C   0  0  0  0  0  0  0  0  0  0  0  0
    1.8116    1.0121    0.0056 C   0  0  0  0  0  0  0  0  0  0  0  0
    0.5484    0.4385   -0.1281 C   0  0  0  0  0  0  0  0  0  0  0  0
    0.4013   -0.9558   -0.1955 C   0  0  0  0  0  0  0  0  0  0  0  0
    1.5359   -1.7582   -0.1183 C   0  0  0  0  0  0  0  0  0  0  0  0
    2.7821   -1.1855    0.0117 C   0  0  0  0  0  0  0  0  0  0  0  0
   -0.8143   -1.5217   -0.3401 O   0  0  0  0  0  0  0  0  0  0  0  0
   -1.9519   -0.8371   -0.1092 C   0  0  0  0  0  0  0  0  0  0  0  0
   -3.1529   -1.5197    0.0574 C   0  0  0  0  0  0  0  0  0  0  0  0
   -4.3192   -0.8216    0.2871 C   0  0  0  0  0  0  0  0  0  0  0  0
   -4.3157    0.5635    0.3554 C   0  0  0  0  0  0  0  0  0  0  0  0
   -3.1375    1.2609    0.1959 C   0  0  0  0  0  0  0  0  0  0  0  0
   -1.9521    0.5651   -0.0332 C   0  0  0  0  0  0  0  0  0  0  0  0
   -0.6670    1.2785   -0.1928 C   0  0  0  0  0  0  0  0  0  0  0  0
   -0.6127    2.4819   -0.3666 O   0  0  0  0  0  0  0  0  0  0  0  0
    5.1486   -0.8134    1.1381 H   0  0  0  0  0  0  0  0  0  0  0  0
    5.3086   -0.7524   -0.6336 H   0  0  0  0  0  0  0  0  0  0  0  0
    6.1943    0.4117    0.3806 H   0  0  0  0  0  0  0  0  0  0  0  0
    1.9192    2.0858    0.0526 H   0  0  0  0  0  0  0  0  0  0  0  0
    1.4394   -2.8329   -0.1643 H   0  0  0  0  0  0  0  0  0  0  0  0
    3.6564   -1.8167    0.0707 H   0  0  0  0  0  0  0  0  0  0  0  0
   -3.1715   -2.5983    0.0064 H   0  0  0  0  0  0  0  0  0  0  0  0
   -5.2468   -1.3597    0.4149 H   0  0  0  0  0  0  0  0  0  0  0  0
   -5.2378    1.0967    0.5336 H   0  0  0  0  0  0  0  0  0  0  0  0
   -3.1331    2.3397    0.2478 H   0  0  0  0  0  0  0  0  0  0  0  0
  1  2  1  0  0  0  0
  2  3  1  0  0  0  0
  3  4  2  0  0  0  0
  4  5  1  0  0  0  0
  5  6  2  0  0  0  0
  6  7  1  0  0  0  0
  7  8  2  0  0  0  0
  3  8  1  0  0  0  0
  6  9  1  0  0  0  0
  9 10  1  0  0  0  0
 10 11  2  0  0  0  0
 11 12  1  0  0  0  0
 12 13  2  0  0  0  0
 13 14  1  0  0  0  0
 14 15  2  0  0  0  0
 10 15  1  0  0  0  0
 15 16  1  0  0  0  0
  5 16  1  0  0  0  0
 16 17  2  0  0  0  0
  1 18  1  0  0  0  0
  1 19  1  0  0  0  0
  1 20  1  0  0  0  0
  4 21  1  0  0  0  0
  7 22  1  0  0  0  0
  8 23  1  0  0  0  0
 11 24  1  0  0  0  0
 12 25  1  0  0  0  0
 13 26  1  0  0  0  0
 14 27  1  0  0  0  0
M  END
$$$$
