C11H10O
APtclcactv06211804393D 0   0.00000     0.00000
 
 22 23  0  0  0  0  0  0  0  0999 V2000
    3.9861    0.1429   -0.0009 C   0  0  0  0  0  0  0  0  0  0  0  0
    2.9119   -0.7995   -0.0005 O   0  0  0  0  0  0  0  0  0  0  0  0
    1.6497   -0.2963   -0.0006 C   0  0  0  0  0  0  0  0  0  0  0  0
    0.5838   -1.1502   -0.0003 C   0  0  0  0  0  0  0  0  0  0  0  0
   -0.7214   -0.6313   -0.0003 C   0  0  0  0  0  0  0  0  0  0  0  0
   -1.8427   -1.4787    0.0006 C   0  0  0  0  0  0  0  0  0  0  0  0
   -3.0932   -0.9410    0.0009 C   0  0  0  0  0  0  0  0  0  0  0  0
   -3.2803    0.4397   -0.0002 C   0  0  0  0  0  0  0  0  0  0  0  0
   -2.2181    1.2911   -0.0010 C   0  0  0  0  0  0  0  0  0  0  0  0
   -0.9120    0.7735   -0.0008 C   0  0  0  0  0  0  0  0  0  0  0  0
    0.2085    1.6228   -0.0011 C   0  0  0  0  0  0  0  0  0  0  0  0
    1.4592    1.0892    0.0047 C   0  0  0  0  0  0  0  0  0  0  0  0
    3.9203    0.7691    0.8889 H   0  0  0  0  0  0  0  0  0  0  0  0
    4.9370   -0.3899   -0.0008 H   0  0  0  0  0  0  0  0  0  0  0  0
    3.9202    0.7685   -0.8911 H   0  0  0  0  0  0  0  0  0  0  0  0
    0.7437   -2.2183   -0.0003 H   0  0  0  0  0  0  0  0  0  0  0  0
   -1.7128   -2.5508    0.0007 H   0  0  0  0  0  0  0  0  0  0  0  0
   -3.9531   -1.5944    0.0016 H   0  0  0  0  0  0  0  0  0  0  0  0
   -4.2832    0.8405   -0.0007 H   0  0  0  0  0  0  0  0  0  0  0  0
   -2.3786    2.3591   -0.0022 H   0  0  0  0  0  0  0  0  0  0  0  0
    0.0764    2.6947   -0.0022 H   0  0  0  0  0  0  0  0  0  0  0  0
    2.3176    1.7446    0.0045 H   0  0  0  0  0  0  0  0  0  0  0  0
  1  2  1  0  0  0  0
  2  3  1  0  0  0  0
  3  4  2  0  0  0  0
  4  5  1  0  0  0  0
  5  6  2  0  0  0  0
  6  7  1  0  0  0  0
  7  8  2  0  0  0  0
  8  9  1  0  0  0  0
  9 10  2  0  0  0  0
  5 10  1  0  0  0  0
 10 11  1  0  0  0  0
 11 12  2  0  0  0  0
  3 12  1  0  0  0  0
  1 13  1  0  0  0  0
  1 14  1  0  0  0  0
  1 15  1  0  0  0  0
  4 16  1  0  0  0  0
  6 17  1  0  0  0  0
  7 18  1  0  0  0  0
  8 19  1  0  0  0  0
  9 20  1  0  0  0  0
 11 21  1  0  0  0  0
 12 22  1  0  0  0  0
M  END
$$$$
