C31H64O
APtclcactv06291802553D 0   0.00000     0.00000
 
 96 95  0  0  0  0  0  0  0  0999 V2000
   18.7617   -0.1217    0.6144 C   0  0  0  0  0  0  0  0  0  0  0  0
   17.5155    0.6219    0.1298 C   0  0  0  0  0  0  0  0  0  0  0  0
   16.2657   -0.1725    0.5144 C   0  0  0  0  0  0  0  0  0  0  0  0
   15.0195    0.5712    0.0298 C   0  0  0  0  0  0  0  0  0  0  0  0
   13.7697   -0.2232    0.4144 C   0  0  0  0  0  0  0  0  0  0  0  0
   12.5235    0.5205   -0.0702 C   0  0  0  0  0  0  0  0  0  0  0  0
   11.2738   -0.2739    0.3144 C   0  0  0  0  0  0  0  0  0  0  0  0
   10.0276    0.4697   -0.1702 C   0  0  0  0  0  0  0  0  0  0  0  0
    8.7778   -0.3247    0.2144 C   0  0  0  0  0  0  0  0  0  0  0  0
    7.5316    0.4190   -0.2702 C   0  0  0  0  0  0  0  0  0  0  0  0
    6.2819   -0.3754    0.1144 C   0  0  0  0  0  0  0  0  0  0  0  0
    5.0357    0.3683   -0.3703 C   0  0  0  0  0  0  0  0  0  0  0  0
    3.7859   -0.4261    0.0144 C   0  0  0  0  0  0  0  0  0  0  0  0
    2.5397    0.3175   -0.4703 C   0  0  0  0  0  0  0  0  0  0  0  0
    1.2899   -0.4769   -0.0857 C   0  0  0  0  0  0  0  0  0  0  0  0
    0.0437    0.2668   -0.5703 C   0  0  0  0  0  0  0  0  0  0  0  0
   -1.2060   -0.5276   -0.1857 C   0  0  0  0  0  0  0  0  0  0  0  0
   -2.4547    0.2740   -0.5586 C   0  0  0  0  0  0  0  0  0  0  0  0
   -3.7006   -0.4624   -0.0624 C   0  0  0  0  0  0  0  0  0  0  0  0
   -4.9493    0.3392   -0.4353 C   0  0  0  0  0  0  0  0  0  0  0  0
   -6.1952   -0.3972    0.0609 C   0  0  0  0  0  0  0  0  0  0  0  0
   -7.4439    0.4044   -0.3120 C   0  0  0  0  0  0  0  0  0  0  0  0
   -8.6898   -0.3321    0.1842 C   0  0  0  0  0  0  0  0  0  0  0  0
   -9.9385    0.4696   -0.1887 C   0  0  0  0  0  0  0  0  0  0  0  0
  -11.1844   -0.2669    0.3075 C   0  0  0  0  0  0  0  0  0  0  0  0
  -12.4330    0.5347   -0.0654 C   0  0  0  0  0  0  0  0  0  0  0  0
  -13.6790   -0.2017    0.4308 C   0  0  0  0  0  0  0  0  0  0  0  0
  -14.9276    0.5999    0.0579 C   0  0  0  0  0  0  0  0  0  0  0  0
  -16.1735   -0.1365    0.5541 C   0  0  0  0  0  0  0  0  0  0  0  0
  -17.4222    0.6651    0.1812 C   0  0  0  0  0  0  0  0  0  0  0  0
  -18.6681   -0.0713    0.6774 C   0  0  0  0  0  0  0  0  0  0  0  0
   -1.2129   -1.7732   -0.8859 O   0  0  0  0  0  0  0  0  0  0  0  0
   19.6520    0.4442    0.3404 H   0  0  0  0  0  0  0  0  0  0  0  0
   18.7205   -0.2321    1.6980 H   0  0  0  0  0  0  0  0  0  0  0  0
   18.8003   -1.1071    0.1500 H   0  0  0  0  0  0  0  0  0  0  0  0
   17.4768    1.6073    0.5942 H   0  0  0  0  0  0  0  0  0  0  0  0
   17.5566    0.7323   -0.9538 H   0  0  0  0  0  0  0  0  0  0  0  0
   16.3043   -1.1579    0.0500 H   0  0  0  0  0  0  0  0  0  0  0  0
   16.2245   -0.2828    1.5980 H   0  0  0  0  0  0  0  0  0  0  0  0
   14.9809    1.5566    0.4942 H   0  0  0  0  0  0  0  0  0  0  0  0
   15.0607    0.6815   -1.0538 H   0  0  0  0  0  0  0  0  0  0  0  0
   13.8084   -1.2086   -0.0500 H   0  0  0  0  0  0  0  0  0  0  0  0
   13.7286   -0.3336    1.4980 H   0  0  0  0  0  0  0  0  0  0  0  0
   12.4849    1.5058    0.3941 H   0  0  0  0  0  0  0  0  0  0  0  0
   12.5647    0.6308   -1.1538 H   0  0  0  0  0  0  0  0  0  0  0  0
   11.3124   -1.2593   -0.1500 H   0  0  0  0  0  0  0  0  0  0  0  0
   11.2326   -0.3843    1.3980 H   0  0  0  0  0  0  0  0  0  0  0  0
    9.9889    1.4551    0.2941 H   0  0  0  0  0  0  0  0  0  0  0  0
   10.0688    0.5801   -1.2539 H   0  0  0  0  0  0  0  0  0  0  0  0
    8.8165   -1.3101   -0.2500 H   0  0  0  0  0  0  0  0  0  0  0  0
    8.7366   -0.4350    1.2980 H   0  0  0  0  0  0  0  0  0  0  0  0
    7.4930    1.4044    0.1941 H   0  0  0  0  0  0  0  0  0  0  0  0
    7.5728    0.5294   -1.3539 H   0  0  0  0  0  0  0  0  0  0  0  0
    6.3205   -1.3608   -0.3500 H   0  0  0  0  0  0  0  0  0  0  0  0
    6.2407   -0.4858    1.1980 H   0  0  0  0  0  0  0  0  0  0  0  0
    4.9970    1.3536    0.0941 H   0  0  0  0  0  0  0  0  0  0  0  0
    5.0768    0.4786   -1.4539 H   0  0  0  0  0  0  0  0  0  0  0  0
    3.8245   -1.4115   -0.4500 H   0  0  0  0  0  0  0  0  0  0  0  0
    3.7447   -0.5365    1.0980 H   0  0  0  0  0  0  0  0  0  0  0  0
    2.5011    1.3029   -0.0059 H   0  0  0  0  0  0  0  0  0  0  0  0
    2.5809    0.4279   -1.5539 H   0  0  0  0  0  0  0  0  0  0  0  0
    1.3286   -1.4623   -0.5500 H   0  0  0  0  0  0  0  0  0  0  0  0
    1.2488   -0.5872    0.9980 H   0  0  0  0  0  0  0  0  0  0  0  0
    0.0051    1.2522   -0.1059 H   0  0  0  0  0  0  0  0  0  0  0  0
    0.0849    0.3772   -1.6539 H   0  0  0  0  0  0  0  0  0  0  0  0
   -1.2016   -0.7145    0.8882 H   0  0  0  0  0  0  0  0  0  0  0  0
   -2.4060    1.2591   -0.0947 H   0  0  0  0  0  0  0  0  0  0  0  0
   -2.5054    0.3846   -1.6418 H   0  0  0  0  0  0  0  0  0  0  0  0
   -3.7493   -1.4476   -0.5263 H   0  0  0  0  0  0  0  0  0  0  0  0
   -3.6500   -0.5731    1.0208 H   0  0  0  0  0  0  0  0  0  0  0  0
   -4.9006    1.3243    0.0286 H   0  0  0  0  0  0  0  0  0  0  0  0
   -4.9999    0.4498   -1.5185 H   0  0  0  0  0  0  0  0  0  0  0  0
   -6.2439   -1.3824   -0.4030 H   0  0  0  0  0  0  0  0  0  0  0  0
   -6.1446   -0.5079    1.1441 H   0  0  0  0  0  0  0  0  0  0  0  0
   -7.3952    1.3895    0.1519 H   0  0  0  0  0  0  0  0  0  0  0  0
   -7.4945    0.5150   -1.3952 H   0  0  0  0  0  0  0  0  0  0  0  0
   -8.7385   -1.3172   -0.2797 H   0  0  0  0  0  0  0  0  0  0  0  0
   -8.6391   -0.4427    1.2674 H   0  0  0  0  0  0  0  0  0  0  0  0
   -9.8898    1.4547    0.2752 H   0  0  0  0  0  0  0  0  0  0  0  0
   -9.9891    0.5802   -1.2719 H   0  0  0  0  0  0  0  0  0  0  0  0
  -11.2330   -1.2520   -0.1564 H   0  0  0  0  0  0  0  0  0  0  0  0
  -11.1337   -0.3775    1.3907 H   0  0  0  0  0  0  0  0  0  0  0  0
  -12.3844    1.5199    0.3985 H   0  0  0  0  0  0  0  0  0  0  0  0
  -12.4837    0.6454   -1.1486 H   0  0  0  0  0  0  0  0  0  0  0  0
  -13.7276   -1.1868   -0.0331 H   0  0  0  0  0  0  0  0  0  0  0  0
  -13.6283   -0.3123    1.5140 H   0  0  0  0  0  0  0  0  0  0  0  0
  -14.8790    1.5851    0.5218 H   0  0  0  0  0  0  0  0  0  0  0  0
  -14.9783    0.7106   -1.0253 H   0  0  0  0  0  0  0  0  0  0  0  0
  -16.2222   -1.1217    0.0902 H   0  0  0  0  0  0  0  0  0  0  0  0
  -16.1229   -0.2472    1.6373 H   0  0  0  0  0  0  0  0  0  0  0  0
  -17.3735    1.6502    0.6451 H   0  0  0  0  0  0  0  0  0  0  0  0
  -17.4729    0.7757   -0.9020 H   0  0  0  0  0  0  0  0  0  0  0  0
  -19.5577    0.4998    0.4117 H   0  0  0  0  0  0  0  0  0  0  0  0
  -18.7168   -1.0565    0.2135 H   0  0  0  0  0  0  0  0  0  0  0  0
  -18.6175   -0.1820    1.7606 H   0  0  0  0  0  0  0  0  0  0  0  0
   -1.2171   -1.6832   -1.8487 H   0  0  0  0  0  0  0  0  0  0  0  0
  1  2  1  0  0  0  0
  2  3  1  0  0  0  0
  3  4  1  0  0  0  0
  4  5  1  0  0  0  0
  5  6  1  0  0  0  0
  6  7  1  0  0  0  0
  7  8  1  0  0  0  0
  8  9  1  0  0  0  0
  9 10  1  0  0  0  0
 10 11  1  0  0  0  0
 11 12  1  0  0  0  0
 12 13  1  0  0  0  0
 13 14  1  0  0  0  0
 14 15  1  0  0  0  0
 15 16  1  0  0  0  0
 16 17  1  0  0  0  0
 17 18  1  0  0  0  0
 18 19  1  0  0  0  0
 19 20  1  0  0  0  0
 20 21  1  0  0  0  0
 21 22  1  0  0  0  0
 22 23  1  0  0  0  0
 23 24  1  0  0  0  0
 24 25  1  0  0  0  0
 25 26  1  0  0  0  0
 26 27  1  0  0  0  0
 27 28  1  0  0  0  0
 28 29  1  0  0  0  0
 29 30  1  0  0  0  0
 30 31  1  0  0  0  0
 17 32  1  0  0  0  0
  1 33  1  0  0  0  0
  1 34  1  0  0  0  0
  1 35  1  0  0  0  0
  2 36  1  0  0  0  0
  2 37  1  0  0  0  0
  3 38  1  0  0  0  0
  3 39  1  0  0  0  0
  4 40  1  0  0  0  0
  4 41  1  0  0  0  0
  5 42  1  0  0  0  0
  5 43  1  0  0  0  0
  6 44  1  0  0  0  0
  6 45  1  0  0  0  0
  7 46  1  0  0  0  0
  7 47  1  0  0  0  0
  8 48  1  0  0  0  0
  8 49  1  0  0  0  0
  9 50  1  0  0  0  0
  9 51  1  0  0  0  0
 10 52  1  0  0  0  0
 10 53  1  0  0  0  0
 11 54  1  0  0  0  0
 11 55  1  0  0  0  0
 12 56  1  0  0  0  0
 12 57  1  0  0  0  0
 13 58  1  0  0  0  0
 13 59  1  0  0  0  0
 14 60  1  0  0  0  0
 14 61  1  0  0  0  0
 15 62  1  0  0  0  0
 15 63  1  0  0  0  0
 16 64  1  0  0  0  0
 16 65  1  0  0  0  0
 17 66  1  0  0  0  0
 18 67  1  0  0  0  0
 18 68  1  0  0  0  0
 19 69  1  0  0  0  0
 19 70  1  0  0  0  0
 20 71  1  0  0  0  0
 20 72  1  0  0  0  0
 21 73  1  0  0  0  0
 21 74  1  0  0  0  0
 22 75  1  0  0  0  0
 22 76  1  0  0  0  0
 23 77  1  0  0  0  0
 23 78  1  0  0  0  0
 24 79  1  0  0  0  0
 24 80  1  0  0  0  0
 25 81  1  0  0  0  0
 25 82  1  0  0  0  0
 26 83  1  0  0  0  0
 26 84  1  0  0  0  0
 27 85  1  0  0  0  0
 27 86  1  0  0  0  0
 28 87  1  0  0  0  0
 28 88  1  0  0  0  0
 29 89  1  0  0  0  0
 29 90  1  0  0  0  0
 30 91  1  0  0  0  0
 30 92  1  0  0  0  0
 31 93  1  0  0  0  0
 31 94  1  0  0  0  0
 31 95  1  0  0  0  0
 32 96  1  0  0  0  0
M  END
$$$$
