C17H16O7
APtclcactv06291802553D 0   0.00000     0.00000
 
 40 42  0  0  0  0  0  0  0  0999 V2000
    5.3578    2.0811   -0.1553 C   0  0  0  0  0  0  0  0  0  0  0  0
    5.3143    0.6531   -0.1863 O   0  0  0  0  0  0  0  0  0  0  0  0
    4.0917    0.0696   -0.0615 C   0  0  0  0  0  0  0  0  0  0  0  0
    3.9760   -1.3222   -0.0834 C   0  0  0  0  0  0  0  0  0  0  0  0
    2.7390   -1.9284    0.0461 C   0  0  0  0  0  0  0  0  0  0  0  0
    1.5951   -1.1548    0.1996 C   0  0  0  0  0  0  0  0  0  0  0  0
    1.7153    0.2446    0.2137 C   0  0  0  0  0  0  0  0  0  0  0  0
    2.9656    0.8521    0.0924 C   0  0  0  0  0  0  0  0  0  0  0  0
    0.4885    1.0549    0.3584 C   0  0  0  0  0  0  0  0  0  0  0  0
    0.5272    2.2479    0.6016 O   0  0  0  0  0  0  0  0  0  0  0  0
   -0.7852    0.3323    0.1901 C   0  0  0  0  0  0  0  0  0  0  0  0
   -1.9927    1.0256    0.0427 C   0  0  0  0  0  0  0  0  0  0  0  0
   -3.1707    0.3152   -0.1277 C   0  0  0  0  0  0  0  0  0  0  0  0
   -3.1451   -1.0775   -0.1484 C   0  0  0  0  0  0  0  0  0  0  0  0
   -1.9518   -1.7660    0.0035 C   0  0  0  0  0  0  0  0  0  0  0  0
   -0.7618   -1.0737    0.1778 C   0  0  0  0  0  0  0  0  0  0  0  0
    0.3934   -1.7516    0.3394 O   0  0  0  0  0  0  0  0  0  0  0  0
   -4.3020   -1.7681   -0.3190 O   0  0  0  0  0  0  0  0  0  0  0  0
   -4.2106   -3.1941   -0.3314 C   0  0  0  0  0  0  0  0  0  0  0  0
   -4.3513    0.9776   -0.2740 O   0  0  0  0  0  0  0  0  0  0  0  0
   -5.0840    1.2686    0.9178 C   0  0  0  0  0  0  0  0  0  0  0  0
   -2.0097    2.3832    0.0669 O   0  0  0  0  0  0  0  0  0  0  0  0
   -1.9635    3.0552   -1.1934 C   0  0  0  0  0  0  0  0  0  0  0  0
    5.0877   -2.0874   -0.2336 O   0  0  0  0  0  0  0  0  0  0  0  0
    6.3894    2.4157   -0.2646 H   0  0  0  0  0  0  0  0  0  0  0  0
    4.7577    2.4808   -0.9728 H   0  0  0  0  0  0  0  0  0  0  0  0
    4.9594    2.4362    0.7951 H   0  0  0  0  0  0  0  0  0  0  0  0
    2.6624   -3.0055    0.0274 H   0  0  0  0  0  0  0  0  0  0  0  0
    3.0505    1.9286    0.1103 H   0  0  0  0  0  0  0  0  0  0  0  0
   -1.9481   -2.8458   -0.0138 H   0  0  0  0  0  0  0  0  0  0  0  0
   -5.2033   -3.6206   -0.4748 H   0  0  0  0  0  0  0  0  0  0  0  0
   -3.5585   -3.5093   -1.1459 H   0  0  0  0  0  0  0  0  0  0  0  0
   -3.8001   -3.5401    0.6173 H   0  0  0  0  0  0  0  0  0  0  0  0
   -4.5104    1.9576    1.5379 H   0  0  0  0  0  0  0  0  0  0  0  0
   -6.0385    1.7247    0.6553 H   0  0  0  0  0  0  0  0  0  0  0  0
   -5.2619    0.3455    1.4695 H   0  0  0  0  0  0  0  0  0  0  0  0
   -1.0217    2.8269   -1.6925 H   0  0  0  0  0  0  0  0  0  0  0  0
   -2.7943    2.7202   -1.8144 H   0  0  0  0  0  0  0  0  0  0  0  0
   -2.0391    4.1309   -1.0346 H   0  0  0  0  0  0  0  0  0  0  0  0
    5.5128   -2.3314    0.6000 H   0  0  0  0  0  0  0  0  0  0  0  0
  1  2  1  0  0  0  0
  2  3  1  0  0  0  0
  3  4  2  0  0  0  0
  4  5  1  0  0  0  0
  5  6  2  0  0  0  0
  6  7  1  0  0  0  0
  7  8  2  0  0  0  0
  3  8  1  0  0  0  0
  7  9  1  0  0  0  0
  9 10  2  0  0  0  0
  9 11  1  0  0  0  0
 11 12  2  0  0  0  0
 12 13  1  0  0  0  0
 13 14  2  0  0  0  0
 14 15  1  0  0  0  0
 15 16  2  0  0  0  0
 11 16  1  0  0  0  0
 16 17  1  0  0  0  0
  6 17  1  0  0  0  0
 14 18  1  0  0  0  0
 18 19  1  0  0  0  0
 13 20  1  0  0  0  0
 20 21  1  0  0  0  0
 12 22  1  0  0  0  0
 22 23  1  0  0  0  0
  4 24  1  0  0  0  0
  1 25  1  0  0  0  0
  1 26  1  0  0  0  0
  1 27  1  0  0  0  0
  5 28  1  0  0  0  0
  8 29  1  0  0  0  0
 15 30  1  0  0  0  0
 19 31  1  0  0  0  0
 19 32  1  0  0  0  0
 19 33  1  0  0  0  0
 21 34  1  0  0  0  0
 21 35  1  0  0  0  0
 21 36  1  0  0  0  0
 23 37  1  0  0  0  0
 23 38  1  0  0  0  0
 23 39  1  0  0  0  0
 24 40  1  0  0  0  0
M  END
$$$$
