C28H28O6
APtclcactv06291802553D 0   0.00000     0.00000
 
 62 66  0  0  0  0  0  0  0  0999 V2000
    4.9685    3.8813    0.0419 C   0  0  0  0  0  0  0  0  0  0  0  0
    3.8073    3.6984    0.9849 C   0  0  0  0  0  0  0  0  0  0  0  0
    2.7111    3.1142    0.5685 C   0  0  0  0  0  0  0  0  0  0  0  0
    2.6553    2.5136   -0.8125 C   0  0  0  0  0  0  0  0  0  0  0  0
    2.2294    1.0712   -0.7161 C   0  0  0  0  0  0  0  0  0  0  0  0
    0.8787    0.7473   -0.7709 C   0  0  0  0  0  0  0  0  0  0  0  0
    0.4929   -0.5995   -0.6678 C   0  0  0  0  0  0  0  0  0  0  0  0
    1.4618   -1.6023   -0.5160 C   0  0  0  0  0  0  0  0  0  0  0  0
    1.0972   -3.0274   -0.4047 C   0  0  0  0  0  0  0  0  0  0  0  0
    2.0211   -3.8859    0.0217 C   0  0  0  0  0  0  0  0  0  0  0  0
    3.3894   -3.3891    0.4089 C   0  0  0  0  0  0  0  0  0  0  0  0
    3.7436   -2.2407   -0.3612 O   0  0  0  0  0  0  0  0  0  0  0  0
    2.8146   -1.2566   -0.4820 C   0  0  0  0  0  0  0  0  0  0  0  0
    3.1884    0.0803   -0.5793 C   0  0  0  0  0  0  0  0  0  0  0  0
    4.5034    0.4170   -0.5347 O   0  0  0  0  0  0  0  0  0  0  0  0
    3.3908   -3.0206    1.8938 C   0  0  0  0  0  0  0  0  0  0  0  0
    4.4161   -4.4967    0.1640 C   0  0  0  0  0  0  0  0  0  0  0  0
   -0.9448   -0.9234   -0.7130 C   0  0  0  0  0  0  0  0  0  0  0  0
   -1.3454   -2.0639   -0.8653 O   0  0  0  0  0  0  0  0  0  0  0  0
   -1.8686    0.2163   -0.5621 C   0  0  0  0  0  0  0  0  0  0  0  0
   -3.2269    0.0165   -0.3141 C   0  0  0  0  0  0  0  0  0  0  0  0
   -4.0665    1.1250   -0.1612 C   0  0  0  0  0  0  0  0  0  0  0  0
   -3.5440    2.4186   -0.2589 C   0  0  0  0  0  0  0  0  0  0  0  0
   -2.1953    2.6089   -0.5114 C   0  0  0  0  0  0  0  0  0  0  0  0
   -1.3473    1.5201   -0.6699 C   0  0  0  0  0  0  0  0  0  0  0  0
   -0.0395    1.7228   -0.9292 O   0  0  0  0  0  0  0  0  0  0  0  0
   -4.3609    3.4908   -0.1054 O   0  0  0  0  0  0  0  0  0  0  0  0
   -5.5011    0.8897    0.1038 C   0  0  0  0  0  0  0  0  0  0  0  0
   -5.8725   -0.3227    0.5115 C   0  0  0  0  0  0  0  0  0  0  0  0
   -4.8388   -1.4016    0.7013 C   0  0  0  0  0  0  0  0  0  0  0  0
   -3.7583   -1.2259   -0.2162 O   0  0  0  0  0  0  0  0  0  0  0  0
   -4.3012   -1.3397    2.1324 C   0  0  0  0  0  0  0  0  0  0  0  0
   -5.4855   -2.7678    0.4643 C   0  0  0  0  0  0  0  0  0  0  0  0
    3.9070    4.1874    2.4068 C   0  0  0  0  0  0  0  0  0  0  0  0
    4.6321    4.4088   -0.8507 H   0  0  0  0  0  0  0  0  0  0  0  0
    5.7486    4.4617    0.5346 H   0  0  0  0  0  0  0  0  0  0  0  0
    5.3646    2.9058   -0.2402 H   0  0  0  0  0  0  0  0  0  0  0  0
    1.8475    3.0631    1.2149 H   0  0  0  0  0  0  0  0  0  0  0  0
    1.9372    3.0647   -1.4197 H   0  0  0  0  0  0  0  0  0  0  0  0
    3.6411    2.5712   -1.2739 H   0  0  0  0  0  0  0  0  0  0  0  0
    0.1046   -3.3661   -0.6627 H   0  0  0  0  0  0  0  0  0  0  0  0
    1.7896   -4.9386    0.0899 H   0  0  0  0  0  0  0  0  0  0  0  0
    4.9339    0.4367   -1.4004 H   0  0  0  0  0  0  0  0  0  0  0  0
    3.1403   -3.9004    2.4867 H   0  0  0  0  0  0  0  0  0  0  0  0
    4.3796   -2.6605    2.1779 H   0  0  0  0  0  0  0  0  0  0  0  0
    2.6534   -2.2386    2.0748 H   0  0  0  0  0  0  0  0  0  0  0  0
    4.4115   -4.7696   -0.8913 H   0  0  0  0  0  0  0  0  0  0  0  0
    5.4079   -4.1410    0.4430 H   0  0  0  0  0  0  0  0  0  0  0  0
    4.1603   -5.3688    0.7658 H   0  0  0  0  0  0  0  0  0  0  0  0
   -1.8003    3.6113   -0.5867 H   0  0  0  0  0  0  0  0  0  0  0  0
   -4.4348    3.8014    0.8073 H   0  0  0  0  0  0  0  0  0  0  0  0
   -6.2274    1.6779   -0.0296 H   0  0  0  0  0  0  0  0  0  0  0  0
   -6.9140   -0.5319    0.7063 H   0  0  0  0  0  0  0  0  0  0  0  0
   -5.1205   -1.4913    2.8352 H   0  0  0  0  0  0  0  0  0  0  0  0
   -3.5526   -2.1193    2.2733 H   0  0  0  0  0  0  0  0  0  0  0  0
   -3.8476   -0.3643    2.3082 H   0  0  0  0  0  0  0  0  0  0  0  0
   -5.8779   -2.8127   -0.5516 H   0  0  0  0  0  0  0  0  0  0  0  0
   -4.7400   -3.5512    0.6008 H   0  0  0  0  0  0  0  0  0  0  0  0
   -6.2992   -2.9128    1.1749 H   0  0  0  0  0  0  0  0  0  0  0  0
    3.5542    5.2172    2.4625 H   0  0  0  0  0  0  0  0  0  0  0  0
    3.2936    3.5579    3.0514 H   0  0  0  0  0  0  0  0  0  0  0  0
    4.9454    4.1409    2.7351 H   0  0  0  0  0  0  0  0  0  0  0  0
  1  2  1  0  0  0  0
  2  3  2  0  0  0  0
  3  4  1  0  0  0  0
  4  5  1  0  0  0  0
  5  6  2  0  0  0  0
  6  7  1  0  0  0  0
  7  8  2  0  0  0  0
  8  9  1  0  0  0  0
  9 10  2  0  0  0  0
 10 11  1  0  0  0  0
 11 12  1  0  0  0  0
 12 13  1  0  0  0  0
  8 13  1  0  0  0  0
 13 14  2  0  0  0  0
  5 14  1  0  0  0  0
 14 15  1  0  0  0  0
 11 16  1  0  0  0  0
 11 17  1  0  0  0  0
  7 18  1  0  0  0  0
 18 19  2  0  0  0  0
 18 20  1  0  0  0  0
 20 21  2  0  0  0  0
 21 22  1  0  0  0  0
 22 23  2  0  0  0  0
 23 24  1  0  0  0  0
 24 25  2  0  0  0  0
 20 25  1  0  0  0  0
 25 26  1  0  0  0  0
  6 26  1  0  0  0  0
 23 27  1  0  0  0  0
 22 28  1  0  0  0  0
 28 29  2  0  0  0  0
 29 30  1  0  0  0  0
 30 31  1  0  0  0  0
 21 31  1  0  0  0  0
 30 32  1  0  0  0  0
 30 33  1  0  0  0  0
  2 34  1  0  0  0  0
  1 35  1  0  0  0  0
  1 36  1  0  0  0  0
  1 37  1  0  0  0  0
  3 38  1  0  0  0  0
  4 39  1  0  0  0  0
  4 40  1  0  0  0  0
  9 41  1  0  0  0  0
 10 42  1  0  0  0  0
 15 43  1  0  0  0  0
 16 44  1  0  0  0  0
 16 45  1  0  0  0  0
 16 46  1  0  0  0  0
 17 47  1  0  0  0  0
 17 48  1  0  0  0  0
 17 49  1  0  0  0  0
 24 50  1  0  0  0  0
 27 51  1  0  0  0  0
 28 52  1  0  0  0  0
 29 53  1  0  0  0  0
 32 54  1  0  0  0  0
 32 55  1  0  0  0  0
 32 56  1  0  0  0  0
 33 57  1  0  0  0  0
 33 58  1  0  0  0  0
 33 59  1  0  0  0  0
 34 60  1  0  0  0  0
 34 61  1  0  0  0  0
 34 62  1  0  0  0  0
M  END
$$$$
