C18H10O8
APtclcactv06291802553D 0   0.00000     0.00000
 
 36 39  0  0  0  0  0  0  0  0999 V2000
   -3.9940   -1.3837   -0.4957 C   0  0  0  0  0  0  0  0  0  0  0  0
   -3.5499   -2.5866   -0.0471 C   0  0  0  0  0  0  0  0  0  0  0  0
   -2.2261   -2.7144    0.4209 C   0  0  0  0  0  0  0  0  0  0  0  0
   -1.8395   -3.7983    0.8202 O   0  0  0  0  0  0  0  0  0  0  0  0
   -1.3812   -1.6720    0.4369 O   0  0  0  0  0  0  0  0  0  0  0  0
   -1.7601   -0.4505    0.0051 C   0  0  0  0  0  0  0  0  0  0  0  0
   -0.8639    0.6244    0.0304 C   0  0  0  0  0  0  0  0  0  0  0  0
   -1.2762    1.8803   -0.4206 C   0  0  0  0  0  0  0  0  0  0  0  0
   -2.5749    2.0674   -0.8954 C   0  0  0  0  0  0  0  0  0  0  0  0
   -3.4650    1.0144   -0.9237 C   0  0  0  0  0  0  0  0  0  0  0  0
   -3.0655   -0.2512   -0.4748 C   0  0  0  0  0  0  0  0  0  0  0  0
   -2.9653    3.2951   -1.3322 O   0  0  0  0  0  0  0  0  0  0  0  0
   -0.4090    2.9246   -0.3967 O   0  0  0  0  0  0  0  0  0  0  0  0
    0.5141    0.4312    0.5334 C   0  0  0  0  0  0  0  0  0  0  0  0
    1.5485    0.0552   -0.3510 C   0  0  0  0  0  0  0  0  0  0  0  0
    1.2852   -0.1420   -1.7293 C   0  0  0  0  0  0  0  0  0  0  0  0
    2.3085   -0.5032   -2.5473 C   0  0  0  0  0  0  0  0  0  0  0  0
    3.6031   -0.6744   -2.0174 C   0  0  0  0  0  0  0  0  0  0  0  0
    4.5157   -0.9984   -2.7565 O   0  0  0  0  0  0  0  0  0  0  0  0
    3.8463   -0.4854   -0.7093 O   0  0  0  0  0  0  0  0  0  0  0  0
    2.8547   -0.1261    0.1369 C   0  0  0  0  0  0  0  0  0  0  0  0
    3.1184    0.0665    1.4848 C   0  0  0  0  0  0  0  0  0  0  0  0
    2.1014    0.4347    2.3507 C   0  0  0  0  0  0  0  0  0  0  0  0
    0.8027    0.6241    1.8808 C   0  0  0  0  0  0  0  0  0  0  0  0
   -0.1857    0.9854    2.7424 O   0  0  0  0  0  0  0  0  0  0  0  0
    2.3738    0.6195    3.6686 O   0  0  0  0  0  0  0  0  0  0  0  0
   -5.0032   -1.2667   -0.8622 H   0  0  0  0  0  0  0  0  0  0  0  0
   -4.2089   -3.4422   -0.0485 H   0  0  0  0  0  0  0  0  0  0  0  0
   -4.4692    1.1652   -1.2915 H   0  0  0  0  0  0  0  0  0  0  0  0
   -2.8093    3.4452   -2.2747 H   0  0  0  0  0  0  0  0  0  0  0  0
    0.1113    3.0224   -1.2058 H   0  0  0  0  0  0  0  0  0  0  0  0
    0.2884   -0.0079   -2.1228 H   0  0  0  0  0  0  0  0  0  0  0  0
    2.1300   -0.6591   -3.6010 H   0  0  0  0  0  0  0  0  0  0  0  0
    4.1212   -0.0715    1.8613 H   0  0  0  0  0  0  0  0  0  0  0  0
   -0.2925    1.9416    2.8399 H   0  0  0  0  0  0  0  0  0  0  0  0
    2.6283    1.5246    3.8944 H   0  0  0  0  0  0  0  0  0  0  0  0
  1  2  2  0  0  0  0
  2  3  1  0  0  0  0
  3  4  2  0  0  0  0
  3  5  1  0  0  0  0
  5  6  1  0  0  0  0
  6  7  2  0  0  0  0
  7  8  1  0  0  0  0
  8  9  2  0  0  0  0
  9 10  1  0  0  0  0
 10 11  2  0  0  0  0
  6 11  1  0  0  0  0
  1 11  1  0  0  0  0
  9 12  1  0  0  0  0
  8 13  1  0  0  0  0
  7 14  1  0  0  0  0
 14 15  2  0  0  0  0
 15 16  1  0  0  0  0
 16 17  2  0  0  0  0
 17 18  1  0  0  0  0
 18 19  2  0  0  0  0
 18 20  1  0  0  0  0
 20 21  1  0  0  0  0
 15 21  1  0  0  0  0
 21 22  2  0  0  0  0
 22 23  1  0  0  0  0
 23 24  2  0  0  0  0
 14 24  1  0  0  0  0
 24 25  1  0  0  0  0
 23 26  1  0  0  0  0
  1 27  1  0  0  0  0
  2 28  1  0  0  0  0
 10 29  1  0  0  0  0
 12 30  1  0  0  0  0
 13 31  1  0  0  0  0
 16 32  1  0  0  0  0
 17 33  1  0  0  0  0
 22 34  1  0  0  0  0
 25 35  1  0  0  0  0
 26 36  1  0  0  0  0
M  END
$$$$
