C16H14O3
APtclcactv06291802553D 0   0.00000     0.00000
 
 33 35  0  0  0  0  0  0  0  0999 V2000
    5.3041    1.4519   -0.0097 C   0  0  0  0  0  0  0  0  0  0  0  0
    3.8979    1.7063   -0.0098 O   0  0  0  0  0  0  0  0  0  0  0  0
    3.0753    0.6249   -0.0050 C   0  0  0  0  0  0  0  0  0  0  0  0
    1.7065    0.8049   -0.0048 C   0  0  0  0  0  0  0  0  0  0  0  0
    0.8658   -0.3093   -0.0003 C   0  0  0  0  0  0  0  0  0  0  0  0
    1.4217   -1.6089    0.0040 C   0  0  0  0  0  0  0  0  0  0  0  0
    0.5697   -2.7378    0.0077 C   0  0  0  0  0  0  0  0  0  0  0  0
   -0.7721   -2.6063    0.0071 C   0  0  0  0  0  0  0  0  0  0  0  0
   -1.3893   -1.3330    0.0023 C   0  0  0  0  0  0  0  0  0  0  0  0
   -2.7851   -1.2112    0.0007 C   0  0  0  0  0  0  0  0  0  0  0  0
   -3.3657    0.0403   -0.0044 C   0  0  0  0  0  0  0  0  0  0  0  0
   -2.5785    1.1899   -0.0085 C   0  0  0  0  0  0  0  0  0  0  0  0
   -1.2017    1.0954   -0.0070 C   0  0  0  0  0  0  0  0  0  0  0  0
   -0.5925   -0.1662   -0.0005 C   0  0  0  0  0  0  0  0  0  0  0  0
   -0.4407    2.2205   -0.0114 O   0  0  0  0  0  0  0  0  0  0  0  0
   -4.7198    0.1529   -0.0059 O   0  0  0  0  0  0  0  0  0  0  0  0
   -5.2608    1.4756   -0.0113 C   0  0  0  0  0  0  0  0  0  0  0  0
    2.8160   -1.7597    0.0041 C   0  0  0  0  0  0  0  0  0  0  0  0
    3.6199   -0.6596   -0.0061 C   0  0  0  0  0  0  0  0  0  0  0  0
    5.5707    0.8851    0.8824 H   0  0  0  0  0  0  0  0  0  0  0  0
    5.5695    0.8780   -0.8976 H   0  0  0  0  0  0  0  0  0  0  0  0
    5.8446    2.3984   -0.0138 H   0  0  0  0  0  0  0  0  0  0  0  0
    1.2891    1.8010   -0.0077 H   0  0  0  0  0  0  0  0  0  0  0  0
    1.0035   -3.7268    0.0107 H   0  0  0  0  0  0  0  0  0  0  0  0
   -1.3896   -3.4924    0.0100 H   0  0  0  0  0  0  0  0  0  0  0  0
   -3.4053   -2.0954    0.0031 H   0  0  0  0  0  0  0  0  0  0  0  0
   -3.0492    2.1619   -0.0132 H   0  0  0  0  0  0  0  0  0  0  0  0
   -0.2210    2.5502    0.8707 H   0  0  0  0  0  0  0  0  0  0  0  0
   -4.9235    2.0097    0.8770 H   0  0  0  0  0  0  0  0  0  0  0  0
   -4.9220    2.0031   -0.9029 H   0  0  0  0  0  0  0  0  0  0  0  0
   -6.3495    1.4229   -0.0120 H   0  0  0  0  0  0  0  0  0  0  0  0
    3.2524   -2.7476    0.0077 H   0  0  0  0  0  0  0  0  0  0  0  0
    4.6928   -0.7835   -0.0063 H   0  0  0  0  0  0  0  0  0  0  0  0
  1  2  1  0  0  0  0
  2  3  1  0  0  0  0
  3  4  2  0  0  0  0
  4  5  1  0  0  0  0
  5  6  2  0  0  0  0
  6  7  1  0  0  0  0
  7  8  2  0  0  0  0
  8  9  1  0  0  0  0
  9 10  2  0  0  0  0
 10 11  1  0  0  0  0
 11 12  2  0  0  0  0
 12 13  1  0  0  0  0
 13 14  2  0  0  0  0
  9 14  1  0  0  0  0
  5 14  1  0  0  0  0
 13 15  1  0  0  0  0
 11 16  1  0  0  0  0
 16 17  1  0  0  0  0
  6 18  1  0  0  0  0
 18 19  2  0  0  0  0
  3 19  1  0  0  0  0
  1 20  1  0  0  0  0
  1 21  1  0  0  0  0
  1 22  1  0  0  0  0
  4 23  1  0  0  0  0
  7 24  1  0  0  0  0
  8 25  1  0  0  0  0
 10 26  1  0  0  0  0
 12 27  1  0  0  0  0
 15 28  1  0  0  0  0
 17 29  1  0  0  0  0
 17 30  1  0  0  0  0
 17 31  1  0  0  0  0
 18 32  1  0  0  0  0
 19 33  1  0  0  0  0
M  END
$$$$
