C8H10O2
APtclcactv06211804393D 0   0.00000     0.00000
 
 20 20  0  0  0  0  0  0  0  0999 V2000
    2.9589    1.1821   -0.0141 C   0  0  0  0  0  0  0  0  0  0  0  0
    1.7039    0.3479   -0.0028 C   0  0  0  0  0  0  0  0  0  0  0  0
    0.4663    0.9639   -0.0023 C   0  0  0  0  0  0  0  0  0  0  0  0
   -0.6886    0.1983    0.0081 C   0  0  0  0  0  0  0  0  0  0  0  0
   -0.5992   -1.1903    0.0181 C   0  0  0  0  0  0  0  0  0  0  0  0
    0.6445   -1.8014    0.0176 C   0  0  0  0  0  0  0  0  0  0  0  0
    1.7927   -1.0317    0.0014 C   0  0  0  0  0  0  0  0  0  0  0  0
   -1.7298   -1.9460    0.0288 O   0  0  0  0  0  0  0  0  0  0  0  0
   -1.9069    0.8027    0.0090 O   0  0  0  0  0  0  0  0  0  0  0  0
   -1.9222    2.2316   -0.0011 C   0  0  0  0  0  0  0  0  0  0  0  0
    3.2656    1.3909    1.0107 H   0  0  0  0  0  0  0  0  0  0  0  0
    3.7520    0.6383   -0.5272 H   0  0  0  0  0  0  0  0  0  0  0  0
    2.7667    2.1206   -0.5342 H   0  0  0  0  0  0  0  0  0  0  0  0
    0.3996    2.0418   -0.0097 H   0  0  0  0  0  0  0  0  0  0  0  0
    0.7167   -2.8789    0.0253 H   0  0  0  0  0  0  0  0  0  0  0  0
    2.7615   -1.5092    0.0010 H   0  0  0  0  0  0  0  0  0  0  0  0
   -2.0607   -2.1711   -0.8515 H   0  0  0  0  0  0  0  0  0  0  0  0
   -2.9537    2.5839    0.0008 H   0  0  0  0  0  0  0  0  0  0  0  0
   -1.4085    2.6068    0.8840 H   0  0  0  0  0  0  0  0  0  0  0  0
   -1.4162    2.5941   -0.8959 H   0  0  0  0  0  0  0  0  0  0  0  0
  1  2  1  0  0  0  0
  2  3  2  0  0  0  0
  3  4  1  0  0  0  0
  4  5  2  0  0  0  0
  5  6  1  0  0  0  0
  6  7  2  0  0  0  0
  2  7  1  0  0  0  0
  5  8  1  0  0  0  0
  4  9  1  0  0  0  0
  9 10  1  0  0  0  0
  1 11  1  0  0  0  0
  1 12  1  0  0  0  0
  1 13  1  0  0  0  0
  3 14  1  0  0  0  0
  6 15  1  0  0  0  0
  7 16  1  0  0  0  0
  8 17  1  0  0  0  0
 10 18  1  0  0  0  0
 10 19  1  0  0  0  0
 10 20  1  0  0  0  0
M  END
$$$$
