C15H14O5
APtclcactv06291802553D 0   0.00000     0.00000
 
 34 36  0  0  0  0  0  0  0  0999 V2000
    3.5239   -1.1639   -1.6421 C   0  0  0  0  0  0  0  0  0  0  0  0
    3.7193   -0.8223   -0.1636 C   0  0  0  0  0  0  0  0  0  0  0  0
    3.8702    0.6685   -0.0143 C   0  0  0  0  0  0  0  0  0  0  0  0
    2.7926    1.4328    0.1554 C   0  0  0  0  0  0  0  0  0  0  0  0
    1.4720    0.7707    0.2036 C   0  0  0  0  0  0  0  0  0  0  0  0
    1.4254   -0.6176    0.4236 C   0  0  0  0  0  0  0  0  0  0  0  0
    2.5940   -1.2904    0.5804 O   0  0  0  0  0  0  0  0  0  0  0  0
    0.2127   -1.2756    0.4771 C   0  0  0  0  0  0  0  0  0  0  0  0
   -0.9738   -0.5698    0.3127 C   0  0  0  0  0  0  0  0  0  0  0  0
   -0.9309    0.8187    0.0909 C   0  0  0  0  0  0  0  0  0  0  0  0
    0.2948    1.4933    0.0361 C   0  0  0  0  0  0  0  0  0  0  0  0
    0.3340    2.8321   -0.1767 O   0  0  0  0  0  0  0  0  0  0  0  0
   -2.2033    1.5399   -0.0809 C   0  0  0  0  0  0  0  0  0  0  0  0
   -2.2348    2.7432   -0.2775 O   0  0  0  0  0  0  0  0  0  0  0  0
   -3.3936    0.7648   -0.0071 C   0  0  0  0  0  0  0  0  0  0  0  0
   -3.3058   -0.5570    0.2103 C   0  0  0  0  0  0  0  0  0  0  0  0
   -2.1565   -1.2127    0.3660 O   0  0  0  0  0  0  0  0  0  0  0  0
   -4.5865   -1.3480    0.2837 C   0  0  0  0  0  0  0  0  0  0  0  0
   -4.6409   -2.2687   -0.8077 O   0  0  0  0  0  0  0  0  0  0  0  0
    4.9849   -1.5114    0.3503 C   0  0  0  0  0  0  0  0  0  0  0  0
    4.3901   -0.8257   -2.2107 H   0  0  0  0  0  0  0  0  0  0  0  0
    3.4143   -2.2426   -1.7544 H   0  0  0  0  0  0  0  0  0  0  0  0
    2.6281   -0.6669   -2.0146 H   0  0  0  0  0  0  0  0  0  0  0  0
    4.8518    1.1179   -0.0444 H   0  0  0  0  0  0  0  0  0  0  0  0
    2.8812    2.5045    0.2553 H   0  0  0  0  0  0  0  0  0  0  0  0
    0.1858   -2.3419    0.6469 H   0  0  0  0  0  0  0  0  0  0  0  0
    0.3075    3.3600    0.6330 H   0  0  0  0  0  0  0  0  0  0  0  0
   -4.3587    1.2352   -0.1244 H   0  0  0  0  0  0  0  0  0  0  0  0
   -4.6208   -1.8973    1.2246 H   0  0  0  0  0  0  0  0  0  0  0  0
   -5.4369   -0.6684    0.2285 H   0  0  0  0  0  0  0  0  0  0  0  0
   -5.4402   -2.8127   -0.8239 H   0  0  0  0  0  0  0  0  0  0  0  0
    5.8454   -1.1643   -0.2217 H   0  0  0  0  0  0  0  0  0  0  0  0
    5.1277   -1.2704    1.4037 H   0  0  0  0  0  0  0  0  0  0  0  0
    4.8834   -2.5905    0.2350 H   0  0  0  0  0  0  0  0  0  0  0  0
  1  2  1  0  0  0  0
  2  3  1  0  0  0  0
  3  4  2  0  0  0  0
  4  5  1  0  0  0  0
  5  6  2  0  0  0  0
  6  7  1  0  0  0  0
  2  7  1  0  0  0  0
  6  8  1  0  0  0  0
  8  9  2  0  0  0  0
  9 10  1  0  0  0  0
 10 11  2  0  0  0  0
  5 11  1  0  0  0  0
 11 12  1  0  0  0  0
 10 13  1  0  0  0  0
 13 14  2  0  0  0  0
 13 15  1  0  0  0  0
 15 16  2  0  0  0  0
 16 17  1  0  0  0  0
  9 17  1  0  0  0  0
 16 18  1  0  0  0  0
 18 19  1  0  0  0  0
  2 20  1  0  0  0  0
  1 21  1  0  0  0  0
  1 22  1  0  0  0  0
  1 23  1  0  0  0  0
  3 24  1  0  0  0  0
  4 25  1  0  0  0  0
  8 26  1  0  0  0  0
 12 27  1  0  0  0  0
 15 28  1  0  0  0  0
 18 29  1  0  0  0  0
 18 30  1  0  0  0  0
 19 31  1  0  0  0  0
 20 32  1  0  0  0  0
 20 33  1  0  0  0  0
 20 34  1  0  0  0  0
M  END
$$$$
