C7H7NO2
APtclcactv06211804393D 0   0.00000     0.00000
 
 17 17  0  0  0  0  0  0  0  0999 V2000
    3.4691   -0.5191    0.0003 C   0  0  0  0  0  0  0  0  0  0  0  0
    2.0396   -0.7737    0.0003 O   0  0  0  0  0  0  0  0  0  0  0  0
    1.2271    0.3008   -0.0006 C   0  0  0  0  0  0  0  0  0  0  0  0
    1.6998    1.4197   -0.0014 O   0  0  0  0  0  0  0  0  0  0  0  0
   -0.2388    0.1183   -0.0006 C   0  0  0  0  0  0  0  0  0  0  0  0
   -0.7947   -1.1620    0.0003 C   0  0  0  0  0  0  0  0  0  0  0  0
   -2.1014   -1.3245    0.0002 N   0  0  0  0  0  0  0  0  0  0  0  0
   -2.9313   -0.2989   -0.0007 C   0  0  0  0  0  0  0  0  0  0  0  0
   -2.4596    1.0018   -0.0017 C   0  0  0  0  0  0  0  0  0  0  0  0
   -1.0947    1.2272    0.0042 C   0  0  0  0  0  0  0  0  0  0  0  0
    3.7366    0.0511    0.8899 H   0  0  0  0  0  0  0  0  0  0  0  0
    4.0069   -1.4672    0.0011 H   0  0  0  0  0  0  0  0  0  0  0  0
    3.7368    0.0498   -0.8901 H   0  0  0  0  0  0  0  0  0  0  0  0
   -0.1475   -2.0266    0.0007 H   0  0  0  0  0  0  0  0  0  0  0  0
   -3.9964   -0.4776   -0.0011 H   0  0  0  0  0  0  0  0  0  0  0  0
   -3.1498    1.8325   -0.0027 H   0  0  0  0  0  0  0  0  0  0  0  0
   -0.6992    2.2322    0.0040 H   0  0  0  0  0  0  0  0  0  0  0  0
  1  2  1  0  0  0  0
  2  3  1  0  0  0  0
  3  4  2  0  0  0  0
  3  5  1  0  0  0  0
  5  6  2  0  0  0  0
  6  7  1  0  0  0  0
  7  8  2  0  0  0  0
  8  9  1  0  0  0  0
  9 10  2  0  0  0  0
  5 10  1  0  0  0  0
  1 11  1  0  0  0  0
  1 12  1  0  0  0  0
  1 13  1  0  0  0  0
  6 14  1  0  0  0  0
  8 15  1  0  0  0  0
  9 16  1  0  0  0  0
 10 17  1  0  0  0  0
M  END
$$$$
