C17H34O
APtclcactv06211806263D 0   0.00000     0.00000
 
 52 51  0  0  0  0  0  0  0  0999 V2000
   10.5893    0.4367   -0.0600 C   0  0  0  0  0  0  0  0  0  0  0  0
    9.3430   -0.4504   -0.0865 C   0  0  0  0  0  0  0  0  0  0  0  0
    8.0910    0.4273   -0.0294 C   0  0  0  0  0  0  0  0  0  0  0  0
    6.8447   -0.4598   -0.0559 C   0  0  0  0  0  0  0  0  0  0  0  0
    5.5927    0.4178    0.0012 C   0  0  0  0  0  0  0  0  0  0  0  0
    4.3464   -0.4693   -0.0253 C   0  0  0  0  0  0  0  0  0  0  0  0
    3.0945    0.4083    0.0318 C   0  0  0  0  0  0  0  0  0  0  0  0
    1.8482   -0.4787    0.0052 C   0  0  0  0  0  0  0  0  0  0  0  0
    0.5962    0.3989    0.0624 C   0  0  0  0  0  0  0  0  0  0  0  0
   -0.6501   -0.4882    0.0358 C   0  0  0  0  0  0  0  0  0  0  0  0
   -1.9021    0.3894    0.0930 C   0  0  0  0  0  0  0  0  0  0  0  0
   -3.1484   -0.4977    0.0664 C   0  0  0  0  0  0  0  0  0  0  0  0
   -4.4004    0.3799    0.1236 C   0  0  0  0  0  0  0  0  0  0  0  0
   -5.6467   -0.5071    0.0970 C   0  0  0  0  0  0  0  0  0  0  0  0
   -6.8986    0.3705    0.1542 C   0  0  0  0  0  0  0  0  0  0  0  0
   -8.1449   -0.5166    0.1276 C   0  0  0  0  0  0  0  0  0  0  0  0
   -9.3781    0.3478    0.1839 C   0  0  0  0  0  0  0  0  0  0  0  0
  -10.2275    0.2442   -0.6682 O   0  0  0  0  0  0  0  0  0  0  0  0
   10.5983    1.0232    0.8587 H   0  0  0  0  0  0  0  0  0  0  0  0
   11.4812   -0.1885   -0.1007 H   0  0  0  0  0  0  0  0  0  0  0  0
   10.5762    1.1074   -0.9191 H   0  0  0  0  0  0  0  0  0  0  0  0
    9.3340   -1.0369   -1.0053 H   0  0  0  0  0  0  0  0  0  0  0  0
    9.3560   -1.1211    0.7726 H   0  0  0  0  0  0  0  0  0  0  0  0
    8.1000    1.0137    0.8893 H   0  0  0  0  0  0  0  0  0  0  0  0
    8.0780    1.0980   -0.8885 H   0  0  0  0  0  0  0  0  0  0  0  0
    6.8357   -1.0463   -0.9747 H   0  0  0  0  0  0  0  0  0  0  0  0
    6.8578   -1.1305    0.8032 H   0  0  0  0  0  0  0  0  0  0  0  0
    5.6018    1.0043    0.9199 H   0  0  0  0  0  0  0  0  0  0  0  0
    5.5797    1.0885   -0.8579 H   0  0  0  0  0  0  0  0  0  0  0  0
    4.3374   -1.0558   -0.9441 H   0  0  0  0  0  0  0  0  0  0  0  0
    4.3595   -1.1400    0.8338 H   0  0  0  0  0  0  0  0  0  0  0  0
    3.1035    0.9948    0.9505 H   0  0  0  0  0  0  0  0  0  0  0  0
    3.0814    1.0790   -0.8273 H   0  0  0  0  0  0  0  0  0  0  0  0
    1.8391   -1.0652   -0.9135 H   0  0  0  0  0  0  0  0  0  0  0  0
    1.8612   -1.1495    0.8644 H   0  0  0  0  0  0  0  0  0  0  0  0
    0.6052    0.9854    0.9811 H   0  0  0  0  0  0  0  0  0  0  0  0
    0.5831    1.0696   -0.7967 H   0  0  0  0  0  0  0  0  0  0  0  0
   -0.6591   -1.0747   -0.8829 H   0  0  0  0  0  0  0  0  0  0  0  0
   -0.6371   -1.1589    0.8950 H   0  0  0  0  0  0  0  0  0  0  0  0
   -1.8930    0.9759    1.0117 H   0  0  0  0  0  0  0  0  0  0  0  0
   -1.9151    1.0601   -0.7661 H   0  0  0  0  0  0  0  0  0  0  0  0
   -3.1574   -1.0842   -0.8523 H   0  0  0  0  0  0  0  0  0  0  0  0
   -3.1353   -1.1684    0.9255 H   0  0  0  0  0  0  0  0  0  0  0  0
   -4.3913    0.9664    1.0423 H   0  0  0  0  0  0  0  0  0  0  0  0
   -4.4134    1.0507   -0.7355 H   0  0  0  0  0  0  0  0  0  0  0  0
   -5.6557   -1.0936   -0.8217 H   0  0  0  0  0  0  0  0  0  0  0  0
   -5.6336   -1.1778    0.9561 H   0  0  0  0  0  0  0  0  0  0  0  0
   -6.8896    0.9570    1.0729 H   0  0  0  0  0  0  0  0  0  0  0  0
   -6.9117    1.0412   -0.7049 H   0  0  0  0  0  0  0  0  0  0  0  0
   -8.1540   -1.1031   -0.7911 H   0  0  0  0  0  0  0  0  0  0  0  0
   -8.1319   -1.1873    0.9867 H   0  0  0  0  0  0  0  0  0  0  0  0
   -9.5021    1.0600    0.9863 H   0  0  0  0  0  0  0  0  0  0  0  0
  1  2  1  0  0  0  0
  2  3  1  0  0  0  0
  3  4  1  0  0  0  0
  4  5  1  0  0  0  0
  5  6  1  0  0  0  0
  6  7  1  0  0  0  0
  7  8  1  0  0  0  0
  8  9  1  0  0  0  0
  9 10  1  0  0  0  0
 10 11  1  0  0  0  0
 11 12  1  0  0  0  0
 12 13  1  0  0  0  0
 13 14  1  0  0  0  0
 14 15  1  0  0  0  0
 15 16  1  0  0  0  0
 16 17  1  0  0  0  0
 17 18  2  0  0  0  0
  1 19  1  0  0  0  0
  1 20  1  0  0  0  0
  1 21  1  0  0  0  0
  2 22  1  0  0  0  0
  2 23  1  0  0  0  0
  3 24  1  0  0  0  0
  3 25  1  0  0  0  0
  4 26  1  0  0  0  0
  4 27  1  0  0  0  0
  5 28  1  0  0  0  0
  5 29  1  0  0  0  0
  6 30  1  0  0  0  0
  6 31  1  0  0  0  0
  7 32  1  0  0  0  0
  7 33  1  0  0  0  0
  8 34  1  0  0  0  0
  8 35  1  0  0  0  0
  9 36  1  0  0  0  0
  9 37  1  0  0  0  0
 10 38  1  0  0  0  0
 10 39  1  0  0  0  0
 11 40  1  0  0  0  0
 11 41  1  0  0  0  0
 12 42  1  0  0  0  0
 12 43  1  0  0  0  0
 13 44  1  0  0  0  0
 13 45  1  0  0  0  0
 14 46  1  0  0  0  0
 14 47  1  0  0  0  0
 15 48  1  0  0  0  0
 15 49  1  0  0  0  0
 16 50  1  0  0  0  0
 16 51  1  0  0  0  0
 17 52  1  0  0  0  0
M  END
$$$$
