C15H22O
APtclcactv06291802553D 0   0.00000     0.00000
 
 38 38  0  0  0  0  0  0  0  0999 V2000
    0.2090    2.7955    0.3068 C   0  0  0  0  0  0  0  0  0  0  0  0
    1.3363    1.8036    0.4348 C   0  0  0  0  0  0  0  0  0  0  0  0
    2.5668    2.1741    0.1806 C   0  0  0  0  0  0  0  0  0  0  0  0
    1.0480    0.3854    0.8552 C   0  0  0  0  0  0  0  0  0  0  0  0
   -0.4603    0.2040    1.0371 C   0  0  0  0  0  0  0  0  0  0  0  0
   -1.1725    0.4990   -0.2844 C   0  0  0  0  0  0  0  0  0  0  0  0
   -0.6692   -0.4644   -1.3612 C   0  0  0  0  0  0  0  0  0  0  0  0
    0.8391   -0.2830   -1.5431 C   0  0  0  0  0  0  0  0  0  0  0  0
    1.5514   -0.5780   -0.2215 C   0  0  0  0  0  0  0  0  0  0  0  0
    3.0596   -0.3966   -0.4035 C   0  0  0  0  0  0  0  0  0  0  0  0
    1.2631   -1.9962    0.1989 C   0  0  0  0  0  0  0  0  0  0  0  0
    2.2511   -2.8139    0.4658 C   0  0  0  0  0  0  0  0  0  0  0  0
   -2.6581    0.3203   -0.1052 C   0  0  0  0  0  0  0  0  0  0  0  0
   -3.4842    1.3464   -0.3193 C   0  0  0  0  0  0  0  0  0  0  0  0
   -3.1946   -0.9776    0.3032 C   0  0  0  0  0  0  0  0  0  0  0  0
   -2.4435   -1.9104    0.4978 O   0  0  0  0  0  0  0  0  0  0  0  0
   -0.1216    2.8379   -0.7309 H   0  0  0  0  0  0  0  0  0  0  0  0
   -0.6218    2.4851    0.9405 H   0  0  0  0  0  0  0  0  0  0  0  0
    0.5551    3.7810    0.6185 H   0  0  0  0  0  0  0  0  0  0  0  0
    2.7622    3.1551   -0.2267 H   0  0  0  0  0  0  0  0  0  0  0  0
    3.3860    1.4986    0.3784 H   0  0  0  0  0  0  0  0  0  0  0  0
    1.5554    0.1753    1.7967 H   0  0  0  0  0  0  0  0  0  0  0  0
   -0.6688   -0.8217    1.3412 H   0  0  0  0  0  0  0  0  0  0  0  0
   -0.8188    0.8904    1.8042 H   0  0  0  0  0  0  0  0  0  0  0  0
   -0.9640    1.5248   -0.5885 H   0  0  0  0  0  0  0  0  0  0  0  0
   -0.8777   -1.4902   -1.0571 H   0  0  0  0  0  0  0  0  0  0  0  0
   -1.1766   -0.2543   -2.3027 H   0  0  0  0  0  0  0  0  0  0  0  0
    1.1977   -0.9694   -2.3102 H   0  0  0  0  0  0  0  0  0  0  0  0
    1.0476    0.7427   -1.8472 H   0  0  0  0  0  0  0  0  0  0  0  0
    3.2513    0.5281   -0.9478 H   0  0  0  0  0  0  0  0  0  0  0  0
    3.5404   -0.3493    0.5736 H   0  0  0  0  0  0  0  0  0  0  0  0
    3.4617   -1.2393   -0.9658 H   0  0  0  0  0  0  0  0  0  0  0  0
    0.2419   -2.3383    0.2801 H   0  0  0  0  0  0  0  0  0  0  0  0
    2.0492   -3.8532    0.6791 H   0  0  0  0  0  0  0  0  0  0  0  0
    3.2674   -2.4488    0.4725 H   0  0  0  0  0  0  0  0  0  0  0  0
   -4.5489    1.2184   -0.1908 H   0  0  0  0  0  0  0  0  0  0  0  0
   -3.0881    2.3048   -0.6209 H   0  0  0  0  0  0  0  0  0  0  0  0
   -4.2592   -1.1056    0.4317 H   0  0  0  0  0  0  0  0  0  0  0  0
  1  2  1  0  0  0  0
  2  3  2  0  0  0  0
  2  4  1  0  0  0  0
  4  5  1  0  0  0  0
  5  6  1  0  0  0  0
  6  7  1  0  0  0  0
  7  8  1  0  0  0  0
  8  9  1  0  0  0  0
  4  9  1  0  0  0  0
  9 10  1  0  0  0  0
  9 11  1  0  0  0  0
 11 12  2  0  0  0  0
  6 13  1  0  0  0  0
 13 14  2  0  0  0  0
 13 15  1  0  0  0  0
 15 16  2  0  0  0  0
  1 17  1  0  0  0  0
  1 18  1  0  0  0  0
  1 19  1  0  0  0  0
  3 20  1  0  0  0  0
  3 21  1  0  0  0  0
  4 22  1  0  0  0  0
  5 23  1  0  0  0  0
  5 24  1  0  0  0  0
  6 25  1  0  0  0  0
  7 26  1  0  0  0  0
  7 27  1  0  0  0  0
  8 28  1  0  0  0  0
  8 29  1  0  0  0  0
 10 30  1  0  0  0  0
 10 31  1  0  0  0  0
 10 32  1  0  0  0  0
 11 33  1  0  0  0  0
 12 34  1  0  0  0  0
 12 35  1  0  0  0  0
 14 36  1  0  0  0  0
 14 37  1  0  0  0  0
 15 38  1  0  0  0  0
M  END
$$$$
