C15H14O7
APtclcactv06211806263D 0   0.00000     0.00000
 
 36 38  0  0  0  0  0  0  0  0999 V2000
   -2.1658    1.0643   -0.9088 C   0  0  0  0  0  0  0  0  0  0  0  0
   -3.4859    1.4118   -1.1268 C   0  0  0  0  0  0  0  0  0  0  0  0
   -4.4869    0.8543   -0.3475 C   0  0  0  0  0  0  0  0  0  0  0  0
   -4.1598   -0.0550    0.6538 C   0  0  0  0  0  0  0  0  0  0  0  0
   -2.8346   -0.3990    0.8671 C   0  0  0  0  0  0  0  0  0  0  0  0
   -1.8408    0.1609    0.0861 C   0  0  0  0  0  0  0  0  0  0  0  0
   -0.4001   -0.2144    0.3195 C   0  0  0  0  0  0  0  0  0  0  0  0
    0.0359   -1.2593   -0.7157 C   0  0  0  0  0  0  0  0  0  0  0  0
    1.4638   -1.6989   -0.3825 C   0  0  0  0  0  0  0  0  0  0  0  0
    2.3275   -0.4853   -0.1488 C   0  0  0  0  0  0  0  0  0  0  0  0
    3.7090   -0.6281   -0.2042 C   0  0  0  0  0  0  0  0  0  0  0  0
    4.5334    0.4649    0.0088 C   0  0  0  0  0  0  0  0  0  0  0  0
    3.9781    1.7063    0.2789 C   0  0  0  0  0  0  0  0  0  0  0  0
    2.6013    1.8499    0.3332 C   0  0  0  0  0  0  0  0  0  0  0  0
    1.7727    0.7540    0.1178 C   0  0  0  0  0  0  0  0  0  0  0  0
    0.4279    0.9397    0.1705 O   0  0  0  0  0  0  0  0  0  0  0  0
    4.7831    2.7805    0.4904 O   0  0  0  0  0  0  0  0  0  0  0  0
    4.2534   -1.8450   -0.4680 O   0  0  0  0  0  0  0  0  0  0  0  0
    1.4497   -2.5066    0.7963 O   0  0  0  0  0  0  0  0  0  0  0  0
   -0.8404   -2.3867   -0.6608 O   0  0  0  0  0  0  0  0  0  0  0  0
   -5.1386   -0.6044    1.4216 O   0  0  0  0  0  0  0  0  0  0  0  0
   -5.7860    1.1955   -0.5604 O   0  0  0  0  0  0  0  0  0  0  0  0
   -1.3870    1.4960   -1.5198 H   0  0  0  0  0  0  0  0  0  0  0  0
   -3.7371    2.1180   -1.9044 H   0  0  0  0  0  0  0  0  0  0  0  0
   -2.5780   -1.1042    1.6438 H   0  0  0  0  0  0  0  0  0  0  0  0
   -0.2851   -0.6223    1.3237 H   0  0  0  0  0  0  0  0  0  0  0  0
    0.0098   -0.8211   -1.7134 H   0  0  0  0  0  0  0  0  0  0  0  0
    1.8682   -2.2775   -1.2130 H   0  0  0  0  0  0  0  0  0  0  0  0
    5.6064    0.3501   -0.0351 H   0  0  0  0  0  0  0  0  0  0  0  0
    2.1695    2.8171    0.5442 H   0  0  0  0  0  0  0  0  0  0  0  0
    5.0013    3.2728   -0.3128 H   0  0  0  0  0  0  0  0  0  0  0  0
    4.3949   -2.0169   -1.4090 H   0  0  0  0  0  0  0  0  0  0  0  0
    2.3227   -2.8218    1.0675 H   0  0  0  0  0  0  0  0  0  0  0  0
   -0.6210   -3.0865   -1.2910 H   0  0  0  0  0  0  0  0  0  0  0  0
   -5.5015   -1.4275    1.0666 H   0  0  0  0  0  0  0  0  0  0  0  0
   -6.2415    0.6302   -1.1993 H   0  0  0  0  0  0  0  0  0  0  0  0
  1  2  2  0  0  0  0
  2  3  1  0  0  0  0
  3  4  2  0  0  0  0
  4  5  1  0  0  0  0
  5  6  2  0  0  0  0
  1  6  1  0  0  0  0
  6  7  1  0  0  0  0
  7  8  1  0  0  0  0
  8  9  1  0  0  0  0
  9 10  1  0  0  0  0
 10 11  2  0  0  0  0
 11 12  1  0  0  0  0
 12 13  2  0  0  0  0
 13 14  1  0  0  0  0
 14 15  2  0  0  0  0
 10 15  1  0  0  0  0
 15 16  1  0  0  0  0
  7 16  1  0  0  0  0
 13 17  1  0  0  0  0
 11 18  1  0  0  0  0
  9 19  1  0  0  0  0
  8 20  1  0  0  0  0
  4 21  1  0  0  0  0
  3 22  1  0  0  0  0
  1 23  1  0  0  0  0
  2 24  1  0  0  0  0
  5 25  1  0  0  0  0
  7 26  1  0  0  0  0
  8 27  1  0  0  0  0
  9 28  1  0  0  0  0
 12 29  1  0  0  0  0
 14 30  1  0  0  0  0
 17 31  1  0  0  0  0
 18 32  1  0  0  0  0
 19 33  1  0  0  0  0
 20 34  1  0  0  0  0
 21 35  1  0  0  0  0
 22 36  1  0  0  0  0
M  END
$$$$
