C9H10O2
APtclcactv06211804393D 0   0.00000     0.00000
 
 21 21  0  0  0  0  0  0  0  0999 V2000
    4.0388    1.0525   -0.0008 C   0  0  0  0  0  0  0  0  0  0  0  0
    3.0820   -0.1414   -0.0002 C   0  0  0  0  0  0  0  0  0  0  0  0
    1.7111    0.3371   -0.0005 O   0  0  0  0  0  0  0  0  0  0  0  0
    0.7381   -0.5946   -0.0001 C   0  0  0  0  0  0  0  0  0  0  0  0
    1.0270   -1.7744    0.0006 O   0  0  0  0  0  0  0  0  0  0  0  0
   -0.6802   -0.1814   -0.0004 C   0  0  0  0  0  0  0  0  0  0  0  0
   -1.6912   -1.1445    0.0000 C   0  0  0  0  0  0  0  0  0  0  0  0
   -3.0135   -0.7518   -0.0003 C   0  0  0  0  0  0  0  0  0  0  0  0
   -3.3391    0.5931   -0.0011 C   0  0  0  0  0  0  0  0  0  0  0  0
   -2.3422    1.5527   -0.0016 C   0  0  0  0  0  0  0  0  0  0  0  0
   -1.0158    1.1739    0.0046 C   0  0  0  0  0  0  0  0  0  0  0  0
    3.8652    1.6569   -0.8911 H   0  0  0  0  0  0  0  0  0  0  0  0
    3.8650    1.6578    0.8889 H   0  0  0  0  0  0  0  0  0  0  0  0
    5.0679    0.6933   -0.0005 H   0  0  0  0  0  0  0  0  0  0  0  0
    3.2557   -0.7467   -0.8898 H   0  0  0  0  0  0  0  0  0  0  0  0
    3.2556   -0.7457    0.8901 H   0  0  0  0  0  0  0  0  0  0  0  0
   -1.4384   -2.1945    0.0003 H   0  0  0  0  0  0  0  0  0  0  0  0
   -3.7965   -1.4956   -0.0003 H   0  0  0  0  0  0  0  0  0  0  0  0
   -4.3760    0.8951   -0.0017 H   0  0  0  0  0  0  0  0  0  0  0  0
   -2.6033    2.6007   -0.0026 H   0  0  0  0  0  0  0  0  0  0  0  0
   -0.2387    1.9239    0.0043 H   0  0  0  0  0  0  0  0  0  0  0  0
  1  2  1  0  0  0  0
  2  3  1  0  0  0  0
  3  4  1  0  0  0  0
  4  5  2  0  0  0  0
  4  6  1  0  0  0  0
  6  7  2  0  0  0  0
  7  8  1  0  0  0  0
  8  9  2  0  0  0  0
  9 10  1  0  0  0  0
 10 11  2  0  0  0  0
  6 11  1  0  0  0  0
  1 12  1  0  0  0  0
  1 13  1  0  0  0  0
  1 14  1  0  0  0  0
  2 15  1  0  0  0  0
  2 16  1  0  0  0  0
  7 17  1  0  0  0  0
  8 18  1  0  0  0  0
  9 19  1  0  0  0  0
 10 20  1  0  0  0  0
 11 21  1  0  0  0  0
M  END
$$$$
