C11H12O4
APtclcactv06281816273D 0   0.00000     0.00000
 
 27 27  0  0  0  0  0  0  0  0999 V2000
    3.8879    2.3654   -0.0013 C   0  0  0  0  0  0  0  0  0  0  0  0
    3.5936    0.9671   -0.0007 O   0  0  0  0  0  0  0  0  0  0  0  0
    2.2824    0.6129   -0.0007 C   0  0  0  0  0  0  0  0  0  0  0  0
    1.9265   -0.7354   -0.0001 C   0  0  0  0  0  0  0  0  0  0  0  0
    0.5943   -1.0983    0.0003 C   0  0  0  0  0  0  0  0  0  0  0  0
   -0.3967   -0.1095    0.0001 C   0  0  0  0  0  0  0  0  0  0  0  0
   -0.0313    1.2417   -0.0005 C   0  0  0  0  0  0  0  0  0  0  0  0
    1.3001    1.5945    0.0044 C   0  0  0  0  0  0  0  0  0  0  0  0
   -1.8164   -0.4890    0.0000 C   0  0  0  0  0  0  0  0  0  0  0  0
   -2.7711    0.4668   -0.0002 C   0  0  0  0  0  0  0  0  0  0  0  0
   -4.1408    0.1007   -0.0002 C   0  0  0  0  0  0  0  0  0  0  0  0
   -4.4563   -1.0741   -0.0001 O   0  0  0  0  0  0  0  0  0  0  0  0
   -5.0943    1.0554   -0.0005 O   0  0  0  0  0  0  0  0  0  0  0  0
    2.8920   -1.6933   -0.0003 O   0  0  0  0  0  0  0  0  0  0  0  0
    2.4557   -3.0540    0.0003 C   0  0  0  0  0  0  0  0  0  0  0  0
    3.4600    2.8263   -0.8916 H   0  0  0  0  0  0  0  0  0  0  0  0
    3.4597    2.8273    0.8883 H   0  0  0  0  0  0  0  0  0  0  0  0
    4.9683    2.5094   -0.0012 H   0  0  0  0  0  0  0  0  0  0  0  0
    0.3175   -2.1422    0.0004 H   0  0  0  0  0  0  0  0  0  0  0  0
   -0.7930    2.0073   -0.0008 H   0  0  0  0  0  0  0  0  0  0  0  0
    1.5809    2.6374    0.0043 H   0  0  0  0  0  0  0  0  0  0  0  0
   -2.0965   -1.5321    0.0002 H   0  0  0  0  0  0  0  0  0  0  0  0
   -2.4909    1.5099   -0.0003 H   0  0  0  0  0  0  0  0  0  0  0  0
   -5.9973    0.7094   -0.0005 H   0  0  0  0  0  0  0  0  0  0  0  0
    1.8560   -3.2429    0.8907 H   0  0  0  0  0  0  0  0  0  0  0  0
    1.8550   -3.2435   -0.8892 H   0  0  0  0  0  0  0  0  0  0  0  0
    3.3234   -3.7138    0.0001 H   0  0  0  0  0  0  0  0  0  0  0  0
  1  2  1  0  0  0  0
  2  3  1  0  0  0  0
  3  4  2  0  0  0  0
  4  5  1  0  0  0  0
  5  6  2  0  0  0  0
  6  7  1  0  0  0  0
  7  8  2  0  0  0  0
  3  8  1  0  0  0  0
  6  9  1  0  0  0  0
  9 10  2  0  0  0  0
 10 11  1  0  0  0  0
 11 12  2  0  0  0  0
 11 13  1  0  0  0  0
  4 14  1  0  0  0  0
 14 15  1  0  0  0  0
  1 16  1  0  0  0  0
  1 17  1  0  0  0  0
  1 18  1  0  0  0  0
  5 19  1  0  0  0  0
  7 20  1  0  0  0  0
  8 21  1  0  0  0  0
  9 22  1  0  0  0  0
 10 23  1  0  0  0  0
 13 24  1  0  0  0  0
 15 25  1  0  0  0  0
 15 26  1  0  0  0  0
 15 27  1  0  0  0  0
M  END
$$$$
