C28H48O2
APtclcactv06291802563D 0   0.00000     0.00000
 
 78 78  0  0  0  0  0  0  0  0999 V2000
   -6.7122    4.0139    0.6073 C   0  0  0  0  0  0  0  0  0  0  0  0
   -6.4988    2.5428    0.3593 C   0  0  0  0  0  0  0  0  0  0  0  0
   -6.1793    1.7010    1.4140 C   0  0  0  0  0  0  0  0  0  0  0  0
   -5.9834    0.3468    1.1858 C   0  0  0  0  0  0  0  0  0  0  0  0
   -6.1069   -0.1631   -0.0917 C   0  0  0  0  0  0  0  0  0  0  0  0
   -6.4270    0.6788   -1.1467 C   0  0  0  0  0  0  0  0  0  0  0  0
   -6.6271    2.0319   -0.9179 C   0  0  0  0  0  0  0  0  0  0  0  0
   -6.9748    2.9465   -2.0639 C   0  0  0  0  0  0  0  0  0  0  0  0
   -6.5487    0.1767   -2.4046 O   0  0  0  0  0  0  0  0  0  0  0  0
   -5.8936   -1.6342   -0.3397 C   0  0  0  0  0  0  0  0  0  0  0  0
   -4.4689   -1.8695   -0.7711 C   0  0  0  0  0  0  0  0  0  0  0  0
   -3.7001   -2.6747   -0.0808 C   0  0  0  0  0  0  0  0  0  0  0  0
   -4.1955   -3.2624    1.2155 C   0  0  0  0  0  0  0  0  0  0  0  0
   -2.3201   -3.0134   -0.5829 C   0  0  0  0  0  0  0  0  0  0  0  0
   -1.2980   -2.0758    0.0629 C   0  0  0  0  0  0  0  0  0  0  0  0
    0.1029   -2.4196   -0.4469 C   0  0  0  0  0  0  0  0  0  0  0  0
    1.1250   -1.4820    0.1989 C   0  0  0  0  0  0  0  0  0  0  0  0
    1.1693   -1.7367    1.7069 C   0  0  0  0  0  0  0  0  0  0  0  0
    2.5074   -1.7421   -0.4030 C   0  0  0  0  0  0  0  0  0  0  0  0
    3.5048   -0.7225    0.1507 C   0  0  0  0  0  0  0  0  0  0  0  0
    4.8872   -0.9826   -0.4512 C   0  0  0  0  0  0  0  0  0  0  0  0
    5.8846    0.0370    0.1024 C   0  0  0  0  0  0  0  0  0  0  0  0
    6.0515   -0.1786    1.6079 C   0  0  0  0  0  0  0  0  0  0  0  0
    7.2362   -0.1431   -0.5916 C   0  0  0  0  0  0  0  0  0  0  0  0
    8.1968    0.9545   -0.1296 C   0  0  0  0  0  0  0  0  0  0  0  0
    9.5485    0.7745   -0.8236 C   0  0  0  0  0  0  0  0  0  0  0  0
   10.5091    1.8720   -0.3617 C   0  0  0  0  0  0  0  0  0  0  0  0
   10.7954    1.7038    1.1319 C   0  0  0  0  0  0  0  0  0  0  0  0
   11.8182    1.7676   -1.1468 C   0  0  0  0  0  0  0  0  0  0  0  0
   -6.0576    2.2031    2.6719 O   0  0  0  0  0  0  0  0  0  0  0  0
   -5.7641    4.5413    0.5022 H   0  0  0  0  0  0  0  0  0  0  0  0
   -7.4274    4.4044   -0.1166 H   0  0  0  0  0  0  0  0  0  0  0  0
   -7.0994    4.1599    1.6157 H   0  0  0  0  0  0  0  0  0  0  0  0
   -5.7338   -0.3086    2.0071 H   0  0  0  0  0  0  0  0  0  0  0  0
   -8.0580    2.9917   -2.1771 H   0  0  0  0  0  0  0  0  0  0  0  0
   -6.5888    3.9456   -1.8615 H   0  0  0  0  0  0  0  0  0  0  0  0
   -6.5293    2.5640   -2.9822 H   0  0  0  0  0  0  0  0  0  0  0  0
   -7.4430   -0.1168   -2.6261 H   0  0  0  0  0  0  0  0  0  0  0  0
   -6.0922   -2.1897    0.5768 H   0  0  0  0  0  0  0  0  0  0  0  0
   -6.5712   -1.9725   -1.1236 H   0  0  0  0  0  0  0  0  0  0  0  0
   -4.0818   -1.3742   -1.6493 H   0  0  0  0  0  0  0  0  0  0  0  0
   -4.7780   -4.1601    1.0083 H   0  0  0  0  0  0  0  0  0  0  0  0
   -3.3447   -3.5191    1.8467 H   0  0  0  0  0  0  0  0  0  0  0  0
   -4.8220   -2.5332    1.7290 H   0  0  0  0  0  0  0  0  0  0  0  0
   -2.0820   -4.0449   -0.3232 H   0  0  0  0  0  0  0  0  0  0  0  0
   -2.2884   -2.8949   -1.6660 H   0  0  0  0  0  0  0  0  0  0  0  0
   -1.5362   -1.0443   -0.1968 H   0  0  0  0  0  0  0  0  0  0  0  0
   -1.3298   -2.1943    1.1460 H   0  0  0  0  0  0  0  0  0  0  0  0
    0.3411   -3.4511   -0.1871 H   0  0  0  0  0  0  0  0  0  0  0  0
    0.1347   -2.3011   -1.5300 H   0  0  0  0  0  0  0  0  0  0  0  0
    0.8369   -0.4473    0.0135 H   0  0  0  0  0  0  0  0  0  0  0  0
    1.4574   -2.7715    1.8924 H   0  0  0  0  0  0  0  0  0  0  0  0
    1.8974   -1.0688    2.1671 H   0  0  0  0  0  0  0  0  0  0  0  0
    0.1844   -1.5514    2.1357 H   0  0  0  0  0  0  0  0  0  0  0  0
    2.8340   -2.7487   -0.1416 H   0  0  0  0  0  0  0  0  0  0  0  0
    2.4551   -1.6473   -1.4876 H   0  0  0  0  0  0  0  0  0  0  0  0
    3.1783    0.2840   -0.1107 H   0  0  0  0  0  0  0  0  0  0  0  0
    3.5571   -0.8174    1.2353 H   0  0  0  0  0  0  0  0  0  0  0  0
    5.2137   -1.9892   -0.1898 H   0  0  0  0  0  0  0  0  0  0  0  0
    4.8349   -0.8878   -1.5358 H   0  0  0  0  0  0  0  0  0  0  0  0
    5.5132    1.0452   -0.0813 H   0  0  0  0  0  0  0  0  0  0  0  0
    6.4229   -1.1868    1.7917 H   0  0  0  0  0  0  0  0  0  0  0  0
    6.7621    0.5478    2.0024 H   0  0  0  0  0  0  0  0  0  0  0  0
    5.0886   -0.0503    2.1023 H   0  0  0  0  0  0  0  0  0  0  0  0
    7.6490   -1.1188   -0.3353 H   0  0  0  0  0  0  0  0  0  0  0  0
    7.1018   -0.0775   -1.6713 H   0  0  0  0  0  0  0  0  0  0  0  0
    7.7840    1.9302   -0.3859 H   0  0  0  0  0  0  0  0  0  0  0  0
    8.3312    0.8890    0.9501 H   0  0  0  0  0  0  0  0  0  0  0  0
    9.9613   -0.2012   -0.5674 H   0  0  0  0  0  0  0  0  0  0  0  0
    9.4141    0.8400   -1.9033 H   0  0  0  0  0  0  0  0  0  0  0  0
   10.0570    2.8482   -0.5373 H   0  0  0  0  0  0  0  0  0  0  0  0
   11.4798    2.4857    1.4609 H   0  0  0  0  0  0  0  0  0  0  0  0
    9.8628    1.7782    1.6912 H   0  0  0  0  0  0  0  0  0  0  0  0
   11.2475    0.7277    1.3075 H   0  0  0  0  0  0  0  0  0  0  0  0
   11.6142    1.8874   -2.2108 H   0  0  0  0  0  0  0  0  0  0  0  0
   12.5026    2.5495   -0.8177 H   0  0  0  0  0  0  0  0  0  0  0  0
   12.2703    0.7915   -0.9712 H   0  0  0  0  0  0  0  0  0  0  0  0
   -6.8817    2.2004    3.1779 H   0  0  0  0  0  0  0  0  0  0  0  0
  1  2  1  0  0  0  0
  2  3  2  0  0  0  0
  3  4  1  0  0  0  0
  4  5  2  0  0  0  0
  5  6  1  0  0  0  0
  6  7  2  0  0  0  0
  2  7  1  0  0  0  0
  7  8  1  0  0  0  0
  6  9  1  0  0  0  0
  5 10  1  0  0  0  0
 10 11  1  0  0  0  0
 11 12  2  0  0  0  0
 12 13  1  0  0  0  0
 12 14  1  0  0  0  0
 14 15  1  0  0  0  0
 15 16  1  0  0  0  0
 16 17  1  0  0  0  0
 17 18  1  0  0  0  0
 17 19  1  0  0  0  0
 19 20  1  0  0  0  0
 20 21  1  0  0  0  0
 21 22  1  0  0  0  0
 22 23  1  0  0  0  0
 22 24  1  0  0  0  0
 24 25  1  0  0  0  0
 25 26  1  0  0  0  0
 26 27  1  0  0  0  0
 27 28  1  0  0  0  0
 27 29  1  0  0  0  0
  3 30  1  0  0  0  0
  1 31  1  0  0  0  0
  1 32  1  0  0  0  0
  1 33  1  0  0  0  0
  4 34  1  0  0  0  0
  8 35  1  0  0  0  0
  8 36  1  0  0  0  0
  8 37  1  0  0  0  0
  9 38  1  0  0  0  0
 10 39  1  0  0  0  0
 10 40  1  0  0  0  0
 11 41  1  0  0  0  0
 13 42  1  0  0  0  0
 13 43  1  0  0  0  0
 13 44  1  0  0  0  0
 14 45  1  0  0  0  0
 14 46  1  0  0  0  0
 15 47  1  0  0  0  0
 15 48  1  0  0  0  0
 16 49  1  0  0  0  0
 16 50  1  0  0  0  0
 17 51  1  0  0  0  0
 18 52  1  0  0  0  0
 18 53  1  0  0  0  0
 18 54  1  0  0  0  0
 19 55  1  0  0  0  0
 19 56  1  0  0  0  0
 20 57  1  0  0  0  0
 20 58  1  0  0  0  0
 21 59  1  0  0  0  0
 21 60  1  0  0  0  0
 22 61  1  0  0  0  0
 23 62  1  0  0  0  0
 23 63  1  0  0  0  0
 23 64  1  0  0  0  0
 24 65  1  0  0  0  0
 24 66  1  0  0  0  0
 25 67  1  0  0  0  0
 25 68  1  0  0  0  0
 26 69  1  0  0  0  0
 26 70  1  0  0  0  0
 27 71  1  0  0  0  0
 28 72  1  0  0  0  0
 28 73  1  0  0  0  0
 28 74  1  0  0  0  0
 29 75  1  0  0  0  0
 29 76  1  0  0  0  0
 29 77  1  0  0  0  0
 30 78  1  0  0  0  0
M  END
$$$$
