C10H12O2
APtclcactv06291802563D 0   0.00000     0.00000
 
 24 23  0  0  0  0  0  0  0  0999 V2000
   -9.6789   -7.4674   -4.6073 H   0  3  0  0  0  0  0  0  0  0  0  0
    3.0733   -0.7748   -1.3278 C   0  0  0  0  0  0  0  0  0  0  0  0
    2.4108   -0.8691    0.0481 C   0  0  0  0  0  0  0  0  0  0  0  0
    3.2891   -0.1678    1.0862 C   0  0  0  0  0  0  0  0  0  0  0  0
    1.0595   -0.2036    0.0016 C   0  0  0  0  0  0  0  0  0  0  0  0
   -0.0135   -1.0131    0.3011 C   0  0  0  0  0  0  0  0  0  0  0  0
   -1.3780   -0.6756    0.3377 C   0  0  0  0  0  0  0  0  0  0  0  0
   -2.1454   -1.5814    0.6337 O   0  0  0  0  0  0  0  0  0  0  0  0
   -1.9764    0.5830    0.0751 C   0  0  0  0  0  0  0  0  0  0  0  0
   -1.3572    1.7672   -0.2776 C   0  0  0  0  0  0  0  0  0  0  0  0
    0.0001    2.0155   -0.4616 C   0  0  0  0  0  0  0  0  0  0  0  0
    1.0651    1.1483   -0.3332 C   0  0  0  0  0  0  0  0  0  0  0  0
   -3.3261    0.6305    0.1832 O   0  5  0  0  0  0  0  0  0  0  0  0
    4.0507   -1.2561   -1.2941 H   0  0  0  0  0  0  0  0  0  0  0  0
    2.4476   -1.2744   -2.0673 H   0  0  0  0  0  0  0  0  0  0  0  0
    3.1937    0.2732   -1.6020 H   0  0  0  0  0  0  0  0  0  0  0  0
    2.2905   -1.9171    0.3224 H   0  0  0  0  0  0  0  0  0  0  0  0
    2.8171   -0.2349    2.0665 H   0  0  0  0  0  0  0  0  0  0  0  0
    4.2665   -0.6491    1.1199 H   0  0  0  0  0  0  0  0  0  0  0  0
    3.4095    0.8802    0.8120 H   0  0  0  0  0  0  0  0  0  0  0  0
    0.2236   -2.0398    0.5380 H   0  0  0  0  0  0  0  0  0  0  0  0
   -2.0131    2.6114   -0.4310 H   0  0  0  0  0  0  0  0  0  0  0  0
    0.2548    3.0277   -0.7393 H   0  0  0  0  0  0  0  0  0  0  0  0
    2.0379    1.5747   -0.5285 H   0  0  0  0  0  0  0  0  0  0  0  0
  2  3  1  0  0  0  0
  3  4  1  0  0  0  0
  3  5  1  0  0  0  0
  5  6  2  0  0  0  0
  6  7  1  0  0  0  0
  7  8  2  0  0  0  0
  7  9  1  0  0  0  0
  9 10  2  0  0  0  0
 10 11  1  0  0  0  0
 11 12  2  0  0  0  0
  5 12  1  0  0  0  0
  9 13  1  0  0  0  0
  2 14  1  0  0  0  0
  2 15  1  0  0  0  0
  2 16  1  0  0  0  0
  3 17  1  0  0  0  0
  4 18  1  0  0  0  0
  4 19  1  0  0  0  0
  4 20  1  0  0  0  0
  6 21  1  0  0  0  0
 10 22  1  0  0  0  0
 11 23  1  0  0  0  0
 12 24  1  0  0  0  0
M  CHG  2   1   1  13  -1
M  END
$$$$
