C7H6O3
APtclcactv06211804393D 0   0.00000     0.00000
 
 16 16  0  0  0  0  0  0  0  0999 V2000
    1.1164   -1.4182   -0.0038 C   0  0  0  0  0  0  0  0  0  0  0  0
   -0.2469   -1.3669    0.0027 C   0  0  0  0  0  0  0  0  0  0  0  0
   -0.9029   -0.1282   -0.0069 C   0  0  0  0  0  0  0  0  0  0  0  0
   -0.1488    1.0589   -0.0229 C   0  0  0  0  0  0  0  0  0  0  0  0
    1.2337    0.9906   -0.0288 C   0  0  0  0  0  0  0  0  0  0  0  0
    1.8659   -0.2444   -0.0196 C   0  0  0  0  0  0  0  0  0  0  0  0
    3.2211   -0.3089   -0.0250 O   0  0  0  0  0  0  0  0  0  0  0  0
   -0.7724    2.2630   -0.0328 O   0  0  0  0  0  0  0  0  0  0  0  0
   -2.3667   -0.0704   -0.0010 C   0  0  0  0  0  0  0  0  0  0  0  0
   -3.0143   -1.0965    0.0124 O   0  0  0  0  0  0  0  0  0  0  0  0
    1.6176   -2.3748    0.0079 H   0  0  0  0  0  0  0  0  0  0  0  0
   -0.8211   -2.2815    0.0149 H   0  0  0  0  0  0  0  0  0  0  0  0
    1.8197    1.8977   -0.0414 H   0  0  0  0  0  0  0  0  0  0  0  0
    3.6179   -0.3190    0.8568 H   0  0  0  0  0  0  0  0  0  0  0  0
   -0.9492    2.6216    0.8477 H   0  0  0  0  0  0  0  0  0  0  0  0
   -2.8694    0.8854   -0.0084 H   0  0  0  0  0  0  0  0  0  0  0  0
  1  2  2  0  0  0  0
  2  3  1  0  0  0  0
  3  4  2  0  0  0  0
  4  5  1  0  0  0  0
  5  6  2  0  0  0  0
  1  6  1  0  0  0  0
  6  7  1  0  0  0  0
  4  8  1  0  0  0  0
  3  9  1  0  0  0  0
  9 10  2  0  0  0  0
  1 11  1  0  0  0  0
  2 12  1  0  0  0  0
  5 13  1  0  0  0  0
  7 14  1  0  0  0  0
  8 15  1  0  0  0  0
  9 16  1  0  0  0  0
M  END
$$$$
