C28H32O16
APtclcactv06291802563D 0   0.00000     0.00000
 
 76 80  0  0  0  0  0  0  0  0999 V2000
    6.9313    2.3322    0.5793 C   0  0  0  0  0  0  0  0  0  0  0  0
    7.1394    1.3571   -0.5812 C   0  0  0  0  0  0  0  0  0  0  0  0
    8.3915    0.5152   -0.3223 C   0  0  0  0  0  0  0  0  0  0  0  0
    8.1863   -0.3132    0.9498 C   0  0  0  0  0  0  0  0  0  0  0  0
    6.9299   -1.1743    0.7879 C   0  0  0  0  0  0  0  0  0  0  0  0
    5.7342   -0.2671    0.4862 C   0  0  0  0  0  0  0  0  0  0  0  0
    6.0032    0.4974   -0.6908 O   0  0  0  0  0  0  0  0  0  0  0  0
    4.5690   -1.0678    0.2785 O   0  0  0  0  0  0  0  0  0  0  0  0
    3.3937   -0.4115    0.1019 C   0  0  0  0  0  0  0  0  0  0  0  0
    3.3706    0.9786    0.1294 C   0  0  0  0  0  0  0  0  0  0  0  0
    2.1794    1.6572   -0.0498 C   0  0  0  0  0  0  0  0  0  0  0  0
    0.9980    0.9340   -0.2588 C   0  0  0  0  0  0  0  0  0  0  0  0
    1.0243   -0.4716   -0.2862 C   0  0  0  0  0  0  0  0  0  0  0  0
    2.2295   -1.1337   -0.1098 C   0  0  0  0  0  0  0  0  0  0  0  0
   -0.1183   -1.1608   -0.4873 O   0  0  0  0  0  0  0  0  0  0  0  0
   -1.3030   -0.5516   -0.6659 C   0  0  0  0  0  0  0  0  0  0  0  0
   -1.4362    0.8044   -0.6575 C   0  0  0  0  0  0  0  0  0  0  0  0
   -0.2909    1.6169   -0.4533 C   0  0  0  0  0  0  0  0  0  0  0  0
   -0.3718    2.8349   -0.4391 O   0  0  0  0  0  0  0  0  0  0  0  0
   -2.6577    1.3749   -0.8434 O   0  0  0  0  0  0  0  0  0  0  0  0
   -3.1715    2.1709    0.2263 C   0  0  0  0  0  0  0  0  0  0  0  0
   -4.3588    2.9964   -0.2763 C   0  0  0  0  0  0  0  0  0  0  0  0
   -5.4745    2.0491   -0.7283 C   0  0  0  0  0  0  0  0  0  0  0  0
   -5.8557    1.1333    0.4390 C   0  0  0  0  0  0  0  0  0  0  0  0
   -4.6106    0.3798    0.9139 C   0  0  0  0  0  0  0  0  0  0  0  0
   -3.6015    1.3192    1.2901 O   0  0  0  0  0  0  0  0  0  0  0  0
   -4.9705   -0.4922    2.1185 C   0  0  0  0  0  0  0  0  0  0  0  0
   -3.8392   -1.2827    2.4893 O   0  0  0  0  0  0  0  0  0  0  0  0
   -6.3765    1.9196    1.5125 O   0  0  0  0  0  0  0  0  0  0  0  0
   -6.6147    2.8108   -1.1304 O   0  0  0  0  0  0  0  0  0  0  0  0
   -4.8400    3.8321    0.7783 O   0  0  0  0  0  0  0  0  0  0  0  0
   -2.5030   -1.3815   -0.8794 C   0  0  0  0  0  0  0  0  0  0  0  0
   -2.7537   -2.4776   -0.0490 C   0  0  0  0  0  0  0  0  0  0  0  0
   -3.8800   -3.2515   -0.2532 C   0  0  0  0  0  0  0  0  0  0  0  0
   -4.7627   -2.9390   -1.2854 C   0  0  0  0  0  0  0  0  0  0  0  0
   -4.5139   -1.8510   -2.1105 C   0  0  0  0  0  0  0  0  0  0  0  0
   -3.3957   -1.0706   -1.9090 C   0  0  0  0  0  0  0  0  0  0  0  0
   -5.8694   -3.7016   -1.4849 O   0  0  0  0  0  0  0  0  0  0  0  0
   -4.1269   -4.3187    0.5528 O   0  0  0  0  0  0  0  0  0  0  0  0
   -3.1798   -4.5810    1.5903 C   0  0  0  0  0  0  0  0  0  0  0  0
    2.1548    3.0139   -0.0229 O   0  0  0  0  0  0  0  0  0  0  0  0
    7.1164   -2.0931   -0.2905 O   0  0  0  0  0  0  0  0  0  0  0  0
    9.3205   -1.1569    1.1589 O   0  0  0  0  0  0  0  0  0  0  0  0
    8.6167   -0.3589   -1.4302 O   0  0  0  0  0  0  0  0  0  0  0  0
    7.7985    2.9872    0.6635 H   0  0  0  0  0  0  0  0  0  0  0  0
    6.0398    2.9316    0.3949 H   0  0  0  0  0  0  0  0  0  0  0  0
    6.8074    1.7726    1.5064 H   0  0  0  0  0  0  0  0  0  0  0  0
    7.2629    1.9166   -1.5084 H   0  0  0  0  0  0  0  0  0  0  0  0
    9.2520    1.1719   -0.1945 H   0  0  0  0  0  0  0  0  0  0  0  0
    8.0639    0.3536    1.8033 H   0  0  0  0  0  0  0  0  0  0  0  0
    6.7451   -1.7259    1.7098 H   0  0  0  0  0  0  0  0  0  0  0  0
    5.5676    0.4063    1.3269 H   0  0  0  0  0  0  0  0  0  0  0  0
    4.2853    1.5295    0.2914 H   0  0  0  0  0  0  0  0  0  0  0  0
    2.2601   -2.2131   -0.1291 H   0  0  0  0  0  0  0  0  0  0  0  0
   -2.3911    2.8399    0.5889 H   0  0  0  0  0  0  0  0  0  0  0  0
   -4.0430    3.6144   -1.1168 H   0  0  0  0  0  0  0  0  0  0  0  0
   -5.1237    1.4457   -1.5655 H   0  0  0  0  0  0  0  0  0  0  0  0
   -6.6104    0.4189    0.1100 H   0  0  0  0  0  0  0  0  0  0  0  0
   -4.2375   -0.2508    0.1070 H   0  0  0  0  0  0  0  0  0  0  0  0
   -5.2586    0.1445    2.9549 H   0  0  0  0  0  0  0  0  0  0  0  0
   -5.8016   -1.1473    1.8574 H   0  0  0  0  0  0  0  0  0  0  0  0
   -3.9955   -1.8615    3.2480 H   0  0  0  0  0  0  0  0  0  0  0  0
   -7.1652    2.4288    1.2805 H   0  0  0  0  0  0  0  0  0  0  0  0
   -6.4433    3.4186   -1.8627 H   0  0  0  0  0  0  0  0  0  0  0  0
   -4.2113    4.5105    1.0604 H   0  0  0  0  0  0  0  0  0  0  0  0
   -2.0685   -2.7191    0.7501 H   0  0  0  0  0  0  0  0  0  0  0  0
   -5.2002   -1.6128   -2.9096 H   0  0  0  0  0  0  0  0  0  0  0  0
   -3.2047   -0.2243   -2.5522 H   0  0  0  0  0  0  0  0  0  0  0  0
   -6.6470   -3.4023   -0.9942 H   0  0  0  0  0  0  0  0  0  0  0  0
   -2.2004   -4.7673    1.1496 H   0  0  0  0  0  0  0  0  0  0  0  0
   -3.1211   -3.7192    2.2551 H   0  0  0  0  0  0  0  0  0  0  0  0
   -3.4955   -5.4566    2.1575 H   0  0  0  0  0  0  0  0  0  0  0  0
    2.2901    3.4269   -0.8867 H   0  0  0  0  0  0  0  0  0  0  0  0
    6.3580   -2.6716   -0.4500 H   0  0  0  0  0  0  0  0  0  0  0  0
    9.2582   -1.7109    1.9491 H   0  0  0  0  0  0  0  0  0  0  0  0
    8.7501    0.0988   -2.2715 H   0  0  0  0  0  0  0  0  0  0  0  0
  1  2  1  0  0  0  0
  2  3  1  0  0  0  0
  3  4  1  0  0  0  0
  4  5  1  0  0  0  0
  5  6  1  0  0  0  0
  6  7  1  0  0  0  0
  2  7  1  0  0  0  0
  6  8  1  0  0  0  0
  8  9  1  0  0  0  0
  9 10  2  0  0  0  0
 10 11  1  0  0  0  0
 11 12  2  0  0  0  0
 12 13  1  0  0  0  0
 13 14  2  0  0  0  0
  9 14  1  0  0  0  0
 13 15  1  0  0  0  0
 15 16  1  0  0  0  0
 16 17  2  0  0  0  0
 17 18  1  0  0  0  0
 12 18  1  0  0  0  0
 18 19  2  0  0  0  0
 17 20  1  0  0  0  0
 20 21  1  0  0  0  0
 21 22  1  0  0  0  0
 22 23  1  0  0  0  0
 23 24  1  0  0  0  0
 24 25  1  0  0  0  0
 25 26  1  0  0  0  0
 21 26  1  0  0  0  0
 25 27  1  0  0  0  0
 27 28  1  0  0  0  0
 24 29  1  0  0  0  0
 23 30  1  0  0  0  0
 22 31  1  0  0  0  0
 16 32  1  0  0  0  0
 32 33  2  0  0  0  0
 33 34  1  0  0  0  0
 34 35  2  0  0  0  0
 35 36  1  0  0  0  0
 36 37  2  0  0  0  0
 32 37  1  0  0  0  0
 35 38  1  0  0  0  0
 34 39  1  0  0  0  0
 39 40  1  0  0  0  0
 11 41  1  0  0  0  0
  5 42  1  0  0  0  0
  4 43  1  0  0  0  0
  3 44  1  0  0  0  0
  1 45  1  0  0  0  0
  1 46  1  0  0  0  0
  1 47  1  0  0  0  0
  2 48  1  0  0  0  0
  3 49  1  0  0  0  0
  4 50  1  0  0  0  0
  5 51  1  0  0  0  0
  6 52  1  0  0  0  0
 10 53  1  0  0  0  0
 14 54  1  0  0  0  0
 21 55  1  0  0  0  0
 22 56  1  0  0  0  0
 23 57  1  0  0  0  0
 24 58  1  0  0  0  0
 25 59  1  0  0  0  0
 27 60  1  0  0  0  0
 27 61  1  0  0  0  0
 28 62  1  0  0  0  0
 29 63  1  0  0  0  0
 30 64  1  0  0  0  0
 31 65  1  0  0  0  0
 33 66  1  0  0  0  0
 36 67  1  0  0  0  0
 37 68  1  0  0  0  0
 38 69  1  0  0  0  0
 40 70  1  0  0  0  0
 40 71  1  0  0  0  0
 40 72  1  0  0  0  0
 41 73  1  0  0  0  0
 42 74  1  0  0  0  0
 43 75  1  0  0  0  0
 44 76  1  0  0  0  0
M  END
$$$$
