C24H25O12
APtclcactv06291802563D 0   0.00000     0.00000
 
 61 64  0  0  0  0  0  0  0  0999 V2000
    4.9694    0.5484   -2.4011 C   0  0  0  0  0  0  0  0  0  0  0  0
    4.5648   -0.8367   -1.9666 C   0  0  0  0  0  0  0  0  0  0  0  0
    5.2641   -1.7837   -2.2387 O   0  0  0  0  0  0  0  0  0  0  0  0
    3.4275   -1.0184   -1.2772 O   0  0  0  0  0  0  0  0  0  0  0  0
    3.1007   -2.3796   -0.8916 C   0  0  0  0  0  0  0  0  0  0  0  0
    1.7796   -2.3878   -0.1199 C   0  0  0  0  0  0  0  0  0  0  0  0
    1.3716   -3.8329    0.1785 C   0  0  0  0  0  0  0  0  0  0  0  0
    0.0804   -3.8309    1.0027 C   0  0  0  0  0  0  0  0  0  0  0  0
    0.3040   -3.0145    2.2794 C   0  0  0  0  0  0  0  0  0  0  0  0
    0.7532   -1.6011    1.8999 C   0  0  0  0  0  0  0  0  0  0  0  0
    1.9410   -1.6764    1.1090 O   0  0  0  0  0  0  0  0  0  0  0  0
   -0.2791   -0.9583    1.1494 O   0  0  0  0  0  0  0  0  0  0  0  0
   -0.0828    0.3462    0.8217 C   0  0  0  0  0  0  0  0  0  0  0  0
   -1.0436    1.0619    0.0845 C   0  0  0  0  0  0  0  0  0  0  0  0
   -0.9001    2.2226   -0.2234 O   0  3  0  0  0  0  0  0  0  0  0  0
    0.0683    2.9055    0.0567 C   0  0  0  0  0  0  0  0  0  0  0  0
    0.1389    4.2472   -0.3482 C   0  0  0  0  0  0  0  0  0  0  0  0
    1.2422    5.0054   -0.0222 C   0  0  0  0  0  0  0  0  0  0  0  0
    2.2992    4.4598    0.7090 C   0  0  0  0  0  0  0  0  0  0  0  0
    2.2610    3.1559    1.1179 C   0  0  0  0  0  0  0  0  0  0  0  0
    1.1460    2.3595    0.7989 C   0  0  0  0  0  0  0  0  0  0  0  0
    1.0612    1.0116    1.2059 C   0  0  0  0  0  0  0  0  0  0  0  0
    3.2928    2.6328    1.8285 O   0  0  0  0  0  0  0  0  0  0  0  0
    1.3027    6.3030   -0.4184 O   0  0  0  0  0  0  0  0  0  0  0  0
   -2.2805    0.3657   -0.3319 C   0  0  0  0  0  0  0  0  0  0  0  0
   -3.5071    1.0303   -0.2837 C   0  0  0  0  0  0  0  0  0  0  0  0
   -4.6603    0.3757   -0.6738 C   0  0  0  0  0  0  0  0  0  0  0  0
   -4.5967   -0.9448   -1.1139 C   0  0  0  0  0  0  0  0  0  0  0  0
   -3.3771   -1.6051   -1.1616 C   0  0  0  0  0  0  0  0  0  0  0  0
   -2.2227   -0.9553   -0.7792 C   0  0  0  0  0  0  0  0  0  0  0  0
   -5.7311   -1.5875   -1.4966 O   0  0  0  0  0  0  0  0  0  0  0  0
   -5.8570    1.0203   -0.6276 O   0  0  0  0  0  0  0  0  0  0  0  0
   -5.8480    2.3725   -0.1657 C   0  0  0  0  0  0  0  0  0  0  0  0
   -0.9153   -2.9450    3.0214 O   0  0  0  0  0  0  0  0  0  0  0  0
   -0.9740   -3.2431    0.2379 O   0  0  0  0  0  0  0  0  0  0  0  0
    1.1532   -4.5306   -1.0494 O   0  0  0  0  0  0  0  0  0  0  0  0
    5.9131    0.4976   -2.9442 H   0  0  0  0  0  0  0  0  0  0  0  0
    4.1990    0.9653   -3.0496 H   0  0  0  0  0  0  0  0  0  0  0  0
    5.0889    1.1840   -1.5237 H   0  0  0  0  0  0  0  0  0  0  0  0
    3.0037   -2.9969   -1.7846 H   0  0  0  0  0  0  0  0  0  0  0  0
    3.8936   -2.7782   -0.2587 H   0  0  0  0  0  0  0  0  0  0  0  0
    1.0057   -1.9079   -0.7189 H   0  0  0  0  0  0  0  0  0  0  0  0
    2.1632   -4.3258    0.7428 H   0  0  0  0  0  0  0  0  0  0  0  0
   -0.1855   -4.8545    1.2663 H   0  0  0  0  0  0  0  0  0  0  0  0
    1.0740   -3.4909    2.8862 H   0  0  0  0  0  0  0  0  0  0  0  0
    0.9550   -1.0285    2.8052 H   0  0  0  0  0  0  0  0  0  0  0  0
   -0.6699    4.6846   -0.9147 H   0  0  0  0  0  0  0  0  0  0  0  0
    3.1541    5.0728    0.9533 H   0  0  0  0  0  0  0  0  0  0  0  0
    1.8424    0.5320    1.7771 H   0  0  0  0  0  0  0  0  0  0  0  0
    3.1992    2.7285    2.7862 H   0  0  0  0  0  0  0  0  0  0  0  0
    0.9278    6.9266    0.2185 H   0  0  0  0  0  0  0  0  0  0  0  0
   -3.5550    2.0537    0.0579 H   0  0  0  0  0  0  0  0  0  0  0  0
   -3.3315   -2.6286   -1.5032 H   0  0  0  0  0  0  0  0  0  0  0  0
   -1.2747   -1.4714   -0.8173 H   0  0  0  0  0  0  0  0  0  0  0  0
   -5.9396   -1.4916   -2.4360 H   0  0  0  0  0  0  0  0  0  0  0  0
   -6.8639    2.7675   -0.1783 H   0  0  0  0  0  0  0  0  0  0  0  0
   -5.4576    2.4065    0.8514 H   0  0  0  0  0  0  0  0  0  0  0  0
   -5.2158    2.9751   -0.8178 H   0  0  0  0  0  0  0  0  0  0  0  0
   -0.8469   -2.4416    3.8442 H   0  0  0  0  0  0  0  0  0  0  0  0
   -1.8229   -3.2091    0.6997 H   0  0  0  0  0  0  0  0  0  0  0  0
    0.8912   -5.4545   -0.9355 H   0  0  0  0  0  0  0  0  0  0  0  0
  1  2  1  0  0  0  0
  2  3  2  0  0  0  0
  2  4  1  0  0  0  0
  4  5  1  0  0  0  0
  5  6  1  0  0  0  0
  6  7  1  0  0  0  0
  7  8  1  0  0  0  0
  8  9  1  0  0  0  0
  9 10  1  0  0  0  0
 10 11  1  0  0  0  0
  6 11  1  0  0  0  0
 10 12  1  0  0  0  0
 12 13  1  0  0  0  0
 13 14  2  0  0  0  0
 14 15  1  0  0  0  0
 15 16  2  0  0  0  0
 16 17  1  0  0  0  0
 17 18  2  0  0  0  0
 18 19  1  0  0  0  0
 19 20  2  0  0  0  0
 20 21  1  0  0  0  0
 16 21  1  0  0  0  0
 21 22  2  0  0  0  0
 13 22  1  0  0  0  0
 20 23  1  0  0  0  0
 18 24  1  0  0  0  0
 14 25  1  0  0  0  0
 25 26  2  0  0  0  0
 26 27  1  0  0  0  0
 27 28  2  0  0  0  0
 28 29  1  0  0  0  0
 29 30  2  0  0  0  0
 25 30  1  0  0  0  0
 28 31  1  0  0  0  0
 27 32  1  0  0  0  0
 32 33  1  0  0  0  0
  9 34  1  0  0  0  0
  8 35  1  0  0  0  0
  7 36  1  0  0  0  0
  1 37  1  0  0  0  0
  1 38  1  0  0  0  0
  1 39  1  0  0  0  0
  5 40  1  0  0  0  0
  5 41  1  0  0  0  0
  6 42  1  0  0  0  0
  7 43  1  0  0  0  0
  8 44  1  0  0  0  0
  9 45  1  0  0  0  0
 10 46  1  0  0  0  0
 17 47  1  0  0  0  0
 19 48  1  0  0  0  0
 22 49  1  0  0  0  0
 23 50  1  0  0  0  0
 24 51  1  0  0  0  0
 26 52  1  0  0  0  0
 29 53  1  0  0  0  0
 30 54  1  0  0  0  0
 31 55  1  0  0  0  0
 33 56  1  0  0  0  0
 33 57  1  0  0  0  0
 33 58  1  0  0  0  0
 34 59  1  0  0  0  0
 35 60  1  0  0  0  0
 36 61  1  0  0  0  0
M  CHG  1  15   1
M  END
$$$$
