C8H10
APtclcactv06211804393D 0   0.00000     0.00000
 
 18 18  0  0  0  0  0  0  0  0999 V2000
    1.8161    1.4448    0.0013 C   0  0  0  0  0  0  0  0  0  0  0  0
    0.5109    0.6913    0.0012 C   0  0  0  0  0  0  0  0  0  0  0  0
   -0.6860    1.3824   -0.0010 C   0  0  0  0  0  0  0  0  0  0  0  0
   -1.8833    0.6911   -0.0010 C   0  0  0  0  0  0  0  0  0  0  0  0
   -1.8833   -0.6911    0.0007 C   0  0  0  0  0  0  0  0  0  0  0  0
   -0.6860   -1.3824    0.0020 C   0  0  0  0  0  0  0  0  0  0  0  0
    0.5109   -0.6913   -0.0024 C   0  0  0  0  0  0  0  0  0  0  0  0
    1.8160   -1.4448   -0.0010 C   0  0  0  0  0  0  0  0  0  0  0  0
    2.1297    1.6280    1.0290 H   0  0  0  0  0  0  0  0  0  0  0  0
    2.5762    0.8549   -0.5109 H   0  0  0  0  0  0  0  0  0  0  0  0
    1.6862    2.3964   -0.5141 H   0  0  0  0  0  0  0  0  0  0  0  0
   -0.6860    2.4624   -0.0023 H   0  0  0  0  0  0  0  0  0  0  0  0
   -2.8186    1.2311   -0.0020 H   0  0  0  0  0  0  0  0  0  0  0  0
   -2.8187   -1.2311    0.0014 H   0  0  0  0  0  0  0  0  0  0  0  0
   -0.6860   -2.4624    0.0036 H   0  0  0  0  0  0  0  0  0  0  0  0
    2.1294   -1.6306   -1.0284 H   0  0  0  0  0  0  0  0  0  0  0  0
    2.5764   -0.8536    0.5094 H   0  0  0  0  0  0  0  0  0  0  0  0
    1.6864   -2.3951    0.5168 H   0  0  0  0  0  0  0  0  0  0  0  0
  1  2  1  0  0  0  0
  2  3  2  0  0  0  0
  3  4  1  0  0  0  0
  4  5  2  0  0  0  0
  5  6  1  0  0  0  0
  6  7  2  0  0  0  0
  2  7  1  0  0  0  0
  7  8  1  0  0  0  0
  1  9  1  0  0  0  0
  1 10  1  0  0  0  0
  1 11  1  0  0  0  0
  3 12  1  0  0  0  0
  4 13  1  0  0  0  0
  5 14  1  0  0  0  0
  6 15  1  0  0  0  0
  8 16  1  0  0  0  0
  8 17  1  0  0  0  0
  8 18  1  0  0  0  0
M  END
$$$$
