C12H18O3
APtclcactv06281816443D 0   0.00000     0.00000
 
 33 33  0  0  0  0  0  0  0  0999 V2000
   -5.4851    0.0325   -0.0933 C   0  0  0  0  0  0  0  0  0  0  0  0
   -4.6405   -1.2321    0.0752 C   0  0  0  0  0  0  0  0  0  0  0  0
   -3.2863   -1.0188   -0.5506 C   0  0  0  0  0  0  0  0  0  0  0  0
   -2.2004   -1.2056    0.1581 C   0  0  0  0  0  0  0  0  0  0  0  0
   -0.8462   -0.9923   -0.4678 C   0  0  0  0  0  0  0  0  0  0  0  0
   -0.0490    0.0089    0.3705 C   0  0  0  0  0  0  0  0  0  0  0  0
    1.3832    0.1416   -0.1876 C   0  0  0  0  0  0  0  0  0  0  0  0
    1.7071    1.6476   -0.0168 C   0  0  0  0  0  0  0  0  0  0  0  0
    0.3452    2.3163   -0.3286 C   0  0  0  0  0  0  0  0  0  0  0  0
   -0.6841    1.3808    0.2806 C   0  0  0  0  0  0  0  0  0  0  0  0
   -1.8021    1.6761    0.6285 O   0  0  0  0  0  0  0  0  0  0  0  0
    2.3580   -0.7134    0.6245 C   0  0  0  0  0  0  0  0  0  0  0  0
    3.7223   -0.6629   -0.0136 C   0  0  0  0  0  0  0  0  0  0  0  0
    3.8970   -0.0101   -1.0152 O   0  0  0  0  0  0  0  0  0  0  0  0
    4.7434   -1.3432    0.5307 O   0  0  0  0  0  0  0  0  0  0  0  0
   -5.6055    0.2503   -1.1545 H   0  0  0  0  0  0  0  0  0  0  0  0
   -6.4645   -0.1218    0.3594 H   0  0  0  0  0  0  0  0  0  0  0  0
   -4.9869    0.8699    0.3952 H   0  0  0  0  0  0  0  0  0  0  0  0
   -4.5201   -1.4499    1.1364 H   0  0  0  0  0  0  0  0  0  0  0  0
   -5.1387   -2.0695   -0.4133 H   0  0  0  0  0  0  0  0  0  0  0  0
   -3.2109   -0.7120   -1.5834 H   0  0  0  0  0  0  0  0  0  0  0  0
   -2.2758   -1.5125    1.1908 H   0  0  0  0  0  0  0  0  0  0  0  0
   -0.3107   -1.9409   -0.5072 H   0  0  0  0  0  0  0  0  0  0  0  0
   -0.9702   -0.6028   -1.4782 H   0  0  0  0  0  0  0  0  0  0  0  0
   -0.0150   -0.3191    1.4095 H   0  0  0  0  0  0  0  0  0  0  0  0
    1.4114   -0.1392   -1.2405 H   0  0  0  0  0  0  0  0  0  0  0  0
    2.0201    1.8633    1.0047 H   0  0  0  0  0  0  0  0  0  0  0  0
    2.4670    1.9641   -0.7313 H   0  0  0  0  0  0  0  0  0  0  0  0
    0.2886    3.3000    0.1375 H   0  0  0  0  0  0  0  0  0  0  0  0
    0.1976    2.3953   -1.4057 H   0  0  0  0  0  0  0  0  0  0  0  0
    2.4184   -0.3279    1.6423 H   0  0  0  0  0  0  0  0  0  0  0  0
    2.0053   -1.7445    0.6469 H   0  0  0  0  0  0  0  0  0  0  0  0
    5.5996   -1.2803    0.0857 H   0  0  0  0  0  0  0  0  0  0  0  0
  1  2  1  0  0  0  0
  2  3  1  0  0  0  0
  3  4  2  0  0  0  0
  4  5  1  0  0  0  0
  5  6  1  0  0  0  0
  6  7  1  0  0  0  0
  7  8  1  0  0  0  0
  8  9  1  0  0  0  0
  9 10  1  0  0  0  0
  6 10  1  0  0  0  0
 10 11  2  0  0  0  0
  7 12  1  0  0  0  0
 12 13  1  0  0  0  0
 13 14  2  0  0  0  0
 13 15  1  0  0  0  0
  1 16  1  0  0  0  0
  1 17  1  0  0  0  0
  1 18  1  0  0  0  0
  2 19  1  0  0  0  0
  2 20  1  0  0  0  0
  3 21  1  0  0  0  0
  4 22  1  0  0  0  0
  5 23  1  0  0  0  0
  5 24  1  0  0  0  0
  6 25  1  0  0  0  0
  7 26  1  0  0  0  0
  8 27  1  0  0  0  0
  8 28  1  0  0  0  0
  9 29  1  0  0  0  0
  9 30  1  0  0  0  0
 12 31  1  0  0  0  0
 12 32  1  0  0  0  0
 15 33  1  0  0  0  0
M  END
$$$$
