C40H38O9
APtclcactv06291802563D 0   0.00000     0.00000
 
 87 91  0  0  0  0  0  0  0  0999 V2000
   -2.4988    4.2179   -2.7653 C   0  0  0  0  0  0  0  0  0  0  0  0
   -2.6835    3.3455   -1.5505 C   0  0  0  0  0  0  0  0  0  0  0  0
   -1.8673    3.5053   -0.5587 C   0  0  0  0  0  0  0  0  0  0  0  0
   -1.9322    2.7203    0.7186 C   0  0  0  0  0  0  0  0  0  0  0  0
   -2.7820    1.4630    0.5219 C   0  0  0  0  0  0  0  0  0  0  0  0
   -4.1032    1.8695   -0.1429 C   0  0  0  0  0  0  0  0  0  0  0  0
   -3.8061    2.3497   -1.5634 C   0  0  0  0  0  0  0  0  0  0  0  0
   -5.0319    0.6836   -0.1913 C   0  0  0  0  0  0  0  0  0  0  0  0
   -6.1792    0.6694    0.5888 C   0  0  0  0  0  0  0  0  0  0  0  0
   -7.0335   -0.4218    0.5435 C   0  0  0  0  0  0  0  0  0  0  0  0
   -6.7387   -1.4961   -0.2814 C   0  0  0  0  0  0  0  0  0  0  0  0
   -5.5898   -1.4770   -1.0598 C   0  0  0  0  0  0  0  0  0  0  0  0
   -4.7429   -0.3863   -1.0168 C   0  0  0  0  0  0  0  0  0  0  0  0
   -7.5738   -2.5672   -0.3276 O   0  0  0  0  0  0  0  0  0  0  0  0
   -6.4653    1.7238    1.3970 O   0  0  0  0  0  0  0  0  0  0  0  0
   -2.0481    0.4890   -0.3634 C   0  0  0  0  0  0  0  0  0  0  0  0
   -1.7411    0.8084   -1.4930 O   0  0  0  0  0  0  0  0  0  0  0  0
   -1.7053   -0.8434    0.1398 C   0  0  0  0  0  0  0  0  0  0  0  0
   -1.1061   -1.7882   -0.7126 C   0  0  0  0  0  0  0  0  0  0  0  0
   -0.7867   -3.0436   -0.2247 C   0  0  0  0  0  0  0  0  0  0  0  0
   -1.0585   -3.3620    1.0981 C   0  0  0  0  0  0  0  0  0  0  0  0
   -1.6523   -2.4244    1.9396 C   0  0  0  0  0  0  0  0  0  0  0  0
   -1.9676   -1.1811    1.4747 C   0  0  0  0  0  0  0  0  0  0  0  0
   -0.7446   -4.5930    1.5741 O   0  0  0  0  0  0  0  0  0  0  0  0
   -0.1449   -4.0636   -1.1295 C   0  0  0  0  0  0  0  0  0  0  0  0
    1.3542   -3.9298   -1.0535 C   0  0  0  0  0  0  0  0  0  0  0  0
    2.0812   -4.9359   -0.6346 C   0  0  0  0  0  0  0  0  0  0  0  0
    1.4213   -6.2379   -0.2601 C   0  0  0  0  0  0  0  0  0  0  0  0
    3.5774   -4.7912   -0.5271 C   0  0  0  0  0  0  0  0  0  0  0  0
   -0.8433   -1.4713   -2.0046 O   0  0  0  0  0  0  0  0  0  0  0  0
   -0.5387    2.3219    1.1315 C   0  0  0  0  0  0  0  0  0  0  0  0
   -0.2681    2.0214    2.4584 C   0  0  0  0  0  0  0  0  0  0  0  0
    1.0169    1.6527    2.8464 C   0  0  0  0  0  0  0  0  0  0  0  0
    2.0281    1.5831    1.9167 C   0  0  0  0  0  0  0  0  0  0  0  0
    1.7663    1.8835    0.5760 C   0  0  0  0  0  0  0  0  0  0  0  0
    0.4692    2.2504    0.1855 C   0  0  0  0  0  0  0  0  0  0  0  0
    0.2063    2.5430   -1.1129 O   0  0  0  0  0  0  0  0  0  0  0  0
    2.8474    1.8106   -0.4236 C   0  0  0  0  0  0  0  0  0  0  0  0
    2.6166    2.0728   -1.5906 O   0  0  0  0  0  0  0  0  0  0  0  0
    4.1965    1.4236   -0.0144 C   0  0  0  0  0  0  0  0  0  0  0  0
    5.1875    1.3567   -0.9307 C   0  0  0  0  0  0  0  0  0  0  0  0
    6.5434    0.9678   -0.5194 C   0  0  0  0  0  0  0  0  0  0  0  0
    7.5720    0.8977   -1.4668 C   0  0  0  0  0  0  0  0  0  0  0  0
    8.8404    0.5328   -1.0761 C   0  0  0  0  0  0  0  0  0  0  0  0
    9.1010    0.2336    0.2564 C   0  0  0  0  0  0  0  0  0  0  0  0
    8.0832    0.3016    1.2012 C   0  0  0  0  0  0  0  0  0  0  0  0
    6.8126    0.6715    0.8223 C   0  0  0  0  0  0  0  0  0  0  0  0
   10.3533   -0.1266    0.6362 O   0  0  0  0  0  0  0  0  0  0  0  0
   -1.2602    2.0876    3.3822 O   0  0  0  0  0  0  0  0  0  0  0  0
   -1.6536    4.8877   -2.6065 H   0  0  0  0  0  0  0  0  0  0  0  0
   -2.3073    3.5916   -3.6367 H   0  0  0  0  0  0  0  0  0  0  0  0
   -3.4017    4.8054   -2.9315 H   0  0  0  0  0  0  0  0  0  0  0  0
   -1.0909    4.2497   -0.6566 H   0  0  0  0  0  0  0  0  0  0  0  0
   -2.3758    3.3375    1.4999 H   0  0  0  0  0  0  0  0  0  0  0  0
   -2.9848    1.0028    1.4890 H   0  0  0  0  0  0  0  0  0  0  0  0
   -4.5653    2.6777    0.4242 H   0  0  0  0  0  0  0  0  0  0  0  0
   -4.6998    2.8118   -1.9829 H   0  0  0  0  0  0  0  0  0  0  0  0
   -3.5189    1.4980   -2.1801 H   0  0  0  0  0  0  0  0  0  0  0  0
   -7.9269   -0.4349    1.1503 H   0  0  0  0  0  0  0  0  0  0  0  0
   -5.3595   -2.3139   -1.7024 H   0  0  0  0  0  0  0  0  0  0  0  0
   -3.8494   -0.3734   -1.6233 H   0  0  0  0  0  0  0  0  0  0  0  0
   -8.2672   -2.4967   -0.9979 H   0  0  0  0  0  0  0  0  0  0  0  0
   -6.9994    2.4100    0.9740 H   0  0  0  0  0  0  0  0  0  0  0  0
   -1.8603   -2.6816    2.9676 H   0  0  0  0  0  0  0  0  0  0  0  0
   -2.4279   -0.4595    2.1333 H   0  0  0  0  0  0  0  0  0  0  0  0
    0.1454   -4.6552    1.9472 H   0  0  0  0  0  0  0  0  0  0  0  0
   -0.4368   -5.0649   -0.8129 H   0  0  0  0  0  0  0  0  0  0  0  0
   -0.4730   -3.8968   -2.1555 H   0  0  0  0  0  0  0  0  0  0  0  0
    1.8293   -3.0046   -1.3445 H   0  0  0  0  0  0  0  0  0  0  0  0
    1.2679   -6.8386   -1.1566 H   0  0  0  0  0  0  0  0  0  0  0  0
    2.0594   -6.7815    0.4366 H   0  0  0  0  0  0  0  0  0  0  0  0
    0.4592   -6.0355    0.2106 H   0  0  0  0  0  0  0  0  0  0  0  0
    3.8367   -4.4265    0.4668 H   0  0  0  0  0  0  0  0  0  0  0  0
    4.0490   -5.7597   -0.6932 H   0  0  0  0  0  0  0  0  0  0  0  0
    3.9287   -4.0826   -1.2772 H   0  0  0  0  0  0  0  0  0  0  0  0
    0.0318   -1.0846   -2.1446 H   0  0  0  0  0  0  0  0  0  0  0  0
    1.2207    1.4207    3.8814 H   0  0  0  0  0  0  0  0  0  0  0  0
    3.0238    1.2970    2.2218 H   0  0  0  0  0  0  0  0  0  0  0  0
   -0.0642    1.7796   -1.6411 H   0  0  0  0  0  0  0  0  0  0  0  0
    4.4011    1.1912    1.0203 H   0  0  0  0  0  0  0  0  0  0  0  0
    4.9829    1.5892   -1.9654 H   0  0  0  0  0  0  0  0  0  0  0  0
    7.3704    1.1293   -2.5022 H   0  0  0  0  0  0  0  0  0  0  0  0
    9.6345    0.4785   -1.8061 H   0  0  0  0  0  0  0  0  0  0  0  0
    8.2909    0.0682    2.2350 H   0  0  0  0  0  0  0  0  0  0  0  0
    6.0227    0.7240    1.5570 H   0  0  0  0  0  0  0  0  0  0  0  0
   10.9139    0.6165    0.8979 H   0  0  0  0  0  0  0  0  0  0  0  0
   -1.6938    1.2407    3.5550 H   0  0  0  0  0  0  0  0  0  0  0  0
  1  2  1  0  0  0  0
  2  3  2  0  0  0  0
  3  4  1  0  0  0  0
  4  5  1  0  0  0  0
  5  6  1  0  0  0  0
  6  7  1  0  0  0  0
  2  7  1  0  0  0  0
  6  8  1  0  0  0  0
  8  9  2  0  0  0  0
  9 10  1  0  0  0  0
 10 11  2  0  0  0  0
 11 12  1  0  0  0  0
 12 13  2  0  0  0  0
  8 13  1  0  0  0  0
 11 14  1  0  0  0  0
  9 15  1  0  0  0  0
  5 16  1  0  0  0  0
 16 17  2  0  0  0  0
 16 18  1  0  0  0  0
 18 19  2  0  0  0  0
 19 20  1  0  0  0  0
 20 21  2  0  0  0  0
 21 22  1  0  0  0  0
 22 23  2  0  0  0  0
 18 23  1  0  0  0  0
 21 24  1  0  0  0  0
 20 25  1  0  0  0  0
 25 26  1  0  0  0  0
 26 27  2  0  0  0  0
 27 28  1  0  0  0  0
 27 29  1  0  0  0  0
 19 30  1  0  0  0  0
  4 31  1  0  0  0  0
 31 32  2  0  0  0  0
 32 33  1  0  0  0  0
 33 34  2  0  0  0  0
 34 35  1  0  0  0  0
 35 36  2  0  0  0  0
 31 36  1  0  0  0  0
 36 37  1  0  0  0  0
 35 38  1  0  0  0  0
 38 39  2  0  0  0  0
 38 40  1  0  0  0  0
 40 41  2  0  0  0  0
 41 42  1  0  0  0  0
 42 43  2  0  0  0  0
 43 44  1  0  0  0  0
 44 45  2  0  0  0  0
 45 46  1  0  0  0  0
 46 47  2  0  0  0  0
 42 47  1  0  0  0  0
 45 48  1  0  0  0  0
 32 49  1  0  0  0  0
  1 50  1  0  0  0  0
  1 51  1  0  0  0  0
  1 52  1  0  0  0  0
  3 53  1  0  0  0  0
  4 54  1  0  0  0  0
  5 55  1  0  0  0  0
  6 56  1  0  0  0  0
  7 57  1  0  0  0  0
  7 58  1  0  0  0  0
 10 59  1  0  0  0  0
 12 60  1  0  0  0  0
 13 61  1  0  0  0  0
 14 62  1  0  0  0  0
 15 63  1  0  0  0  0
 22 64  1  0  0  0  0
 23 65  1  0  0  0  0
 24 66  1  0  0  0  0
 25 67  1  0  0  0  0
 25 68  1  0  0  0  0
 26 69  1  0  0  0  0
 28 70  1  0  0  0  0
 28 71  1  0  0  0  0
 28 72  1  0  0  0  0
 29 73  1  0  0  0  0
 29 74  1  0  0  0  0
 29 75  1  0  0  0  0
 30 76  1  0  0  0  0
 33 77  1  0  0  0  0
 34 78  1  0  0  0  0
 37 79  1  0  0  0  0
 40 80  1  0  0  0  0
 41 81  1  0  0  0  0
 43 82  1  0  0  0  0
 44 83  1  0  0  0  0
 46 84  1  0  0  0  0
 47 85  1  0  0  0  0
 48 86  1  0  0  0  0
 49 87  1  0  0  0  0
M  END
$$$$
