C14H14O9
APtclcactv06291802563D 0   0.00000     0.00000
 
 37 37  0  0  0  0  0  0  0  0999 V2000
   -6.0125    1.6896    1.6654 C   0  0  0  0  0  0  0  0  0  0  0  0
   -6.1753    0.6465    0.7024 O   0  0  0  0  0  0  0  0  0  0  0  0
   -5.0424    0.1210    0.1640 C   0  0  0  0  0  0  0  0  0  0  0  0
   -5.1288   -0.9001   -0.7818 C   0  0  0  0  0  0  0  0  0  0  0  0
   -3.9747   -1.4398   -1.3343 C   0  0  0  0  0  0  0  0  0  0  0  0
   -2.7382   -0.9694   -0.9512 C   0  0  0  0  0  0  0  0  0  0  0  0
   -2.6430    0.0556   -0.0027 C   0  0  0  0  0  0  0  0  0  0  0  0
   -3.8071    0.6026    0.5498 C   0  0  0  0  0  0  0  0  0  0  0  0
   -1.3251    0.5595    0.4081 C   0  0  0  0  0  0  0  0  0  0  0  0
   -0.2030    0.0333   -0.1298 C   0  0  0  0  0  0  0  0  0  0  0  0
    1.0684    0.5195    0.2665 C   0  0  0  0  0  0  0  0  0  0  0  0
    1.1491    1.4104    1.0909 O   0  0  0  0  0  0  0  0  0  0  0  0
    2.1891   -0.0060   -0.2708 O   0  0  0  0  0  0  0  0  0  0  0  0
    3.4359    0.5317    0.1746 C   0  0  0  0  0  0  0  0  0  0  0  0
    4.5130   -0.5526    0.1050 C   0  0  0  0  0  0  0  0  0  0  0  0
    4.0638   -1.7580    0.8900 C   0  0  0  0  0  0  0  0  0  0  0  0
    3.8525   -2.8039    0.3230 O   0  0  0  0  0  0  0  0  0  0  0  0
    3.8984   -1.6698    2.2191 O   0  0  0  0  0  0  0  0  0  0  0  0
    4.7270   -0.9246   -1.2581 O   0  0  0  0  0  0  0  0  0  0  0  0
    3.8288    1.6875   -0.7091 C   0  0  0  0  0  0  0  0  0  0  0  0
    3.1144    2.0169   -1.6262 O   0  0  0  0  0  0  0  0  0  0  0  0
    4.9724    2.3510   -0.4774 O   0  0  0  0  0  0  0  0  0  0  0  0
   -6.3452   -1.3685   -1.1633 O   0  0  0  0  0  0  0  0  0  0  0  0
   -5.4895    2.5289    1.2070 H   0  0  0  0  0  0  0  0  0  0  0  0
   -6.9916    2.0183    2.0140 H   0  0  0  0  0  0  0  0  0  0  0  0
   -5.4323    1.3174    2.5097 H   0  0  0  0  0  0  0  0  0  0  0  0
   -4.0469   -2.2308   -2.0662 H   0  0  0  0  0  0  0  0  0  0  0  0
   -1.8423   -1.3916   -1.3821 H   0  0  0  0  0  0  0  0  0  0  0  0
   -3.7390    1.3939    1.2817 H   0  0  0  0  0  0  0  0  0  0  0  0
   -1.2535    1.3504    1.1400 H   0  0  0  0  0  0  0  0  0  0  0  0
   -0.2746   -0.7576   -0.8618 H   0  0  0  0  0  0  0  0  0  0  0  0
    3.3354    0.8785    1.2030 H   0  0  0  0  0  0  0  0  0  0  0  0
    5.4420   -0.1696    0.5272 H   0  0  0  0  0  0  0  0  0  0  0  0
    3.6090   -2.4694    2.6796 H   0  0  0  0  0  0  0  0  0  0  0  0
    3.9406   -1.2750   -1.6983 H   0  0  0  0  0  0  0  0  0  0  0  0
    5.1820    3.0851   -1.0709 H   0  0  0  0  0  0  0  0  0  0  0  0
   -6.7262   -0.9028   -1.9203 H   0  0  0  0  0  0  0  0  0  0  0  0
  1  2  1  0  0  0  0
  2  3  1  0  0  0  0
  3  4  2  0  0  0  0
  4  5  1  0  0  0  0
  5  6  2  0  0  0  0
  6  7  1  0  0  0  0
  7  8  2  0  0  0  0
  3  8  1  0  0  0  0
  7  9  1  0  0  0  0
  9 10  2  0  0  0  0
 10 11  1  0  0  0  0
 11 12  2  0  0  0  0
 11 13  1  0  0  0  0
 13 14  1  0  0  0  0
 14 15  1  0  0  0  0
 15 16  1  0  0  0  0
 16 17  2  0  0  0  0
 16 18  1  0  0  0  0
 15 19  1  0  0  0  0
 14 20  1  0  0  0  0
 20 21  2  0  0  0  0
 20 22  1  0  0  0  0
  4 23  1  0  0  0  0
  1 24  1  0  0  0  0
  1 25  1  0  0  0  0
  1 26  1  0  0  0  0
  5 27  1  0  0  0  0
  6 28  1  0  0  0  0
  8 29  1  0  0  0  0
  9 30  1  0  0  0  0
 10 31  1  0  0  0  0
 14 32  1  0  0  0  0
 15 33  1  0  0  0  0
 18 34  1  0  0  0  0
 19 35  1  0  0  0  0
 22 36  1  0  0  0  0
 23 37  1  0  0  0  0
M  END
$$$$
