C10H12O2
APtclcactv06211806263D 0   0.00000     0.00000
 
 24 24  0  0  0  0  0  0  0  0999 V2000
    2.9657   -0.4977   -1.2103 C   0  0  0  0  0  0  0  0  0  0  0  0
    2.0711   -0.2213   -0.0003 C   0  0  0  0  0  0  0  0  0  0  0  0
    1.8303    1.2696    0.0002 C   0  0  0  0  0  0  0  0  0  0  0  0
    0.6570    1.9113    0.0005 C   0  0  0  0  0  0  0  0  0  0  0  0
   -0.6516    1.3796   -0.0000 C   0  0  0  0  0  0  0  0  0  0  0  0
   -1.0771    0.0756   -0.0001 C   0  0  0  0  0  0  0  0  0  0  0  0
   -0.2935   -1.1709    0.0004 C   0  0  0  0  0  0  0  0  0  0  0  0
    1.0300   -1.3163   -0.0005 C   0  0  0  0  0  0  0  0  0  0  0  0
   -2.5363   -0.1047   -0.0001 C   0  0  0  0  0  0  0  0  0  0  0  0
   -3.2686    0.8656   -0.0001 O   0  0  0  0  0  0  0  0  0  0  0  0
   -3.0622   -1.3463   -0.0002 O   0  0  0  0  0  0  0  0  0  0  0  0
    2.9645   -0.4986    1.2104 C   0  0  0  0  0  0  0  0  0  0  0  0
    3.8998    0.0540   -1.1051 H   0  0  0  0  0  0  0  0  0  0  0  0
    3.1786   -1.5651   -1.2684 H   0  0  0  0  0  0  0  0  0  0  0  0
    2.4558   -0.1789   -2.1195 H   0  0  0  0  0  0  0  0  0  0  0  0
    2.7123    1.8929    0.0007 H   0  0  0  0  0  0  0  0  0  0  0  0
    0.7189    2.9895    0.0008 H   0  0  0  0  0  0  0  0  0  0  0  0
   -1.4417    2.1159   -0.0001 H   0  0  0  0  0  0  0  0  0  0  0  0
   -0.8667   -2.0862    0.0010 H   0  0  0  0  0  0  0  0  0  0  0  0
    1.4009   -2.3306    0.0001 H   0  0  0  0  0  0  0  0  0  0  0  0
   -4.0268   -1.4145   -0.0002 H   0  0  0  0  0  0  0  0  0  0  0  0
    3.8284    0.1655    1.1842 H   0  0  0  0  0  0  0  0  0  0  0  0
    2.3997   -0.3242    2.1263 H   0  0  0  0  0  0  0  0  0  0  0  0
    3.3017   -1.5348    1.1833 H   0  0  0  0  0  0  0  0  0  0  0  0
  1  2  1  0  0  0  0
  2  3  1  0  0  0  0
  3  4  2  0  0  0  0
  4  5  1  0  0  0  0
  5  6  2  0  0  0  0
  6  7  1  0  0  0  0
  7  8  2  0  0  0  0
  2  8  1  0  0  0  0
  6  9  1  0  0  0  0
  9 10  2  0  0  0  0
  9 11  1  0  0  0  0
  2 12  1  0  0  0  0
  1 13  1  0  0  0  0
  1 14  1  0  0  0  0
  1 15  1  0  0  0  0
  3 16  1  0  0  0  0
  4 17  1  0  0  0  0
  5 18  1  0  0  0  0
  7 19  1  0  0  0  0
  8 20  1  0  0  0  0
 11 21  1  0  0  0  0
 12 22  1  0  0  0  0
 12 23  1  0  0  0  0
 12 24  1  0  0  0  0
M  END
$$$$
