C10H18O
APtclcactv06281817243D 0   0.00000     0.00000
 
 29 30  0  0  0  0  0  0  0  0999 V2000
    1.9494    1.8163    0.0675 C   0  0  0  0  0  0  0  0  0  0  0  0
    0.8609    0.8517    0.5697 C   0  0  0  0  0  0  0  0  0  0  0  0
   -0.3515    0.9392   -0.3631 C   0  0  0  0  0  0  0  0  0  0  0  0
   -0.2448   -0.0632   -1.5277 C   0  0  0  0  0  0  0  0  0  0  0  0
   -0.7776   -1.0915   -0.5116 C   0  0  0  0  0  0  0  0  0  0  0  0
   -1.5383    0.0875    0.1209 C   0  0  0  0  0  0  0  0  0  0  0  0
   -1.7109    0.0105    1.6367 C   0  0  0  0  0  0  0  0  0  0  0  0
   -2.8611    0.4168   -0.5868 C   0  0  0  0  0  0  0  0  0  0  0  0
    0.3426   -1.6225    0.3874 C   0  0  0  0  0  0  0  0  0  0  0  0
    1.4259   -0.5674    0.5935 C   0  0  0  0  0  0  0  0  0  0  0  0
    2.4456   -0.7068   -0.4011 O   0  0  0  0  0  0  0  0  0  0  0  0
    1.5598    2.8343    0.0653 H   0  0  0  0  0  0  0  0  0  0  0  0
    2.8163    1.7604    0.7259 H   0  0  0  0  0  0  0  0  0  0  0  0
    2.2432    1.5376   -0.9445 H   0  0  0  0  0  0  0  0  0  0  0  0
    0.5902    1.1617    1.5827 H   0  0  0  0  0  0  0  0  0  0  0  0
   -0.6078    1.9623   -0.6620 H   0  0  0  0  0  0  0  0  0  0  0  0
   -0.9161    0.1383   -2.3603 H   0  0  0  0  0  0  0  0  0  0  0  0
    0.7740   -0.2559   -1.8608 H   0  0  0  0  0  0  0  0  0  0  0  0
   -1.4121   -1.8743   -0.9423 H   0  0  0  0  0  0  0  0  0  0  0  0
   -0.7910   -0.3604    2.0887 H   0  0  0  0  0  0  0  0  0  0  0  0
   -1.9335    1.0032    2.0280 H   0  0  0  0  0  0  0  0  0  0  0  0
   -2.5314   -0.6663    1.8750 H   0  0  0  0  0  0  0  0  0  0  0  0
   -3.6299   -0.2857   -0.2651 H   0  0  0  0  0  0  0  0  0  0  0  0
   -3.1667    1.4316   -0.3320 H   0  0  0  0  0  0  0  0  0  0  0  0
   -2.7255    0.3382   -1.6654 H   0  0  0  0  0  0  0  0  0  0  0  0
   -0.0492   -1.9627    1.3457 H   0  0  0  0  0  0  0  0  0  0  0  0
    0.7964   -2.5012   -0.1019 H   0  0  0  0  0  0  0  0  0  0  0  0
    1.8958   -0.7375    1.5767 H   0  0  0  0  0  0  0  0  0  0  0  0
    2.8881   -1.5666   -0.3929 H   0  0  0  0  0  0  0  0  0  0  0  0
  1  2  1  0  0  0  0
  2  3  1  0  0  0  0
  3  4  1  0  0  0  0
  4  5  1  0  0  0  0
  5  6  1  0  0  0  0
  3  6  1  0  0  0  0
  6  7  1  0  0  0  0
  6  8  1  0  0  0  0
  5  9  1  0  0  0  0
  9 10  1  0  0  0  0
  2 10  1  0  0  0  0
 10 11  1  0  0  0  0
  1 12  1  0  0  0  0
  1 13  1  0  0  0  0
  1 14  1  0  0  0  0
  2 15  1  0  0  0  0
  3 16  1  0  0  0  0
  4 17  1  0  0  0  0
  4 18  1  0  0  0  0
  5 19  1  0  0  0  0
  7 20  1  0  0  0  0
  7 21  1  0  0  0  0
  7 22  1  0  0  0  0
  8 23  1  0  0  0  0
  8 24  1  0  0  0  0
  8 25  1  0  0  0  0
  9 26  1  0  0  0  0
  9 27  1  0  0  0  0
 10 28  1  0  0  0  0
 11 29  1  0  0  0  0
M  END
$$$$
