C6H9O2
APtclcactv06281817243D 0   0.00000     0.00000
 
 17 16  0  0  0  0  0  0  0  0999 V2000
    3.4065   -0.7911   -0.5601 C   0  0  0  0  0  0  0  0  0  0  0  0
    2.7447    0.1889    0.4107 C   0  0  0  0  0  0  0  0  0  0  0  0
    1.4334    0.6581   -0.1651 C   0  0  0  0  0  0  0  0  0  0  0  0
    0.3292    0.5253    0.5271 C   0  0  0  0  0  0  0  0  0  0  0  0
   -0.9821    0.9945   -0.0488 C   0  0  0  0  0  0  0  0  0  0  0  0
   -1.9720   -0.1416   -0.0349 C   0  0  0  0  0  0  0  0  0  0  0  0
   -1.6432   -1.2314    0.4020 O   0  0  0  0  0  0  0  0  0  0  0  0
   -3.1017    0.0289   -0.4607 O   0  5  0  0  0  0  0  0  0  0  0  0
    4.3549   -1.1304   -0.1437 H   0  0  0  0  0  0  0  0  0  0  0  0
    2.7505   -1.6476   -0.7153 H   0  0  0  0  0  0  0  0  0  0  0  0
    3.5855   -0.2932   -1.5132 H   0  0  0  0  0  0  0  0  0  0  0  0
    2.5656   -0.3089    1.3637 H   0  0  0  0  0  0  0  0  0  0  0  0
    3.4006    1.0455    0.5658 H   0  0  0  0  0  0  0  0  0  0  0  0
    1.4041    1.1038   -1.1484 H   0  0  0  0  0  0  0  0  0  0  0  0
    0.3585    0.0796    1.5104 H   0  0  0  0  0  0  0  0  0  0  0  0
   -1.3675    1.8196    0.5503 H   0  0  0  0  0  0  0  0  0  0  0  0
   -0.8290    1.3306   -1.0743 H   0  0  0  0  0  0  0  0  0  0  0  0
  1  2  1  0  0  0  0
  2  3  1  0  0  0  0
  3  4  2  0  0  0  0
  4  5  1  0  0  0  0
  5  6  1  0  0  0  0
  6  7  2  0  0  0  0
  6  8  1  0  0  0  0
  1  9  1  0  0  0  0
  1 10  1  0  0  0  0
  1 11  1  0  0  0  0
  2 12  1  0  0  0  0
  2 13  1  0  0  0  0
  3 14  1  0  0  0  0
  4 15  1  0  0  0  0
  5 16  1  0  0  0  0
  5 17  1  0  0  0  0
M  CHG  1   8  -1
M  END
$$$$
