C8H7NO2
APtclcactv06211806263D 0   0.00000     0.00000
 
 18 19  0  0  0  0  0  0  0  0999 V2000
   -1.7709    1.1603   -0.3826 C   0  0  0  0  0  0  0  0  0  0  0  0
   -2.0400   -0.2862   -0.0538 C   0  0  0  0  0  0  0  0  0  0  0  0
   -3.1808   -0.6888    0.0330 O   0  0  0  0  0  0  0  0  0  0  0  0
   -1.0055   -1.1322    0.1435 N   0  0  0  0  0  0  0  0  0  0  0  0
    0.3031   -0.6337    0.0720 C   0  0  0  0  0  0  0  0  0  0  0  0
    1.3822   -1.4926   -0.0508 C   0  0  0  0  0  0  0  0  0  0  0  0
    2.6651   -0.9797   -0.1191 C   0  0  0  0  0  0  0  0  0  0  0  0
    2.8718    0.3860   -0.0644 C   0  0  0  0  0  0  0  0  0  0  0  0
    1.7977    1.2494    0.0582 C   0  0  0  0  0  0  0  0  0  0  0  0
    0.5116    0.7440    0.1262 C   0  0  0  0  0  0  0  0  0  0  0  0
   -0.5559    1.5779    0.2452 O   0  0  0  0  0  0  0  0  0  0  0  0
   -1.6796    1.2759   -1.4626 H   0  0  0  0  0  0  0  0  0  0  0  0
   -2.5958    1.7741   -0.0209 H   0  0  0  0  0  0  0  0  0  0  0  0
   -1.1654   -2.0702    0.3320 H   0  0  0  0  0  0  0  0  0  0  0  0
    1.2227   -2.5599   -0.0928 H   0  0  0  0  0  0  0  0  0  0  0  0
    3.5077   -1.6484   -0.2150 H   0  0  0  0  0  0  0  0  0  0  0  0
    3.8758    0.7805   -0.1173 H   0  0  0  0  0  0  0  0  0  0  0  0
    1.9629    2.3158    0.1008 H   0  0  0  0  0  0  0  0  0  0  0  0
  1  2  1  0  0  0  0
  2  3  2  0  0  0  0
  2  4  1  0  0  0  0
  4  5  1  0  0  0  0
  5  6  2  0  0  0  0
  6  7  1  0  0  0  0
  7  8  2  0  0  0  0
  8  9  1  0  0  0  0
  9 10  2  0  0  0  0
  5 10  1  0  0  0  0
 10 11  1  0  0  0  0
  1 11  1  0  0  0  0
  1 12  1  0  0  0  0
  1 13  1  0  0  0  0
  4 14  1  0  0  0  0
  6 15  1  0  0  0  0
  7 16  1  0  0  0  0
  8 17  1  0  0  0  0
  9 18  1  0  0  0  0
M  END
$$$$
