C15H20O3
APtclcactv06291802563D 0   0.00000     0.00000
 
 38 39  0  0  0  0  0  0  0  0999 V2000
    3.8066    2.4903   -0.1977 C   0  0  0  0  0  0  0  0  0  0  0  0
    2.7590    1.4142   -0.0734 C   0  0  0  0  0  0  0  0  0  0  0  0
    3.1391    0.0893    0.0792 C   0  0  0  0  0  0  0  0  0  0  0  0
    2.1725   -0.8969    0.1950 C   0  0  0  0  0  0  0  0  0  0  0  0
    0.8287   -0.5652    0.1575 C   0  0  0  0  0  0  0  0  0  0  0  0
   -0.1931   -1.6658    0.2917 C   0  0  0  0  0  0  0  0  0  0  0  0
   -1.5533   -1.1700   -0.2051 C   0  0  0  0  0  0  0  0  0  0  0  0
   -1.8315    0.1958    0.4356 C   0  0  0  0  0  0  0  0  0  0  0  0
   -0.8589    1.1248   -0.0448 O   0  0  0  0  0  0  0  0  0  0  0  0
    0.4489    0.7566    0.0024 C   0  0  0  0  0  0  0  0  0  0  0  0
    1.4200    1.7464   -0.1056 C   0  0  0  0  0  0  0  0  0  0  0  0
   -3.2334    0.6708    0.0483 C   0  0  0  0  0  0  0  0  0  0  0  0
   -3.4590    2.0856    0.5853 C   0  0  0  0  0  0  0  0  0  0  0  0
   -3.3669    0.6766   -1.4759 C   0  0  0  0  0  0  0  0  0  0  0  0
   -4.2073   -0.2122    0.6084 O   0  0  0  0  0  0  0  0  0  0  0  0
    0.2383   -2.8534   -0.5296 C   0  0  0  0  0  0  0  0  0  0  0  0
    0.4485   -4.0092    0.0501 C   0  0  0  0  0  0  0  0  0  0  0  0
    4.4576   -0.2415    0.1146 O   0  0  0  0  0  0  0  0  0  0  0  0
    4.0589    2.6321   -1.2486 H   0  0  0  0  0  0  0  0  0  0  0  0
    3.4196    3.4233    0.2121 H   0  0  0  0  0  0  0  0  0  0  0  0
    4.6991    2.1940    0.3534 H   0  0  0  0  0  0  0  0  0  0  0  0
    2.4685   -1.9286    0.3145 H   0  0  0  0  0  0  0  0  0  0  0  0
   -0.2743   -1.9596    1.3382 H   0  0  0  0  0  0  0  0  0  0  0  0
   -1.5338   -1.0696   -1.2903 H   0  0  0  0  0  0  0  0  0  0  0  0
   -2.3305   -1.8771    0.0851 H   0  0  0  0  0  0  0  0  0  0  0  0
   -1.7575    0.1145    1.5201 H   0  0  0  0  0  0  0  0  0  0  0  0
    1.1249    2.7789   -0.2201 H   0  0  0  0  0  0  0  0  0  0  0  0
   -2.7161    2.7592    0.1581 H   0  0  0  0  0  0  0  0  0  0  0  0
   -4.4577    2.4240    0.3094 H   0  0  0  0  0  0  0  0  0  0  0  0
   -3.3639    2.0815    1.6712 H   0  0  0  0  0  0  0  0  0  0  0  0
   -3.2062   -0.3313   -1.8585 H   0  0  0  0  0  0  0  0  0  0  0  0
   -4.3656    1.0150   -1.7518 H   0  0  0  0  0  0  0  0  0  0  0  0
   -2.6240    1.3502   -1.9031 H   0  0  0  0  0  0  0  0  0  0  0  0
   -5.1210    0.0286    0.4029 H   0  0  0  0  0  0  0  0  0  0  0  0
    0.3743   -2.7516   -1.5962 H   0  0  0  0  0  0  0  0  0  0  0  0
    0.7576   -4.8602   -0.5385 H   0  0  0  0  0  0  0  0  0  0  0  0
    0.3125   -4.1109    1.1167 H   0  0  0  0  0  0  0  0  0  0  0  0
    4.8408   -0.2356    1.0024 H   0  0  0  0  0  0  0  0  0  0  0  0
  1  2  1  0  0  0  0
  2  3  2  0  0  0  0
  3  4  1  0  0  0  0
  4  5  2  0  0  0  0
  5  6  1  0  0  0  0
  6  7  1  0  0  0  0
  7  8  1  0  0  0  0
  8  9  1  0  0  0  0
  9 10  1  0  0  0  0
  5 10  1  0  0  0  0
 10 11  2  0  0  0  0
  2 11  1  0  0  0  0
  8 12  1  0  0  0  0
 12 13  1  0  0  0  0
 12 14  1  0  0  0  0
 12 15  1  0  0  0  0
  6 16  1  0  0  0  0
 16 17  2  0  0  0  0
  3 18  1  0  0  0  0
  1 19  1  0  0  0  0
  1 20  1  0  0  0  0
  1 21  1  0  0  0  0
  4 22  1  0  0  0  0
  6 23  1  0  0  0  0
  7 24  1  0  0  0  0
  7 25  1  0  0  0  0
  8 26  1  0  0  0  0
 11 27  1  0  0  0  0
 13 28  1  0  0  0  0
 13 29  1  0  0  0  0
 13 30  1  0  0  0  0
 14 31  1  0  0  0  0
 14 32  1  0  0  0  0
 14 33  1  0  0  0  0
 15 34  1  0  0  0  0
 16 35  1  0  0  0  0
 17 36  1  0  0  0  0
 17 37  1  0  0  0  0
 18 38  1  0  0  0  0
M  END
$$$$
