C15H15NO2
APtclcactv06211806263D 0   0.00000     0.00000
 
 33 35  0  0  0  0  0  0  0  0999 V2000
    2.7697   -0.7376   -1.6451 C   0  0  0  0  0  0  0  0  0  0  0  0
    2.8389   -0.5570   -0.1274 C   0  0  0  0  0  0  0  0  0  0  0  0
    3.0306    0.9026    0.1922 C   0  0  0  0  0  0  0  0  0  0  0  0
    1.9690    1.6921    0.3588 C   0  0  0  0  0  0  0  0  0  0  0  0
    0.6284    1.0877    0.2332 C   0  0  0  0  0  0  0  0  0  0  0  0
    0.5204   -0.2976    0.2920 C   0  0  0  0  0  0  0  0  0  0  0  0
    1.6313   -1.0425    0.4618 O   0  0  0  0  0  0  0  0  0  0  0  0
   -0.8066   -0.8991    0.1656 C   0  0  0  0  0  0  0  0  0  0  0  0
   -0.9853   -2.2843    0.2132 C   0  0  0  0  0  0  0  0  0  0  0  0
   -2.2404   -2.8114    0.0914 C   0  0  0  0  0  0  0  0  0  0  0  0
   -3.3393   -1.9816   -0.0796 C   0  0  0  0  0  0  0  0  0  0  0  0
   -3.1862   -0.6124   -0.1297 C   0  0  0  0  0  0  0  0  0  0  0  0
   -1.9191   -0.0524   -0.0079 C   0  0  0  0  0  0  0  0  0  0  0  0
   -1.7458    1.3161   -0.0565 N   0  0  0  0  0  0  0  0  0  0  0  0
   -0.5285    1.8786    0.0575 C   0  0  0  0  0  0  0  0  0  0  0  0
   -0.4226    3.0917    0.0085 O   0  0  0  0  0  0  0  0  0  0  0  0
   -2.9164    2.1781   -0.2377 C   0  0  0  0  0  0  0  0  0  0  0  0
    4.0223   -1.3551    0.4236 C   0  0  0  0  0  0  0  0  0  0  0  0
    3.6971   -0.3843   -2.0958 H   0  0  0  0  0  0  0  0  0  0  0  0
    2.6309   -1.7931   -1.8794 H   0  0  0  0  0  0  0  0  0  0  0  0
    1.9316   -0.1643   -2.0413 H   0  0  0  0  0  0  0  0  0  0  0  0
    4.0268    1.3090    0.2867 H   0  0  0  0  0  0  0  0  0  0  0  0
    2.0866    2.7428    0.5794 H   0  0  0  0  0  0  0  0  0  0  0  0
   -0.1345   -2.9362    0.3455 H   0  0  0  0  0  0  0  0  0  0  0  0
   -2.3779   -3.8820    0.1282 H   0  0  0  0  0  0  0  0  0  0  0  0
   -4.3248   -2.4129   -0.1750 H   0  0  0  0  0  0  0  0  0  0  0  0
   -4.0486    0.0240   -0.2631 H   0  0  0  0  0  0  0  0  0  0  0  0
   -3.3267    2.4432    0.7367 H   0  0  0  0  0  0  0  0  0  0  0  0
   -2.6219    3.0845   -0.7667 H   0  0  0  0  0  0  0  0  0  0  0  0
   -3.6717    1.6479   -0.8179 H   0  0  0  0  0  0  0  0  0  0  0  0
    4.9460   -0.9947   -0.0293 H   0  0  0  0  0  0  0  0  0  0  0  0
    4.0742   -1.2283    1.5049 H   0  0  0  0  0  0  0  0  0  0  0  0
    3.8898   -2.4110    0.1875 H   0  0  0  0  0  0  0  0  0  0  0  0
  1  2  1  0  0  0  0
  2  3  1  0  0  0  0
  3  4  2  0  0  0  0
  4  5  1  0  0  0  0
  5  6  2  0  0  0  0
  6  7  1  0  0  0  0
  2  7  1  0  0  0  0
  6  8  1  0  0  0  0
  8  9  2  0  0  0  0
  9 10  1  0  0  0  0
 10 11  2  0  0  0  0
 11 12  1  0  0  0  0
 12 13  2  0  0  0  0
  8 13  1  0  0  0  0
 13 14  1  0  0  0  0
 14 15  1  0  0  0  0
  5 15  1  0  0  0  0
 15 16  2  0  0  0  0
 14 17  1  0  0  0  0
  2 18  1  0  0  0  0
  1 19  1  0  0  0  0
  1 20  1  0  0  0  0
  1 21  1  0  0  0  0
  3 22  1  0  0  0  0
  4 23  1  0  0  0  0
  9 24  1  0  0  0  0
 10 25  1  0  0  0  0
 11 26  1  0  0  0  0
 12 27  1  0  0  0  0
 17 28  1  0  0  0  0
 17 29  1  0  0  0  0
 17 30  1  0  0  0  0
 18 31  1  0  0  0  0
 18 32  1  0  0  0  0
 18 33  1  0  0  0  0
M  END
$$$$
