C5H10O
APtclcactv06211804393D 0   0.00000     0.00000
 
 16 15  0  0  0  0  0  0  0  0999 V2000
    2.3616   -0.5045    0.2719 C   0  0  0  0  0  0  0  0  0  0  0  0
    1.0164   -0.7212   -0.4240 C   0  0  0  0  0  0  0  0  0  0  0  0
   -0.0411    0.1785    0.2188 C   0  0  0  0  0  0  0  0  0  0  0  0
    0.3143    1.6449   -0.0350 C   0  0  0  0  0  0  0  0  0  0  0  0
   -1.3897   -0.1228   -0.3825 C   0  0  0  0  0  0  0  0  0  0  0  0
   -2.2926   -0.5065    0.3217 O   0  0  0  0  0  0  0  0  0  0  0  0
    2.6604    0.5386    0.1683 H   0  0  0  0  0  0  0  0  0  0  0  0
    2.2678   -0.7523    1.3292 H   0  0  0  0  0  0  0  0  0  0  0  0
    3.1150   -1.1455   -0.1861 H   0  0  0  0  0  0  0  0  0  0  0  0
    1.1102   -0.4734   -1.4813 H   0  0  0  0  0  0  0  0  0  0  0  0
    0.7176   -1.7643   -0.3204 H   0  0  0  0  0  0  0  0  0  0  0  0
   -0.0722   -0.0072    1.2924 H   0  0  0  0  0  0  0  0  0  0  0  0
   -0.4390    2.2858    0.4230 H   0  0  0  0  0  0  0  0  0  0  0  0
    1.2898    1.8628    0.3999 H   0  0  0  0  0  0  0  0  0  0  0  0
    0.3455    1.8307   -1.1086 H   0  0  0  0  0  0  0  0  0  0  0  0
   -1.5487    0.0045   -1.4431 H   0  0  0  0  0  0  0  0  0  0  0  0
  1  2  1  0  0  0  0
  2  3  1  0  0  0  0
  3  4  1  0  0  0  0
  3  5  1  0  0  0  0
  5  6  2  0  0  0  0
  1  7  1  0  0  0  0
  1  8  1  0  0  0  0
  1  9  1  0  0  0  0
  2 10  1  0  0  0  0
  2 11  1  0  0  0  0
  3 12  1  0  0  0  0
  4 13  1  0  0  0  0
  4 14  1  0  0  0  0
  4 15  1  0  0  0  0
  5 16  1  0  0  0  0
M  END
$$$$
