C15H16N2O
APtclcactv06211806263D 0   0.00000     0.00000
 
 34 35  0  0  0  0  0  0  0  0999 V2000
    5.6843   -1.5413   -0.0009 C   0  0  0  0  0  0  0  0  0  0  0  0
    5.1580   -1.0926   -1.1978 C   0  0  0  0  0  0  0  0  0  0  0  0
    4.1067   -0.1951   -1.1974 C   0  0  0  0  0  0  0  0  0  0  0  0
    3.5814    0.2535    0.0000 C   0  0  0  0  0  0  0  0  0  0  0  0
    4.1071   -0.1959    1.1969 C   0  0  0  0  0  0  0  0  0  0  0  0
    5.1593   -1.0924    1.1965 C   0  0  0  0  0  0  0  0  0  0  0  0
    2.4360    1.2328    0.0005 C   0  0  0  0  0  0  0  0  0  0  0  0
    1.1672    0.5003    0.0002 N   0  0  0  0  0  0  0  0  0  0  0  0
    0.0000    1.1742    0.0006 C   0  0  0  0  0  0  0  0  0  0  0  0
    0.0000    2.3900    0.0011 O   0  0  0  0  0  0  0  0  0  0  0  0
   -1.1672    0.5003    0.0003 N   0  0  0  0  0  0  0  0  0  0  0  0
   -2.4359    1.2328    0.0007 C   0  0  0  0  0  0  0  0  0  0  0  0
   -3.5813    0.2535    0.0002 C   0  0  0  0  0  0  0  0  0  0  0  0
   -4.1066   -0.1963    1.1972 C   0  0  0  0  0  0  0  0  0  0  0  0
   -5.1573   -1.0946    1.1968 C   0  0  0  0  0  0  0  0  0  0  0  0
   -5.6829   -1.5429   -0.0006 C   0  0  0  0  0  0  0  0  0  0  0  0
   -5.1582   -1.0924   -1.1975 C   0  0  0  0  0  0  0  0  0  0  0  0
   -4.1104   -0.1908   -1.1971 C   0  0  0  0  0  0  0  0  0  0  0  0
    6.5027   -2.2460   -0.0013 H   0  0  0  0  0  0  0  0  0  0  0  0
    5.5684   -1.4431   -2.1333 H   0  0  0  0  0  0  0  0  0  0  0  0
    3.6960    0.1560   -2.1325 H   0  0  0  0  0  0  0  0  0  0  0  0
    3.6971    0.1551    2.1324 H   0  0  0  0  0  0  0  0  0  0  0  0
    5.5698   -1.4437    2.1316 H   0  0  0  0  0  0  0  0  0  0  0  0
    2.4937    1.8590    0.8908 H   0  0  0  0  0  0  0  0  0  0  0  0
    2.4937    1.8599   -0.8892 H   0  0  0  0  0  0  0  0  0  0  0  0
    1.1672   -0.4697   -0.0003 H   0  0  0  0  0  0  0  0  0  0  0  0
   -1.1672   -0.4697   -0.0002 H   0  0  0  0  0  0  0  0  0  0  0  0
   -2.4936    1.8590    0.8909 H   0  0  0  0  0  0  0  0  0  0  0  0
   -2.4937    1.8598   -0.8890 H   0  0  0  0  0  0  0  0  0  0  0  0
   -3.6960    0.1540    2.1326 H   0  0  0  0  0  0  0  0  0  0  0  0
   -5.5672   -1.4465    2.1319 H   0  0  0  0  0  0  0  0  0  0  0  0
   -6.5033   -2.2453   -0.0009 H   0  0  0  0  0  0  0  0  0  0  0  0
   -5.5687   -1.4430   -2.1330 H   0  0  0  0  0  0  0  0  0  0  0  0
   -3.7005    0.1611   -2.1323 H   0  0  0  0  0  0  0  0  0  0  0  0
  1  2  2  0  0  0  0
  2  3  1  0  0  0  0
  3  4  2  0  0  0  0
  4  5  1  0  0  0  0
  5  6  2  0  0  0  0
  1  6  1  0  0  0  0
  4  7  1  0  0  0  0
  7  8  1  0  0  0  0
  8  9  1  0  0  0  0
  9 10  2  0  0  0  0
  9 11  1  0  0  0  0
 11 12  1  0  0  0  0
 12 13  1  0  0  0  0
 13 14  2  0  0  0  0
 14 15  1  0  0  0  0
 15 16  2  0  0  0  0
 16 17  1  0  0  0  0
 17 18  2  0  0  0  0
 13 18  1  0  0  0  0
  1 19  1  0  0  0  0
  2 20  1  0  0  0  0
  3 21  1  0  0  0  0
  5 22  1  0  0  0  0
  6 23  1  0  0  0  0
  7 24  1  0  0  0  0
  7 25  1  0  0  0  0
  8 26  1  0  0  0  0
 11 27  1  0  0  0  0
 12 28  1  0  0  0  0
 12 29  1  0  0  0  0
 14 30  1  0  0  0  0
 15 31  1  0  0  0  0
 16 32  1  0  0  0  0
 17 33  1  0  0  0  0
 18 34  1  0  0  0  0
M  END
$$$$
