C20H24O5
APtclcactv06291802563D 0   0.00000     0.00000
 
 49 51  0  0  0  0  0  0  0  0999 V2000
   -4.7774    0.6065    1.6106 C   0  0  0  0  0  0  0  0  0  0  0  0
   -4.4528   -0.3713    0.4794 C   0  0  0  0  0  0  0  0  0  0  0  0
   -5.3110   -0.0398   -0.7431 C   0  0  0  0  0  0  0  0  0  0  0  0
   -2.9957   -0.2537    0.1167 C   0  0  0  0  0  0  0  0  0  0  0  0
   -2.1633   -1.3562    0.2307 C   0  0  0  0  0  0  0  0  0  0  0  0
   -0.8061   -1.2543   -0.0948 C   0  0  0  0  0  0  0  0  0  0  0  0
   -0.2768   -0.0276   -0.4723 C   0  0  0  0  0  0  0  0  0  0  0  0
   -1.1285    1.0570   -0.6572 C   0  0  0  0  0  0  0  0  0  0  0  0
   -2.4953    0.9392   -0.3464 C   0  0  0  0  0  0  0  0  0  0  0  0
   -0.6658    2.3391   -1.2079 C   0  0  0  0  0  0  0  0  0  0  0  0
   -1.4671    3.2111   -1.4702 O   0  0  0  0  0  0  0  0  0  0  0  0
    1.2197   -0.2572   -0.5172 C   0  0  0  0  0  0  0  0  0  0  0  0
    1.8432    0.3963   -1.7371 C   0  0  0  0  0  0  0  0  0  0  0  0
    3.3519    0.1267   -1.7507 C   0  0  0  0  0  0  0  0  0  0  0  0
    3.9681    0.7741   -0.5137 C   0  0  0  0  0  0  0  0  0  0  0  0
    3.3934    0.1863    0.7681 C   0  0  0  0  0  0  0  0  0  0  0  0
    1.8720    0.1613    0.7867 C   0  0  0  0  0  0  0  0  0  0  0  0
    1.3637    1.5033    1.2503 C   0  0  0  0  0  0  0  0  0  0  0  0
    0.6832    1.5804    2.2449 O   0  0  0  0  0  0  0  0  0  0  0  0
    3.9579   -1.2182    1.0028 C   0  0  0  0  0  0  0  0  0  0  0  0
    3.8642    1.0726    1.9429 C   0  0  0  0  0  0  0  0  0  0  0  0
    1.2990   -1.7697   -0.6509 C   0  0  0  0  0  0  0  0  0  0  0  0
    2.2041   -2.4234   -1.1012 O   0  0  0  0  0  0  0  0  0  0  0  0
    0.1311   -2.2314   -0.1875 O   0  0  0  0  0  0  0  0  0  0  0  0
   -2.6684   -2.5408    0.6596 O   0  0  0  0  0  0  0  0  0  0  0  0
   -4.5655    1.6243    1.2831 H   0  0  0  0  0  0  0  0  0  0  0  0
   -5.8319    0.5214    1.8730 H   0  0  0  0  0  0  0  0  0  0  0  0
   -4.1660    0.3704    2.4815 H   0  0  0  0  0  0  0  0  0  0  0  0
   -4.6648   -1.3891    0.8069 H   0  0  0  0  0  0  0  0  0  0  0  0
   -5.0991    0.9780   -1.0706 H   0  0  0  0  0  0  0  0  0  0  0  0
   -5.0798   -0.7364   -1.5490 H   0  0  0  0  0  0  0  0  0  0  0  0
   -6.3655   -0.1249   -0.4807 H   0  0  0  0  0  0  0  0  0  0  0  0
   -3.1472    1.7917   -0.4736 H   0  0  0  0  0  0  0  0  0  0  0  0
    0.3877    2.5046   -1.3791 H   0  0  0  0  0  0  0  0  0  0  0  0
    1.3975   -0.0134   -2.6441 H   0  0  0  0  0  0  0  0  0  0  0  0
    1.6939    1.4746   -1.7155 H   0  0  0  0  0  0  0  0  0  0  0  0
    3.5443   -0.9402   -1.7623 H   0  0  0  0  0  0  0  0  0  0  0  0
    3.7843    0.5782   -2.6480 H   0  0  0  0  0  0  0  0  0  0  0  0
    5.0515    0.6170   -0.5301 H   0  0  0  0  0  0  0  0  0  0  0  0
    3.7810    1.8515   -0.5401 H   0  0  0  0  0  0  0  0  0  0  0  0
    1.5653   -0.5773    1.5563 H   0  0  0  0  0  0  0  0  0  0  0  0
    1.6082    2.3953    0.6927 H   0  0  0  0  0  0  0  0  0  0  0  0
    5.0431   -1.1638    1.0894 H   0  0  0  0  0  0  0  0  0  0  0  0
    3.5402   -1.6287    1.9220 H   0  0  0  0  0  0  0  0  0  0  0  0
    3.6922   -1.8614    0.1639 H   0  0  0  0  0  0  0  0  0  0  0  0
    3.5032    2.0908    1.7974 H   0  0  0  0  0  0  0  0  0  0  0  0
    3.4681    0.6769    2.8781 H   0  0  0  0  0  0  0  0  0  0  0  0
    4.9535    1.0756    1.9820 H   0  0  0  0  0  0  0  0  0  0  0  0
   -2.9975   -3.1084   -0.0508 H   0  0  0  0  0  0  0  0  0  0  0  0
  1  2  1  0  0  0  0
  2  3  1  0  0  0  0
  2  4  1  0  0  0  0
  4  5  2  0  0  0  0
  5  6  1  0  0  0  0
  6  7  2  0  0  0  0
  7  8  1  0  0  0  0
  8  9  2  0  0  0  0
  4  9  1  0  0  0  0
  8 10  1  0  0  0  0
 10 11  2  0  0  0  0
  7 12  1  0  0  0  0
 12 13  1  0  0  0  0
 13 14  1  0  0  0  0
 14 15  1  0  0  0  0
 15 16  1  0  0  0  0
 16 17  1  0  0  0  0
 12 17  1  0  0  0  0
 17 18  1  0  0  0  0
 18 19  2  0  0  0  0
 16 20  1  0  0  0  0
 16 21  1  0  0  0  0
 12 22  1  0  0  0  0
 22 23  2  0  0  0  0
 22 24  1  0  0  0  0
  6 24  1  0  0  0  0
  5 25  1  0  0  0  0
  1 26  1  0  0  0  0
  1 27  1  0  0  0  0
  1 28  1  0  0  0  0
  2 29  1  0  0  0  0
  3 30  1  0  0  0  0
  3 31  1  0  0  0  0
  3 32  1  0  0  0  0
  9 33  1  0  0  0  0
 10 34  1  0  0  0  0
 13 35  1  0  0  0  0
 13 36  1  0  0  0  0
 14 37  1  0  0  0  0
 14 38  1  0  0  0  0
 15 39  1  0  0  0  0
 15 40  1  0  0  0  0
 17 41  1  0  0  0  0
 18 42  1  0  0  0  0
 20 43  1  0  0  0  0
 20 44  1  0  0  0  0
 20 45  1  0  0  0  0
 21 46  1  0  0  0  0
 21 47  1  0  0  0  0
 21 48  1  0  0  0  0
 25 49  1  0  0  0  0
M  END
$$$$
