C16H25N5O6
APtclcactv06291802563D 0   0.00000     0.00000
 
 52 54  0  0  0  0  0  0  0  0999 V2000
    0.0517    2.3318   -0.8643 C   0  0  0  0  0  0  0  0  0  0  0  0
    0.1760    0.8780   -0.4042 C   0  0  0  0  0  0  0  0  0  0  0  0
   -1.0879    0.1094   -0.7950 C   0  0  0  0  0  0  0  0  0  0  0  0
   -2.2859    0.6751   -0.0297 C   0  0  0  0  0  0  0  0  0  0  0  0
   -3.4961   -0.0607   -0.4040 N   0  0  0  0  0  0  0  0  0  0  0  0
   -4.7144    0.2749    0.1639 C   0  0  0  0  0  0  0  0  0  0  0  0
   -4.8023    1.2628    1.0506 N   0  0  0  0  0  0  0  0  0  0  0  0
   -5.9601    1.5887    1.5965 C   0  0  0  0  0  0  0  0  0  0  0  0
   -7.0802    0.9670    1.3023 N   0  0  0  0  0  0  0  0  0  0  0  0
   -7.0886   -0.0388    0.4215 C   0  0  0  0  0  0  0  0  0  0  0  0
   -5.8786   -0.4123   -0.1858 C   0  0  0  0  0  0  0  0  0  0  0  0
   -6.1824   -1.4569   -1.0330 N   0  0  0  0  0  0  0  0  0  0  0  0
   -7.5109   -1.6841   -0.9260 C   0  0  0  0  0  0  0  0  0  0  0  0
   -8.0414   -0.8492   -0.0764 N   0  0  0  0  0  0  0  0  0  0  0  0
    1.3920    0.2336   -1.0729 C   0  0  0  0  0  0  0  0  0  0  0  0
    2.5834    0.8777   -0.6169 O   0  0  0  0  0  0  0  0  0  0  0  0
    3.7836    0.3485   -1.1839 C   0  0  0  0  0  0  0  0  0  0  0  0
    4.9785    1.1883   -0.7250 C   0  0  0  0  0  0  0  0  0  0  0  0
    5.1035    1.0943    0.7988 C   0  0  0  0  0  0  0  0  0  0  0  0
    5.2397   -0.3779    1.1991 C   0  0  0  0  0  0  0  0  0  0  0  0
    4.0346   -1.1572    0.6658 C   0  0  0  0  0  0  0  0  0  0  0  0
    3.9590   -1.0026   -0.7528 O   0  0  0  0  0  0  0  0  0  0  0  0
    4.1929   -2.6396    1.0098 C   0  0  0  0  0  0  0  0  0  0  0  0
    3.0162   -3.3483    0.6158 O   0  0  0  0  0  0  0  0  0  0  0  0
    6.4406   -0.9153    0.6415 O   0  0  0  0  0  0  0  0  0  0  0  0
    6.2597    1.8156    1.2290 O   0  0  0  0  0  0  0  0  0  0  0  0
    6.1726    0.6924   -1.3335 O   0  0  0  0  0  0  0  0  0  0  0  0
   -0.0711    2.3610   -1.9470 H   0  0  0  0  0  0  0  0  0  0  0  0
   -0.8146    2.7909   -0.3879 H   0  0  0  0  0  0  0  0  0  0  0  0
    0.9521    2.8794   -0.5858 H   0  0  0  0  0  0  0  0  0  0  0  0
    0.2988    0.8488    0.6785 H   0  0  0  0  0  0  0  0  0  0  0  0
   -1.2594    0.2131   -1.8665 H   0  0  0  0  0  0  0  0  0  0  0  0
   -0.9633   -0.9447   -0.5473 H   0  0  0  0  0  0  0  0  0  0  0  0
   -2.1144    0.5715    1.0417 H   0  0  0  0  0  0  0  0  0  0  0  0
   -2.4104    1.7293   -0.2775 H   0  0  0  0  0  0  0  0  0  0  0  0
   -3.4444   -0.7830   -1.0495 H   0  0  0  0  0  0  0  0  0  0  0  0
   -5.9874    2.3969    2.3124 H   0  0  0  0  0  0  0  0  0  0  0  0
   -5.5596   -1.9383   -1.5999 H   0  0  0  0  0  0  0  0  0  0  0  0
   -8.0543   -2.4437   -1.4685 H   0  0  0  0  0  0  0  0  0  0  0  0
    1.4299   -0.8248   -0.8154 H   0  0  0  0  0  0  0  0  0  0  0  0
    1.3117    0.3418   -2.1545 H   0  0  0  0  0  0  0  0  0  0  0  0
    3.7153    0.3773   -2.2714 H   0  0  0  0  0  0  0  0  0  0  0  0
    4.8257    2.2280   -1.0145 H   0  0  0  0  0  0  0  0  0  0  0  0
    4.2137    1.5180    1.2645 H   0  0  0  0  0  0  0  0  0  0  0  0
    5.2736   -0.4584    2.2856 H   0  0  0  0  0  0  0  0  0  0  0  0
    3.1224   -0.7733    1.1225 H   0  0  0  0  0  0  0  0  0  0  0  0
    5.0554   -3.0452    0.4811 H   0  0  0  0  0  0  0  0  0  0  0  0
    4.3406   -2.7496    2.0841 H   0  0  0  0  0  0  0  0  0  0  0  0
    3.0464   -4.2963    0.8041 H   0  0  0  0  0  0  0  0  0  0  0  0
    7.2453   -0.4653    0.9330 H   0  0  0  0  0  0  0  0  0  0  0  0
    6.2440    2.7554    1.0020 H   0  0  0  0  0  0  0  0  0  0  0  0
    6.1611    0.7176   -2.3001 H   0  0  0  0  0  0  0  0  0  0  0  0
  1  2  1  0  0  0  0
  2  3  1  0  0  0  0
  3  4  1  0  0  0  0
  4  5  1  0  0  0  0
  5  6  1  0  0  0  0
  6  7  2  0  0  0  0
  7  8  1  0  0  0  0
  8  9  2  0  0  0  0
  9 10  1  0  0  0  0
 10 11  2  0  0  0  0
  6 11  1  0  0  0  0
 11 12  1  0  0  0  0
 12 13  1  0  0  0  0
 13 14  2  0  0  0  0
 10 14  1  0  0  0  0
  2 15  1  0  0  0  0
 15 16  1  0  0  0  0
 16 17  1  0  0  0  0
 17 18  1  0  0  0  0
 18 19  1  0  0  0  0
 19 20  1  0  0  0  0
 20 21  1  0  0  0  0
 21 22  1  0  0  0  0
 17 22  1  0  0  0  0
 21 23  1  0  0  0  0
 23 24  1  0  0  0  0
 20 25  1  0  0  0  0
 19 26  1  0  0  0  0
 18 27  1  0  0  0  0
  1 28  1  0  0  0  0
  1 29  1  0  0  0  0
  1 30  1  0  0  0  0
  2 31  1  0  0  0  0
  3 32  1  0  0  0  0
  3 33  1  0  0  0  0
  4 34  1  0  0  0  0
  4 35  1  0  0  0  0
  5 36  1  0  0  0  0
  8 37  1  0  0  0  0
 12 38  1  0  0  0  0
 13 39  1  0  0  0  0
 15 40  1  0  0  0  0
 15 41  1  0  0  0  0
 17 42  1  0  0  0  0
 18 43  1  0  0  0  0
 19 44  1  0  0  0  0
 20 45  1  0  0  0  0
 21 46  1  0  0  0  0
 23 47  1  0  0  0  0
 23 48  1  0  0  0  0
 24 49  1  0  0  0  0
 25 50  1  0  0  0  0
 26 51  1  0  0  0  0
 27 52  1  0  0  0  0
M  END
$$$$
