C20H30O2
APtclcactv06211806273D 0   0.00000     0.00000
 
 52 55  0  0  0  0  0  0  0  0999 V2000
    0.8907    0.1412    1.5360 C   0  0  0  0  0  0  0  0  0  0  0  0
    0.4581    0.6773    0.1699 C   0  0  0  0  0  0  0  0  0  0  0  0
    0.9479    2.1226    0.0812 C   0  0  0  0  0  0  0  0  0  0  0  0
    2.4584    2.1576    0.3284 C   0  0  0  0  0  0  0  0  0  0  0  0
    3.1723    1.3014   -0.7189 C   0  0  0  0  0  0  0  0  0  0  0  0
    2.6721   -0.1429   -0.6333 C   0  0  0  0  0  0  0  0  0  0  0  0
    1.1637   -0.1681   -0.8858 C   0  0  0  0  0  0  0  0  0  0  0  0
    0.6382   -1.6030   -0.7572 C   0  0  0  0  0  0  0  0  0  0  0  0
   -0.8090   -1.6129   -1.2369 C   0  0  0  0  0  0  0  0  0  0  0  0
   -1.6825   -0.6295   -0.5031 C   0  0  0  0  0  0  0  0  0  0  0  0
   -1.0242    0.5720    0.1076 C   0  0  0  0  0  0  0  0  0  0  0  0
   -1.7497    1.8527   -0.2888 C   0  0  0  0  0  0  0  0  0  0  0  0
   -3.2215    1.7295    0.1372 C   0  0  0  0  0  0  0  0  0  0  0  0
   -3.8173    0.4617   -0.5006 C   0  0  0  0  0  0  0  0  0  0  0  0
   -2.7506   -0.0752   -1.4985 C   0  0  0  0  0  0  0  0  0  0  0  0
   -3.8813   -0.6131    0.5765 C   0  0  0  0  0  0  0  0  0  0  0  0
   -4.8985   -0.8683    1.3616 C   0  0  0  0  0  0  0  0  0  0  0  0
   -2.5515   -1.3325    0.5622 C   0  0  0  0  0  0  0  0  0  0  0  0
    3.3815   -0.9931   -1.6892 C   0  0  0  0  0  0  0  0  0  0  0  0
    2.9623   -0.6958    0.7383 C   0  0  0  0  0  0  0  0  0  0  0  0
    3.6052   -0.0456    1.5281 O   0  0  0  0  0  0  0  0  0  0  0  0
    2.5066   -1.9106    1.0824 O   0  0  0  0  0  0  0  0  0  0  0  0
    0.1755    0.4596    2.2944 H   0  0  0  0  0  0  0  0  0  0  0  0
    0.9262   -0.9478    1.5044 H   0  0  0  0  0  0  0  0  0  0  0  0
    1.8788    0.5299    1.7826 H   0  0  0  0  0  0  0  0  0  0  0  0
    0.7318    2.5202   -0.9104 H   0  0  0  0  0  0  0  0  0  0  0  0
    0.4414    2.7257    0.8348 H   0  0  0  0  0  0  0  0  0  0  0  0
    2.8135    3.1858    0.2595 H   0  0  0  0  0  0  0  0  0  0  0  0
    2.6722    1.7668    1.3233 H   0  0  0  0  0  0  0  0  0  0  0  0
    2.9664    1.6980   -1.7131 H   0  0  0  0  0  0  0  0  0  0  0  0
    4.2465    1.3246   -0.5353 H   0  0  0  0  0  0  0  0  0  0  0  0
    0.9503    0.2290   -1.8782 H   0  0  0  0  0  0  0  0  0  0  0  0
    1.2367   -2.2722   -1.3752 H   0  0  0  0  0  0  0  0  0  0  0  0
    0.6842   -1.9210    0.2844 H   0  0  0  0  0  0  0  0  0  0  0  0
   -0.8275   -1.3728   -2.2999 H   0  0  0  0  0  0  0  0  0  0  0  0
   -1.2169   -2.6144   -1.0993 H   0  0  0  0  0  0  0  0  0  0  0  0
   -1.2922    0.4849    1.1605 H   0  0  0  0  0  0  0  0  0  0  0  0
   -1.2924    2.7040    0.2155 H   0  0  0  0  0  0  0  0  0  0  0  0
   -1.6909    1.9879   -1.3688 H   0  0  0  0  0  0  0  0  0  0  0  0
   -3.2828    1.6558    1.2229 H   0  0  0  0  0  0  0  0  0  0  0  0
   -3.7750    2.6046   -0.2035 H   0  0  0  0  0  0  0  0  0  0  0  0
   -4.7806    0.6489   -0.9750 H   0  0  0  0  0  0  0  0  0  0  0  0
   -2.3478    0.7289   -2.1143 H   0  0  0  0  0  0  0  0  0  0  0  0
   -3.1573   -0.8757   -2.1165 H   0  0  0  0  0  0  0  0  0  0  0  0
   -5.8051   -0.2875    1.2768 H   0  0  0  0  0  0  0  0  0  0  0  0
   -4.8306   -1.6594    2.0936 H   0  0  0  0  0  0  0  0  0  0  0  0
   -2.6959   -2.3818    0.3047 H   0  0  0  0  0  0  0  0  0  0  0  0
   -2.0694   -1.2482    1.5362 H   0  0  0  0  0  0  0  0  0  0  0  0
    4.4567   -0.9703   -1.5116 H   0  0  0  0  0  0  0  0  0  0  0  0
    3.0248   -2.0212   -1.6275 H   0  0  0  0  0  0  0  0  0  0  0  0
    3.1684   -0.5934   -2.6806 H   0  0  0  0  0  0  0  0  0  0  0  0
    2.7181   -2.2227    1.9729 H   0  0  0  0  0  0  0  0  0  0  0  0
  1  2  1  0  0  0  0
  2  3  1  0  0  0  0
  3  4  1  0  0  0  0
  4  5  1  0  0  0  0
  5  6  1  0  0  0  0
  6  7  1  0  0  0  0
  2  7  1  0  0  0  0
  7  8  1  0  0  0  0
  8  9  1  0  0  0  0
  9 10  1  0  0  0  0
 10 11  1  0  0  0  0
  2 11  1  0  0  0  0
 11 12  1  0  0  0  0
 12 13  1  0  0  0  0
 13 14  1  0  0  0  0
 14 15  1  0  0  0  0
 10 15  1  0  0  0  0
 14 16  1  0  0  0  0
 16 17  2  0  0  0  0
 16 18  1  0  0  0  0
 10 18  1  0  0  0  0
  6 19  1  0  0  0  0
  6 20  1  0  0  0  0
 20 21  2  0  0  0  0
 20 22  1  0  0  0  0
  1 23  1  0  0  0  0
  1 24  1  0  0  0  0
  1 25  1  0  0  0  0
  3 26  1  0  0  0  0
  3 27  1  0  0  0  0
  4 28  1  0  0  0  0
  4 29  1  0  0  0  0
  5 30  1  0  0  0  0
  5 31  1  0  0  0  0
  7 32  1  0  0  0  0
  8 33  1  0  0  0  0
  8 34  1  0  0  0  0
  9 35  1  0  0  0  0
  9 36  1  0  0  0  0
 11 37  1  0  0  0  0
 12 38  1  0  0  0  0
 12 39  1  0  0  0  0
 13 40  1  0  0  0  0
 13 41  1  0  0  0  0
 14 42  1  0  0  0  0
 15 43  1  0  0  0  0
 15 44  1  0  0  0  0
 17 45  1  0  0  0  0
 17 46  1  0  0  0  0
 18 47  1  0  0  0  0
 18 48  1  0  0  0  0
 19 49  1  0  0  0  0
 19 50  1  0  0  0  0
 19 51  1  0  0  0  0
 22 52  1  0  0  0  0
M  END
$$$$
