C42H38O20
APtclcactv06211806273D 0   0.00000     0.00000
 
100107  0  0  0  0  0  0  0  0999 V2000
    1.5058    2.7812   -0.8235 C   0  0  0  0  0  0  0  0  0  0  0  0
    0.7980    1.5969   -0.9243 C   0  0  0  0  0  0  0  0  0  0  0  0
    1.3388    0.4101   -0.4612 C   0  0  0  0  0  0  0  0  0  0  0  0
    2.6161    0.4234    0.0997 C   0  0  0  0  0  0  0  0  0  0  0  0
    3.3316    1.6236    0.2053 C   0  0  0  0  0  0  0  0  0  0  0  0
    2.7662    2.8021   -0.2591 C   0  0  0  0  0  0  0  0  0  0  0  0
    4.5697    1.6332    0.7592 O   0  0  0  0  0  0  0  0  0  0  0  0
    5.2379    2.8942    0.8326 C   0  0  0  0  0  0  0  0  0  0  0  0
    6.5562    2.7299    1.5934 C   0  0  0  0  0  0  0  0  0  0  0  0
    7.4646    1.7666    0.8232 C   0  0  0  0  0  0  0  0  0  0  0  0
    7.6753    2.3050   -0.5952 C   0  0  0  0  0  0  0  0  0  0  0  0
    6.3138    2.4857   -1.2716 C   0  0  0  0  0  0  0  0  0  0  0  0
    5.5077    3.3682   -0.4883 O   0  0  0  0  0  0  0  0  0  0  0  0
    6.5123    3.0798   -2.6675 C   0  0  0  0  0  0  0  0  0  0  0  0
    5.2544    3.1402   -3.3427 O   0  0  0  0  0  0  0  0  0  0  0  0
    8.3485    3.5640   -0.5331 O   0  0  0  0  0  0  0  0  0  0  0  0
    8.7255    1.6642    1.4878 O   0  0  0  0  0  0  0  0  0  0  0  0
    7.1997    4.0001    1.7135 O   0  0  0  0  0  0  0  0  0  0  0  0
    3.2187   -0.8392    0.5719 C   0  0  0  0  0  0  0  0  0  0  0  0
    4.1748   -0.8365    1.3233 O   0  0  0  0  0  0  0  0  0  0  0  0
    2.6203   -2.1080    0.1010 C   0  0  0  0  0  0  0  0  0  0  0  0
    1.3380   -2.1017   -0.4483 C   0  0  0  0  0  0  0  0  0  0  0  0
    0.5282   -0.8458   -0.5654 C   0  0  0  0  0  0  0  0  0  0  0  0
   -0.5261   -0.8397    0.5433 C   0  0  0  0  0  0  0  0  0  0  0  0
   -1.3355    0.4159    0.4261 C   0  0  0  0  0  0  0  0  0  0  0  0
   -2.6193    0.4232   -0.1197 C   0  0  0  0  0  0  0  0  0  0  0  0
   -3.3380    1.6218   -0.2260 C   0  0  0  0  0  0  0  0  0  0  0  0
   -2.7686    2.8045    0.2225 C   0  0  0  0  0  0  0  0  0  0  0  0
   -1.5005    2.7901    0.7694 C   0  0  0  0  0  0  0  0  0  0  0  0
   -0.7898    1.6077    0.8708 C   0  0  0  0  0  0  0  0  0  0  0  0
   -4.5828    1.6253   -0.7646 O   0  0  0  0  0  0  0  0  0  0  0  0
   -5.2537    2.8848   -0.8398 C   0  0  0  0  0  0  0  0  0  0  0  0
   -6.5810    2.7127   -1.5829 C   0  0  0  0  0  0  0  0  0  0  0  0
   -7.4785    1.7543   -0.7940 C   0  0  0  0  0  0  0  0  0  0  0  0
   -7.6724    2.3037    0.6227 C   0  0  0  0  0  0  0  0  0  0  0  0
   -6.3029    2.4915    1.2807 C   0  0  0  0  0  0  0  0  0  0  0  0
   -5.5078    3.3689    0.4805 O   0  0  0  0  0  0  0  0  0  0  0  0
   -6.4850    3.0964    2.6742 C   0  0  0  0  0  0  0  0  0  0  0  0
   -5.2189    3.1639    3.3334 O   0  0  0  0  0  0  0  0  0  0  0  0
   -8.3481    3.5612    0.5589 O   0  0  0  0  0  0  0  0  0  0  0  0
   -8.7473    1.6449   -1.4421 O   0  0  0  0  0  0  0  0  0  0  0  0
   -7.2278    3.9811   -1.7051 O   0  0  0  0  0  0  0  0  0  0  0  0
   -3.2270   -0.8433   -0.5742 C   0  0  0  0  0  0  0  0  0  0  0  0
   -4.1921   -0.8471   -1.3140 O   0  0  0  0  0  0  0  0  0  0  0  0
   -2.6224   -2.1081   -0.0999 C   0  0  0  0  0  0  0  0  0  0  0  0
   -1.3361   -2.0965    0.4396 C   0  0  0  0  0  0  0  0  0  0  0  0
   -0.7844   -3.2826    0.8886 C   0  0  0  0  0  0  0  0  0  0  0  0
   -1.4995   -4.4770    0.7965 C   0  0  0  0  0  0  0  0  0  0  0  0
   -2.7825   -4.4882    0.2518 C   0  0  0  0  0  0  0  0  0  0  0  0
   -3.3457   -3.3041   -0.1961 C   0  0  0  0  0  0  0  0  0  0  0  0
   -4.5944   -3.3028   -0.7265 O   0  0  0  0  0  0  0  0  0  0  0  0
   -0.8935   -5.7372    1.2795 C   0  0  0  0  0  0  0  0  0  0  0  0
    0.2240   -5.7305    1.7549 O   0  0  0  0  0  0  0  0  0  0  0  0
   -1.5812   -6.8920    1.1920 O   0  0  0  0  0  0  0  0  0  0  0  0
    0.7916   -3.2908   -0.8949 C   0  0  0  0  0  0  0  0  0  0  0  0
    1.5081   -4.4833   -0.7918 C   0  0  0  0  0  0  0  0  0  0  0  0
    2.7867   -4.4896   -0.2368 C   0  0  0  0  0  0  0  0  0  0  0  0
    3.3443   -3.3022    0.2097 C   0  0  0  0  0  0  0  0  0  0  0  0
    4.5887   -3.2962    0.7501 O   0  0  0  0  0  0  0  0  0  0  0  0
    0.9080   -5.7470   -1.2732 C   0  0  0  0  0  0  0  0  0  0  0  0
   -0.2059   -5.7446   -1.7569 O   0  0  0  0  0  0  0  0  0  0  0  0
    1.5971   -6.9001   -1.1751 O   0  0  0  0  0  0  0  0  0  0  0  0
    1.0704    3.6976   -1.1936 H   0  0  0  0  0  0  0  0  0  0  0  0
   -0.1864    1.5985   -1.3685 H   0  0  0  0  0  0  0  0  0  0  0  0
    3.3096    3.7321   -0.1800 H   0  0  0  0  0  0  0  0  0  0  0  0
    4.6042    3.6115    1.3541 H   0  0  0  0  0  0  0  0  0  0  0  0
    6.3560    2.3266    2.5861 H   0  0  0  0  0  0  0  0  0  0  0  0
    6.9958    0.7838    0.7743 H   0  0  0  0  0  0  0  0  0  0  0  0
    8.2754    1.5978   -1.1678 H   0  0  0  0  0  0  0  0  0  0  0  0
    5.8182    1.5185   -1.3551 H   0  0  0  0  0  0  0  0  0  0  0  0
    6.9260    4.0843   -2.5793 H   0  0  0  0  0  0  0  0  0  0  0  0
    7.1995    2.4523   -3.2350 H   0  0  0  0  0  0  0  0  0  0  0  0
    5.3046    3.5075   -4.2359 H   0  0  0  0  0  0  0  0  0  0  0  0
    9.2177    3.5248   -0.1113 H   0  0  0  0  0  0  0  0  0  0  0  0
    8.6662    1.3354    2.3953 H   0  0  0  0  0  0  0  0  0  0  0  0
    6.6779    4.6622    2.1874 H   0  0  0  0  0  0  0  0  0  0  0  0
    0.0164   -0.8505   -1.5277 H   0  0  0  0  0  0  0  0  0  0  0  0
   -0.0161   -0.8358    1.5066 H   0  0  0  0  0  0  0  0  0  0  0  0
   -3.3150    3.7329    0.1446 H   0  0  0  0  0  0  0  0  0  0  0  0
   -1.0594    3.7110    1.1214 H   0  0  0  0  0  0  0  0  0  0  0  0
    0.2005    1.6144    1.3016 H   0  0  0  0  0  0  0  0  0  0  0  0
   -4.6275    3.5988   -1.3747 H   0  0  0  0  0  0  0  0  0  0  0  0
   -6.3925    2.3018   -2.5748 H   0  0  0  0  0  0  0  0  0  0  0  0
   -7.0077    0.7726   -0.7431 H   0  0  0  0  0  0  0  0  0  0  0  0
   -8.2644    1.6003    1.2083 H   0  0  0  0  0  0  0  0  0  0  0  0
   -5.8049    1.5257    1.3657 H   0  0  0  0  0  0  0  0  0  0  0  0
   -6.9012    4.0997    2.5832 H   0  0  0  0  0  0  0  0  0  0  0  0
   -7.1643    2.4726    3.2551 H   0  0  0  0  0  0  0  0  0  0  0  0
   -5.2587    3.5382    4.2241 H   0  0  0  0  0  0  0  0  0  0  0  0
   -9.2224    3.5175    0.1482 H   0  0  0  0  0  0  0  0  0  0  0  0
   -8.6988    1.3090   -2.3476 H   0  0  0  0  0  0  0  0  0  0  0  0
   -6.7128    4.6400   -2.1906 H   0  0  0  0  0  0  0  0  0  0  0  0
    0.2084   -3.2843    1.3138 H   0  0  0  0  0  0  0  0  0  0  0  0
   -3.3341   -5.4139    0.1793 H   0  0  0  0  0  0  0  0  0  0  0  0
   -5.2972   -3.1610   -0.0776 H   0  0  0  0  0  0  0  0  0  0  0  0
   -1.1438   -7.6894    1.5207 H   0  0  0  0  0  0  0  0  0  0  0  0
   -0.1982   -3.2964   -1.3269 H   0  0  0  0  0  0  0  0  0  0  0  0
    3.3389   -5.4141   -0.1544 H   0  0  0  0  0  0  0  0  0  0  0  0
    5.2965   -3.1565    0.1063 H   0  0  0  0  0  0  0  0  0  0  0  0
    1.1637   -7.6998   -1.5031 H   0  0  0  0  0  0  0  0  0  0  0  0
  1  2  2  0  0  0  0
  2  3  1  0  0  0  0
  3  4  2  0  0  0  0
  4  5  1  0  0  0  0
  5  6  2  0  0  0  0
  1  6  1  0  0  0  0
  5  7  1  0  0  0  0
  7  8  1  0  0  0  0
  8  9  1  0  0  0  0
  9 10  1  0  0  0  0
 10 11  1  0  0  0  0
 11 12  1  0  0  0  0
 12 13  1  0  0  0  0
  8 13  1  0  0  0  0
 12 14  1  0  0  0  0
 14 15  1  0  0  0  0
 11 16  1  0  0  0  0
 10 17  1  0  0  0  0
  9 18  1  0  0  0  0
  4 19  1  0  0  0  0
 19 20  2  0  0  0  0
 19 21  1  0  0  0  0
 21 22  2  0  0  0  0
 22 23  1  0  0  0  0
  3 23  1  0  0  0  0
 23 24  1  0  0  0  0
 24 25  1  0  0  0  0
 25 26  2  0  0  0  0
 26 27  1  0  0  0  0
 27 28  2  0  0  0  0
 28 29  1  0  0  0  0
 29 30  2  0  0  0  0
 25 30  1  0  0  0  0
 27 31  1  0  0  0  0
 31 32  1  0  0  0  0
 32 33  1  0  0  0  0
 33 34  1  0  0  0  0
 34 35  1  0  0  0  0
 35 36  1  0  0  0  0
 36 37  1  0  0  0  0
 32 37  1  0  0  0  0
 36 38  1  0  0  0  0
 38 39  1  0  0  0  0
 35 40  1  0  0  0  0
 34 41  1  0  0  0  0
 33 42  1  0  0  0  0
 26 43  1  0  0  0  0
 43 44  2  0  0  0  0
 43 45  1  0  0  0  0
 45 46  2  0  0  0  0
 24 46  1  0  0  0  0
 46 47  1  0  0  0  0
 47 48  2  0  0  0  0
 48 49  1  0  0  0  0
 49 50  2  0  0  0  0
 45 50  1  0  0  0  0
 50 51  1  0  0  0  0
 48 52  1  0  0  0  0
 52 53  2  0  0  0  0
 52 54  1  0  0  0  0
 22 55  1  0  0  0  0
 55 56  2  0  0  0  0
 56 57  1  0  0  0  0
 57 58  2  0  0  0  0
 21 58  1  0  0  0  0
 58 59  1  0  0  0  0
 56 60  1  0  0  0  0
 60 61  2  0  0  0  0
 60 62  1  0  0  0  0
  1 63  1  0  0  0  0
  2 64  1  0  0  0  0
  6 65  1  0  0  0  0
  8 66  1  0  0  0  0
  9 67  1  0  0  0  0
 10 68  1  0  0  0  0
 11 69  1  0  0  0  0
 12 70  1  0  0  0  0
 14 71  1  0  0  0  0
 14 72  1  0  0  0  0
 15 73  1  0  0  0  0
 16 74  1  0  0  0  0
 17 75  1  0  0  0  0
 18 76  1  0  0  0  0
 23 77  1  0  0  0  0
 24 78  1  0  0  0  0
 28 79  1  0  0  0  0
 29 80  1  0  0  0  0
 30 81  1  0  0  0  0
 32 82  1  0  0  0  0
 33 83  1  0  0  0  0
 34 84  1  0  0  0  0
 35 85  1  0  0  0  0
 36 86  1  0  0  0  0
 38 87  1  0  0  0  0
 38 88  1  0  0  0  0
 39 89  1  0  0  0  0
 40 90  1  0  0  0  0
 41 91  1  0  0  0  0
 42 92  1  0  0  0  0
 47 93  1  0  0  0  0
 49 94  1  0  0  0  0
 51 95  1  0  0  0  0
 54 96  1  0  0  0  0
 55 97  1  0  0  0  0
 57 98  1  0  0  0  0
 59 99  1  0  0  0  0
 62100  1  0  0  0  0
M  END
$$$$
