C20H24O9
APtclcactv06211806273D 0   0.00000     0.00000
 
 53 56  0  0  0  0  0  0  0  0999 V2000
    2.0968    2.6363   -0.1856 C   0  0  0  0  0  0  0  0  0  0  0  0
    1.2335    1.9008    0.8413 C   0  0  0  0  0  0  0  0  0  0  0  0
    1.4758    2.4948    2.2303 C   0  0  0  0  0  0  0  0  0  0  0  0
   -0.2429    2.0555    0.4709 C   0  0  0  0  0  0  0  0  0  0  0  0
   -0.5438    1.3647   -0.8800 C   0  0  0  0  0  0  0  0  0  0  0  0
   -1.9377    0.8133   -0.6457 C   0  0  0  0  0  0  0  0  0  0  0  0
   -2.1614    0.8449    0.7317 C   0  0  0  0  0  0  0  0  0  0  0  0
   -1.0770    1.3342    1.3925 O   0  0  0  0  0  0  0  0  0  0  0  0
   -3.3790    0.4005    1.2376 C   0  0  0  0  0  0  0  0  0  0  0  0
   -4.3580   -0.0736    0.3807 C   0  0  0  0  0  0  0  0  0  0  0  0
   -4.1131   -0.1035   -1.0050 C   0  0  0  0  0  0  0  0  0  0  0  0
   -2.8860    0.3480   -1.5042 C   0  0  0  0  0  0  0  0  0  0  0  0
   -5.1544   -0.6089   -1.9012 C   0  0  0  0  0  0  0  0  0  0  0  0
   -6.3238   -1.0300   -1.3525 C   0  0  0  0  0  0  0  0  0  0  0  0
   -6.5032   -0.9710    0.0449 C   0  0  0  0  0  0  0  0  0  0  0  0
   -7.5565   -1.3512    0.5240 O   0  0  0  0  0  0  0  0  0  0  0  0
   -5.5442   -0.5065    0.8607 O   0  0  0  0  0  0  0  0  0  0  0  0
    1.5798    0.5144    0.8492 O   0  0  0  0  0  0  0  0  0  0  0  0
    2.9590    0.2614    1.1248 C   0  0  0  0  0  0  0  0  0  0  0  0
    3.1439   -1.2129    1.4934 C   0  0  0  0  0  0  0  0  0  0  0  0
    2.7410   -2.0841    0.2996 C   0  0  0  0  0  0  0  0  0  0  0  0
    3.5773   -1.6801   -0.9184 C   0  0  0  0  0  0  0  0  0  0  0  0
    3.3757   -0.1878   -1.1939 C   0  0  0  0  0  0  0  0  0  0  0  0
    3.7396    0.5629   -0.0336 O   0  0  0  0  0  0  0  0  0  0  0  0
    4.2542    0.2368   -2.3725 C   0  0  0  0  0  0  0  0  0  0  0  0
    3.9803    1.5995   -2.7041 O   0  0  0  0  0  0  0  0  0  0  0  0
    4.9586   -1.9348   -0.6550 O   0  0  0  0  0  0  0  0  0  0  0  0
    2.9796   -3.4587    0.6088 O   0  0  0  0  0  0  0  0  0  0  0  0
    4.5136   -1.4552    1.8207 O   0  0  0  0  0  0  0  0  0  0  0  0
    3.1353    2.6354    0.1454 H   0  0  0  0  0  0  0  0  0  0  0  0
    2.0224    2.1333   -1.1498 H   0  0  0  0  0  0  0  0  0  0  0  0
    1.7478    3.6642   -0.2842 H   0  0  0  0  0  0  0  0  0  0  0  0
    1.1049    3.5195    2.2570 H   0  0  0  0  0  0  0  0  0  0  0  0
    0.9510    1.8989    2.9770 H   0  0  0  0  0  0  0  0  0  0  0  0
    2.5441    2.4894    2.4465 H   0  0  0  0  0  0  0  0  0  0  0  0
   -0.5222    3.1086    0.4364 H   0  0  0  0  0  0  0  0  0  0  0  0
   -0.5427    2.0873   -1.6960 H   0  0  0  0  0  0  0  0  0  0  0  0
    0.1660    0.5603   -1.0729 H   0  0  0  0  0  0  0  0  0  0  0  0
   -3.5613    0.4257    2.3018 H   0  0  0  0  0  0  0  0  0  0  0  0
   -2.6922    0.3273   -2.5664 H   0  0  0  0  0  0  0  0  0  0  0  0
   -4.9974   -0.6463   -2.9690 H   0  0  0  0  0  0  0  0  0  0  0  0
   -7.1136   -1.4084   -1.9846 H   0  0  0  0  0  0  0  0  0  0  0  0
    3.2845    0.8874    1.9556 H   0  0  0  0  0  0  0  0  0  0  0  0
    2.5152   -1.4558    2.3501 H   0  0  0  0  0  0  0  0  0  0  0  0
    1.6834   -1.9365    0.0810 H   0  0  0  0  0  0  0  0  0  0  0  0
    3.2587   -2.2571   -1.7866 H   0  0  0  0  0  0  0  0  0  0  0  0
    2.3292   -0.0006   -1.4345 H   0  0  0  0  0  0  0  0  0  0  0  0
    5.3042    0.1334   -2.0987 H   0  0  0  0  0  0  0  0  0  0  0  0
    4.0390   -0.3969   -3.2328 H   0  0  0  0  0  0  0  0  0  0  0  0
    4.5028    1.9367   -3.4446 H   0  0  0  0  0  0  0  0  0  0  0  0
    5.1587   -2.8620   -0.4669 H   0  0  0  0  0  0  0  0  0  0  0  0
    2.4863   -3.7807    1.3756 H   0  0  0  0  0  0  0  0  0  0  0  0
    4.8383   -0.9323    2.5665 H   0  0  0  0  0  0  0  0  0  0  0  0
  1  2  1  0  0  0  0
  2  3  1  0  0  0  0
  2  4  1  0  0  0  0
  4  5  1  0  0  0  0
  5  6  1  0  0  0  0
  6  7  2  0  0  0  0
  7  8  1  0  0  0  0
  4  8  1  0  0  0  0
  7  9  1  0  0  0  0
  9 10  2  0  0  0  0
 10 11  1  0  0  0  0
 11 12  2  0  0  0  0
  6 12  1  0  0  0  0
 11 13  1  0  0  0  0
 13 14  2  0  0  0  0
 14 15  1  0  0  0  0
 15 16  2  0  0  0  0
 15 17  1  0  0  0  0
 10 17  1  0  0  0  0
  2 18  1  0  0  0  0
 18 19  1  0  0  0  0
 19 20  1  0  0  0  0
 20 21  1  0  0  0  0
 21 22  1  0  0  0  0
 22 23  1  0  0  0  0
 23 24  1  0  0  0  0
 19 24  1  0  0  0  0
 23 25  1  0  0  0  0
 25 26  1  0  0  0  0
 22 27  1  0  0  0  0
 21 28  1  0  0  0  0
 20 29  1  0  0  0  0
  1 30  1  0  0  0  0
  1 31  1  0  0  0  0
  1 32  1  0  0  0  0
  3 33  1  0  0  0  0
  3 34  1  0  0  0  0
  3 35  1  0  0  0  0
  4 36  1  0  0  0  0
  5 37  1  0  0  0  0
  5 38  1  0  0  0  0
  9 39  1  0  0  0  0
 12 40  1  0  0  0  0
 13 41  1  0  0  0  0
 14 42  1  0  0  0  0
 19 43  1  0  0  0  0
 20 44  1  0  0  0  0
 21 45  1  0  0  0  0
 22 46  1  0  0  0  0
 23 47  1  0  0  0  0
 25 48  1  0  0  0  0
 25 49  1  0  0  0  0
 26 50  1  0  0  0  0
 27 51  1  0  0  0  0
 28 52  1  0  0  0  0
 29 53  1  0  0  0  0
M  END
$$$$
