C4H4N2O3
APtclcactv06211806273D 0   0.00000     0.00000
 
 13 13  0  0  0  0  0  0  0  0999 V2000
   -0.2073    1.5329    0.0000 C   0  0  0  0  0  0  0  0  0  0  0  0
   -1.1182    0.5340   -0.0000 C   0  0  0  0  0  0  0  0  0  0  0  0
   -0.6657   -0.8114    0.0001 C   0  0  0  0  0  0  0  0  0  0  0  0
   -1.4664   -1.7291   -0.0004 O   0  0  0  0  0  0  0  0  0  0  0  0
    0.6587   -1.0641    0.0002 N   0  0  0  0  0  0  0  0  0  0  0  0
    1.5441   -0.0506    0.0002 C   0  0  0  0  0  0  0  0  0  0  0  0
    2.7352   -0.2961   -0.0001 O   0  0  0  0  0  0  0  0  0  0  0  0
    1.1316    1.2299    0.0001 N   0  0  0  0  0  0  0  0  0  0  0  0
   -2.4511    0.8145    0.0003 O   0  0  0  0  0  0  0  0  0  0  0  0
   -0.5310    2.5633   -0.0045 H   0  0  0  0  0  0  0  0  0  0  0  0
    0.9749   -1.9811    0.0006 H   0  0  0  0  0  0  0  0  0  0  0  0
    1.7863    1.9456   -0.0002 H   0  0  0  0  0  0  0  0  0  0  0  0
   -3.0179    0.0310    0.0003 H   0  0  0  0  0  0  0  0  0  0  0  0
  1  2  2  0  0  0  0
  2  3  1  0  0  0  0
  3  4  2  0  0  0  0
  3  5  1  0  0  0  0
  5  6  1  0  0  0  0
  6  7  2  0  0  0  0
  6  8  1  0  0  0  0
  1  8  1  0  0  0  0
  2  9  1  0  0  0  0
  1 10  1  0  0  0  0
  5 11  1  0  0  0  0
  8 12  1  0  0  0  0
  9 13  1  0  0  0  0
M  END
$$$$
