C18H21NO5
APtclcactv06211806273D 0   0.00000     0.00000
 
 45 49  0  0  0  0  0  0  0  0999 V2000
    2.9288    2.0975   -1.9080 C   0  0  0  0  0  0  0  0  0  0  0  0
    2.6230    1.4046   -0.6493 N   0  0  0  0  0  0  0  0  0  0  0  0
    2.2786    2.3675    0.4142 C   0  0  0  0  0  0  0  0  0  0  0  0
    0.8678    1.9992    0.9282 C   0  0  0  0  0  0  0  0  0  0  0  0
    0.7085    0.5272    0.4979 C   0  0  0  0  0  0  0  0  0  0  0  0
    1.4930    0.4743   -0.8197 C   0  0  0  0  0  0  0  0  0  0  0  0
    1.9906   -0.9379   -1.0985 C   0  0  0  0  0  0  0  0  0  0  0  0
    2.9567   -1.3687    0.0061 C   0  0  0  0  0  0  0  0  0  0  0  0
    2.3024   -1.1745    1.3442 C   0  0  0  0  0  0  0  0  0  0  0  0
    1.3286   -0.3484    1.5432 C   0  0  0  0  0  0  0  0  0  0  0  0
    3.2922   -2.7472   -0.1650 O   0  0  0  0  0  0  0  0  0  0  0  0
    4.5980   -3.0900    0.3034 C   0  0  0  0  0  0  0  0  0  0  0  0
   -0.7276    0.1514    0.2793 C   0  0  0  0  0  0  0  0  0  0  0  0
   -1.0056   -1.1962    0.0388 C   0  0  0  0  0  0  0  0  0  0  0  0
   -2.3257   -1.5614   -0.1661 C   0  0  0  0  0  0  0  0  0  0  0  0
   -3.3532   -0.6064   -0.1314 C   0  0  0  0  0  0  0  0  0  0  0  0
   -3.0725    0.7293    0.1086 C   0  0  0  0  0  0  0  0  0  0  0  0
   -1.7416    1.0853    0.3110 C   0  0  0  0  0  0  0  0  0  0  0  0
   -1.4371    2.5411    0.5677 C   0  0  0  0  0  0  0  0  0  0  0  0
   -0.0791    2.8082    0.2281 O   0  0  0  0  0  0  0  0  0  0  0  0
   -2.2968    3.3559   -0.2318 O   0  0  0  0  0  0  0  0  0  0  0  0
   -4.5329   -1.2259   -0.3602 O   0  0  0  0  0  0  0  0  0  0  0  0
   -4.2784   -2.6305   -0.1501 C   0  0  0  0  0  0  0  0  0  0  0  0
   -2.8679   -2.7747   -0.4175 O   0  0  0  0  0  0  0  0  0  0  0  0
    3.7728    2.7704   -1.7566 H   0  0  0  0  0  0  0  0  0  0  0  0
    3.1815    1.3645   -2.6742 H   0  0  0  0  0  0  0  0  0  0  0  0
    2.0590    2.6717   -2.2273 H   0  0  0  0  0  0  0  0  0  0  0  0
    3.0002    2.2949    1.2279 H   0  0  0  0  0  0  0  0  0  0  0  0
    2.2732    3.3798    0.0101 H   0  0  0  0  0  0  0  0  0  0  0  0
    0.7905    2.1128    2.0095 H   0  0  0  0  0  0  0  0  0  0  0  0
    0.8590    0.8107   -1.6400 H   0  0  0  0  0  0  0  0  0  0  0  0
    1.1429   -1.6225   -1.1266 H   0  0  0  0  0  0  0  0  0  0  0  0
    2.5052   -0.9584   -2.0592 H   0  0  0  0  0  0  0  0  0  0  0  0
    3.8624   -0.7645   -0.0470 H   0  0  0  0  0  0  0  0  0  0  0  0
    2.6636   -1.7536    2.1813 H   0  0  0  0  0  0  0  0  0  0  0  0
    0.9295   -0.2840    2.5447 H   0  0  0  0  0  0  0  0  0  0  0  0
    4.7760   -4.1526    0.1379 H   0  0  0  0  0  0  0  0  0  0  0  0
    5.3430   -2.5080   -0.2392 H   0  0  0  0  0  0  0  0  0  0  0  0
    4.6711   -2.8710    1.3686 H   0  0  0  0  0  0  0  0  0  0  0  0
   -0.2148   -1.9313    0.0132 H   0  0  0  0  0  0  0  0  0  0  0  0
   -3.8590    1.4689    0.1369 H   0  0  0  0  0  0  0  0  0  0  0  0
   -1.5998    2.7661    1.6217 H   0  0  0  0  0  0  0  0  0  0  0  0
   -2.1564    4.3058   -0.1177 H   0  0  0  0  0  0  0  0  0  0  0  0
   -4.5025   -2.9094    0.8795 H   0  0  0  0  0  0  0  0  0  0  0  0
   -4.8626   -3.2328   -0.8458 H   0  0  0  0  0  0  0  0  0  0  0  0
  1  2  1  0  0  0  0
  2  3  1  0  0  0  0
  3  4  1  0  0  0  0
  4  5  1  0  0  0  0
  5  6  1  0  0  0  0
  2  6  1  0  0  0  0
  6  7  1  0  0  0  0
  7  8  1  0  0  0  0
  8  9  1  0  0  0  0
  9 10  2  0  0  0  0
  5 10  1  0  0  0  0
  8 11  1  0  0  0  0
 11 12  1  0  0  0  0
  5 13  1  0  0  0  0
 13 14  2  0  0  0  0
 14 15  1  0  0  0  0
 15 16  2  0  0  0  0
 16 17  1  0  0  0  0
 17 18  2  0  0  0  0
 13 18  1  0  0  0  0
 18 19  1  0  0  0  0
 19 20  1  0  0  0  0
  4 20  1  0  0  0  0
 19 21  1  0  0  0  0
 16 22  1  0  0  0  0
 22 23  1  0  0  0  0
 23 24  1  0  0  0  0
 15 24  1  0  0  0  0
  1 25  1  0  0  0  0
  1 26  1  0  0  0  0
  1 27  1  0  0  0  0
  3 28  1  0  0  0  0
  3 29  1  0  0  0  0
  4 30  1  0  0  0  0
  6 31  1  0  0  0  0
  7 32  1  0  0  0  0
  7 33  1  0  0  0  0
  8 34  1  0  0  0  0
  9 35  1  0  0  0  0
 10 36  1  0  0  0  0
 12 37  1  0  0  0  0
 12 38  1  0  0  0  0
 12 39  1  0  0  0  0
 14 40  1  0  0  0  0
 17 41  1  0  0  0  0
 19 42  1  0  0  0  0
 21 43  1  0  0  0  0
 23 44  1  0  0  0  0
 23 45  1  0  0  0  0
M  END
$$$$
