C8H16O2
APtclcactv06211804403D 0   0.00000     0.00000
 
 26 25  0  0  0  0  0  0  0  0999 V2000
    2.7664   -1.0459   -1.0566 C   0  0  0  0  0  0  0  0  0  0  0  0
    2.5448   -0.3173    0.2704 C   0  0  0  0  0  0  0  0  0  0  0  0
    3.7592    0.5608    0.5790 C   0  0  0  0  0  0  0  0  0  0  0  0
    1.2946    0.5587    0.1687 C   0  0  0  0  0  0  0  0  0  0  0  0
    0.1256   -0.2846   -0.0063 O   0  0  0  0  0  0  0  0  0  0  0  0
   -1.0611    0.3335   -0.1132 C   0  0  0  0  0  0  0  0  0  0  0  0
   -1.1212    1.5391   -0.0621 O   0  0  0  0  0  0  0  0  0  0  0  0
   -2.3186   -0.4765   -0.2967 C   0  0  0  0  0  0  0  0  0  0  0  0
   -2.4980   -1.4174    0.8963 C   0  0  0  0  0  0  0  0  0  0  0  0
   -3.5219    0.4639   -0.3900 C   0  0  0  0  0  0  0  0  0  0  0  0
    3.6571   -1.6701   -0.9841 H   0  0  0  0  0  0  0  0  0  0  0  0
    1.9013   -1.6715   -1.2764 H   0  0  0  0  0  0  0  0  0  0  0  0
    2.8986   -0.3153   -1.8546 H   0  0  0  0  0  0  0  0  0  0  0  0
    2.4126   -1.0479    1.0684 H   0  0  0  0  0  0  0  0  0  0  0  0
    3.8914    1.2914   -0.2190 H   0  0  0  0  0  0  0  0  0  0  0  0
    3.6013    1.0799    1.5244 H   0  0  0  0  0  0  0  0  0  0  0  0
    4.6499   -0.0633    0.6515 H   0  0  0  0  0  0  0  0  0  0  0  0
    1.1864    1.1449    1.0813 H   0  0  0  0  0  0  0  0  0  0  0  0
    1.3896    1.2298   -0.6850 H   0  0  0  0  0  0  0  0  0  0  0  0
   -2.2432   -1.0620   -1.2131 H   0  0  0  0  0  0  0  0  0  0  0  0
   -2.5734   -0.8320    1.8127 H   0  0  0  0  0  0  0  0  0  0  0  0
   -3.4075   -2.0032    0.7635 H   0  0  0  0  0  0  0  0  0  0  0  0
   -1.6407   -2.0874    0.9628 H   0  0  0  0  0  0  0  0  0  0  0  0
   -3.3942    1.1342   -1.2400 H   0  0  0  0  0  0  0  0  0  0  0  0
   -4.4315   -0.1219   -0.5228 H   0  0  0  0  0  0  0  0  0  0  0  0
   -3.5974    1.0493    0.5263 H   0  0  0  0  0  0  0  0  0  0  0  0
  1  2  1  0  0  0  0
  2  3  1  0  0  0  0
  2  4  1  0  0  0  0
  4  5  1  0  0  0  0
  5  6  1  0  0  0  0
  6  7  2  0  0  0  0
  6  8  1  0  0  0  0
  8  9  1  0  0  0  0
  8 10  1  0  0  0  0
  1 11  1  0  0  0  0
  1 12  1  0  0  0  0
  1 13  1  0  0  0  0
  2 14  1  0  0  0  0
  3 15  1  0  0  0  0
  3 16  1  0  0  0  0
  3 17  1  0  0  0  0
  4 18  1  0  0  0  0
  4 19  1  0  0  0  0
  8 20  1  0  0  0  0
  9 21  1  0  0  0  0
  9 22  1  0  0  0  0
  9 23  1  0  0  0  0
 10 24  1  0  0  0  0
 10 25  1  0  0  0  0
 10 26  1  0  0  0  0
M  END
$$$$
