C5H6O2
APtclcactv06211804403D 0   0.00000     0.00000
 
 13 13  0  0  0  0  0  0  0  0999 V2000
   -1.8875    0.6996    0.1919 C   0  0  0  0  0  0  0  0  0  0  0  0
   -1.8636   -0.6452    0.1793 C   0  0  0  0  0  0  0  0  0  0  0  0
   -0.6122   -1.0448   -0.0998 O   0  0  0  0  0  0  0  0  0  0  0  0
    0.1744    0.0307   -0.2679 C   0  0  0  0  0  0  0  0  0  0  0  0
   -0.5738    1.1354   -0.0963 C   0  0  0  0  0  0  0  0  0  0  0  0
    1.6457    0.0045   -0.5928 C   0  0  0  0  0  0  0  0  0  0  0  0
    2.4011   -0.0111    0.6202 O   0  0  0  0  0  0  0  0  0  0  0  0
   -2.7465    1.3263    0.3813 H   0  0  0  0  0  0  0  0  0  0  0  0
   -2.7075   -1.2937    0.3630 H   0  0  0  0  0  0  0  0  0  0  0  0
   -0.2357    2.1588   -0.1655 H   0  0  0  0  0  0  0  0  0  0  0  0
    1.8735   -0.8889   -1.1742 H   0  0  0  0  0  0  0  0  0  0  0  0
    1.9059    0.8908   -1.1715 H   0  0  0  0  0  0  0  0  0  0  0  0
    3.3587   -0.0283    0.4869 H   0  0  0  0  0  0  0  0  0  0  0  0
  1  2  2  0  0  0  0
  2  3  1  0  0  0  0
  3  4  1  0  0  0  0
  4  5  2  0  0  0  0
  1  5  1  0  0  0  0
  4  6  1  0  0  0  0
  6  7  1  0  0  0  0
  1  8  1  0  0  0  0
  2  9  1  0  0  0  0
  5 10  1  0  0  0  0
  6 11  1  0  0  0  0
  6 12  1  0  0  0  0
  7 13  1  0  0  0  0
M  END
$$$$
