C8H10N2S
APtclcactv06281816283D 0   0.00000     0.00000
 
 21 21  0  0  0  0  0  0  0  0999 V2000
   -3.9134   -0.2509   -0.0008 C   0  0  0  0  0  0  0  0  0  0  0  0
   -3.2379   -0.1086    1.1968 C   0  0  0  0  0  0  0  0  0  0  0  0
   -1.8872    0.1856    1.1978 C   0  0  0  0  0  0  0  0  0  0  0  0
   -1.2120    0.3370    0.0011 C   0  0  0  0  0  0  0  0  0  0  0  0
   -1.8873    0.1938   -1.1965 C   0  0  0  0  0  0  0  0  0  0  0  0
   -3.2383   -0.0990   -1.1974 C   0  0  0  0  0  0  0  0  0  0  0  0
    0.2603    0.6587    0.0021 C   0  0  0  0  0  0  0  0  0  0  0  0
    1.0322   -0.5864   -0.0019 N   0  0  0  0  0  0  0  0  0  0  0  0
    2.3793   -0.5442   -0.0018 C   0  0  0  0  0  0  0  0  0  0  0  0
    3.1884    0.9646    0.0031 S   0  0  0  0  0  0  0  0  0  0  0  0
    3.0895   -1.6897   -0.0055 N   0  0  0  0  0  0  0  0  0  0  0  0
   -4.9677   -0.4852   -0.0015 H   0  0  0  0  0  0  0  0  0  0  0  0
   -3.7654   -0.2269    2.1318 H   0  0  0  0  0  0  0  0  0  0  0  0
   -1.3596    0.2975    2.1334 H   0  0  0  0  0  0  0  0  0  0  0  0
   -1.3599    0.3128   -2.1315 H   0  0  0  0  0  0  0  0  0  0  0  0
   -3.7660   -0.2106   -2.1331 H   0  0  0  0  0  0  0  0  0  0  0  0
    0.5056    1.2411   -0.8860 H   0  0  0  0  0  0  0  0  0  0  0  0
    0.5056    1.2354    0.8940 H   0  0  0  0  0  0  0  0  0  0  0  0
    0.5738   -1.4413   -0.0047 H   0  0  0  0  0  0  0  0  0  0  0  0
    2.6310   -2.5445   -0.0082 H   0  0  0  0  0  0  0  0  0  0  0  0
    4.0590   -1.6592   -0.0054 H   0  0  0  0  0  0  0  0  0  0  0  0
  1  2  2  0  0  0  0
  2  3  1  0  0  0  0
  3  4  2  0  0  0  0
  4  5  1  0  0  0  0
  5  6  2  0  0  0  0
  1  6  1  0  0  0  0
  4  7  1  0  0  0  0
  7  8  1  0  0  0  0
  8  9  1  0  0  0  0
  9 10  2  0  0  0  0
  9 11  1  0  0  0  0
  1 12  1  0  0  0  0
  2 13  1  0  0  0  0
  3 14  1  0  0  0  0
  5 15  1  0  0  0  0
  6 16  1  0  0  0  0
  7 17  1  0  0  0  0
  7 18  1  0  0  0  0
  8 19  1  0  0  0  0
 11 20  1  0  0  0  0
 11 21  1  0  0  0  0
M  END
$$$$
