C26H28O15
APtclcactv06291802563D 0   0.00000     0.00000
 
 69 73  0  0  0  0  0  0  0  0999 V2000
   -5.9927    0.2727   -1.6763 C   0  0  0  0  0  0  0  0  0  0  0  0
   -6.7518    0.5763   -0.3819 C   0  0  0  0  0  0  0  0  0  0  0  0
   -6.1797   -0.2828    0.7499 C   0  0  0  0  0  0  0  0  0  0  0  0
   -4.6786   -0.0057    0.8776 C   0  0  0  0  0  0  0  0  0  0  0  0
   -3.9996   -0.2868   -0.4654 C   0  0  0  0  0  0  0  0  0  0  0  0
   -4.5994    0.5219   -1.4794 O   0  0  0  0  0  0  0  0  0  0  0  0
   -2.5319    0.0400   -0.3646 C   0  0  0  0  0  0  0  0  0  0  0  0
   -2.1179    1.3591   -0.3603 C   0  0  0  0  0  0  0  0  0  0  0  0
   -0.7517    1.6529   -0.2659 C   0  0  0  0  0  0  0  0  0  0  0  0
    0.1907    0.6142   -0.1762 C   0  0  0  0  0  0  0  0  0  0  0  0
   -0.2437   -0.7023   -0.1816 C   0  0  0  0  0  0  0  0  0  0  0  0
   -1.5976   -0.9858   -0.2705 C   0  0  0  0  0  0  0  0  0  0  0  0
   -2.0150   -2.2776   -0.2747 O   0  0  0  0  0  0  0  0  0  0  0  0
    0.7563   -1.8256   -0.0861 C   0  0  0  0  0  0  0  0  0  0  0  0
    0.7153   -2.4273    1.3211 C   0  0  0  0  0  0  0  0  0  0  0  0
    1.6905   -3.6064    1.3923 C   0  0  0  0  0  0  0  0  0  0  0  0
    1.3196   -4.6275    0.3125 C   0  0  0  0  0  0  0  0  0  0  0  0
    1.3372   -3.9409   -1.0557 C   0  0  0  0  0  0  0  0  0  0  0  0
    0.4319   -2.8352   -1.0440 O   0  0  0  0  0  0  0  0  0  0  0  0
    2.7511   -3.4395   -1.3568 C   0  0  0  0  0  0  0  0  0  0  0  0
    2.8036   -2.9367   -2.6934 O   0  0  0  0  0  0  0  0  0  0  0  0
    2.2664   -5.6978    0.3219 O   0  0  0  0  0  0  0  0  0  0  0  0
    3.0227   -3.1391    1.1710 O   0  0  0  0  0  0  0  0  0  0  0  0
    1.0956   -1.4347    2.2761 O   0  0  0  0  0  0  0  0  0  0  0  0
    1.5053    0.9074   -0.0864 O   0  0  0  0  0  0  0  0  0  0  0  0
    1.9592    2.1709   -0.0791 C   0  0  0  0  0  0  0  0  0  0  0  0
    1.1299    3.2460   -0.1613 C   0  0  0  0  0  0  0  0  0  0  0  0
   -0.2672    3.0437   -0.2583 C   0  0  0  0  0  0  0  0  0  0  0  0
   -1.0404    3.9849   -0.3337 O   0  0  0  0  0  0  0  0  0  0  0  0
    3.4125    2.4020    0.0225 C   0  0  0  0  0  0  0  0  0  0  0  0
    4.2899    1.3175    0.1088 C   0  0  0  0  0  0  0  0  0  0  0  0
    5.6502    1.5395    0.2032 C   0  0  0  0  0  0  0  0  0  0  0  0
    6.1448    2.8427    0.2127 C   0  0  0  0  0  0  0  0  0  0  0  0
    5.2734    3.9199    0.1274 C   0  0  0  0  0  0  0  0  0  0  0  0
    3.9157    3.7058    0.0267 C   0  0  0  0  0  0  0  0  0  0  0  0
    7.4827    3.0591    0.3061 O   0  0  0  0  0  0  0  0  0  0  0  0
    6.5068    0.4866    0.2874 O   0  0  0  0  0  0  0  0  0  0  0  0
   -3.0284    2.3617   -0.4473 O   0  0  0  0  0  0  0  0  0  0  0  0
   -4.4745    1.3617    1.2389 O   0  0  0  0  0  0  0  0  0  0  0  0
   -6.8328    0.0470    1.9773 O   0  0  0  0  0  0  0  0  0  0  0  0
   -6.6026    1.9591   -0.0540 O   0  0  0  0  0  0  0  0  0  0  0  0
   -6.1402   -0.7727   -1.9475 H   0  0  0  0  0  0  0  0  0  0  0  0
   -6.3670    0.9122   -2.4757 H   0  0  0  0  0  0  0  0  0  0  0  0
   -7.8084    0.3448   -0.5165 H   0  0  0  0  0  0  0  0  0  0  0  0
   -6.3378   -1.3371    0.5230 H   0  0  0  0  0  0  0  0  0  0  0  0
   -4.2525   -0.6533    1.6438 H   0  0  0  0  0  0  0  0  0  0  0  0
   -4.1210   -1.3395   -0.7208 H   0  0  0  0  0  0  0  0  0  0  0  0
   -2.1973   -2.6349    0.6051 H   0  0  0  0  0  0  0  0  0  0  0  0
    1.7559   -1.4406   -0.2878 H   0  0  0  0  0  0  0  0  0  0  0  0
   -0.2942   -2.7759    1.5389 H   0  0  0  0  0  0  0  0  0  0  0  0
    1.6254   -4.0745    2.3746 H   0  0  0  0  0  0  0  0  0  0  0  0
    0.3223   -5.0205    0.5100 H   0  0  0  0  0  0  0  0  0  0  0  0
    1.0324   -4.6521   -1.8233 H   0  0  0  0  0  0  0  0  0  0  0  0
    3.0107   -2.6437   -0.6587 H   0  0  0  0  0  0  0  0  0  0  0  0
    3.4586   -4.2618   -1.2499 H   0  0  0  0  0  0  0  0  0  0  0  0
    3.6724   -2.6012   -2.9535 H   0  0  0  0  0  0  0  0  0  0  0  0
    2.3121   -6.1751    1.1616 H   0  0  0  0  0  0  0  0  0  0  0  0
    3.6938   -3.8346    1.2022 H   0  0  0  0  0  0  0  0  0  0  0  0
    1.0919   -1.7474    3.1911 H   0  0  0  0  0  0  0  0  0  0  0  0
    1.5350    4.2471   -0.1521 H   0  0  0  0  0  0  0  0  0  0  0  0
    3.9053    0.3083    0.1021 H   0  0  0  0  0  0  0  0  0  0  0  0
    5.6607    4.9280    0.1354 H   0  0  0  0  0  0  0  0  0  0  0  0
    3.2400    4.5457   -0.0395 H   0  0  0  0  0  0  0  0  0  0  0  0
    7.9344    3.1037   -0.5478 H   0  0  0  0  0  0  0  0  0  0  0  0
    6.8187    0.1638   -0.5691 H   0  0  0  0  0  0  0  0  0  0  0  0
   -3.3572    2.6698    0.4083 H   0  0  0  0  0  0  0  0  0  0  0  0
   -4.8828    1.6117    2.0791 H   0  0  0  0  0  0  0  0  0  0  0  0
   -7.7888   -0.0978    1.9654 H   0  0  0  0  0  0  0  0  0  0  0  0
   -6.9400    2.5624   -0.7303 H   0  0  0  0  0  0  0  0  0  0  0  0
  1  2  1  0  0  0  0
  2  3  1  0  0  0  0
  3  4  1  0  0  0  0
  4  5  1  0  0  0  0
  5  6  1  0  0  0  0
  1  6  1  0  0  0  0
  5  7  1  0  0  0  0
  7  8  2  0  0  0  0
  8  9  1  0  0  0  0
  9 10  2  0  0  0  0
 10 11  1  0  0  0  0
 11 12  2  0  0  0  0
  7 12  1  0  0  0  0
 12 13  1  0  0  0  0
 11 14  1  0  0  0  0
 14 15  1  0  0  0  0
 15 16  1  0  0  0  0
 16 17  1  0  0  0  0
 17 18  1  0  0  0  0
 18 19  1  0  0  0  0
 14 19  1  0  0  0  0
 18 20  1  0  0  0  0
 20 21  1  0  0  0  0
 17 22  1  0  0  0  0
 16 23  1  0  0  0  0
 15 24  1  0  0  0  0
 10 25  1  0  0  0  0
 25 26  1  0  0  0  0
 26 27  2  0  0  0  0
 27 28  1  0  0  0  0
  9 28  1  0  0  0  0
 28 29  2  0  0  0  0
 26 30  1  0  0  0  0
 30 31  2  0  0  0  0
 31 32  1  0  0  0  0
 32 33  2  0  0  0  0
 33 34  1  0  0  0  0
 34 35  2  0  0  0  0
 30 35  1  0  0  0  0
 33 36  1  0  0  0  0
 32 37  1  0  0  0  0
  8 38  1  0  0  0  0
  4 39  1  0  0  0  0
  3 40  1  0  0  0  0
  2 41  1  0  0  0  0
  1 42  1  0  0  0  0
  1 43  1  0  0  0  0
  2 44  1  0  0  0  0
  3 45  1  0  0  0  0
  4 46  1  0  0  0  0
  5 47  1  0  0  0  0
 13 48  1  0  0  0  0
 14 49  1  0  0  0  0
 15 50  1  0  0  0  0
 16 51  1  0  0  0  0
 17 52  1  0  0  0  0
 18 53  1  0  0  0  0
 20 54  1  0  0  0  0
 20 55  1  0  0  0  0
 21 56  1  0  0  0  0
 22 57  1  0  0  0  0
 23 58  1  0  0  0  0
 24 59  1  0  0  0  0
 27 60  1  0  0  0  0
 31 61  1  0  0  0  0
 34 62  1  0  0  0  0
 35 63  1  0  0  0  0
 36 64  1  0  0  0  0
 37 65  1  0  0  0  0
 38 66  1  0  0  0  0
 39 67  1  0  0  0  0
 40 68  1  0  0  0  0
 41 69  1  0  0  0  0
M  END
$$$$
