C27H30O17
APtclcactv06291802563D 0   0.00000     0.00000
 
 74 78  0  0  0  0  0  0  0  0999 V2000
    6.0397    1.0592    1.1750 C   0  0  0  0  0  0  0  0  0  0  0  0
    4.9388    1.8692    1.8626 C   0  0  0  0  0  0  0  0  0  0  0  0
    4.7822    3.2191    1.1577 C   0  0  0  0  0  0  0  0  0  0  0  0
    4.3482    2.9819   -0.2920 C   0  0  0  0  0  0  0  0  0  0  0  0
    3.0501    2.1688   -0.2983 C   0  0  0  0  0  0  0  0  0  0  0  0
    3.2736    0.8594    0.4629 C   0  0  0  0  0  0  0  0  0  0  0  0
    3.7051    1.1513    1.7936 O   0  0  0  0  0  0  0  0  0  0  0  0
    2.0512    0.1207    0.5095 O   0  0  0  0  0  0  0  0  0  0  0  0
    2.1766   -1.1737    1.1020 C   0  0  0  0  0  0  0  0  0  0  0  0
    0.8144   -1.8702    1.0987 C   0  0  0  0  0  0  0  0  0  0  0  0
    0.9716   -3.3017    1.6180 C   0  0  0  0  0  0  0  0  0  0  0  0
   -0.4046   -3.9723    1.6685 C   0  0  0  0  0  0  0  0  0  0  0  0
   -1.3369   -3.1339    2.5484 C   0  0  0  0  0  0  0  0  0  0  0  0
   -1.4051   -1.7089    1.9931 C   0  0  0  0  0  0  0  0  0  0  0  0
   -0.0887   -1.1547    1.9441 O   0  0  0  0  0  0  0  0  0  0  0  0
   -1.9599   -1.7364    0.6765 O   0  0  0  0  0  0  0  0  0  0  0  0
   -2.3658   -0.5480    0.1522 C   0  0  0  0  0  0  0  0  0  0  0  0
   -1.7886   -0.0656   -0.9840 C   0  0  0  0  0  0  0  0  0  0  0  0
   -2.1557    1.1020   -1.5395 O   0  0  0  0  0  0  0  0  0  0  0  0
   -3.1233    1.8800   -1.0106 C   0  0  0  0  0  0  0  0  0  0  0  0
   -3.4770    3.0782   -1.6116 C   0  0  0  0  0  0  0  0  0  0  0  0
   -4.4737    3.8656   -1.0563 C   0  0  0  0  0  0  0  0  0  0  0  0
   -5.1281    3.4672    0.1042 C   0  0  0  0  0  0  0  0  0  0  0  0
   -4.7893    2.2759    0.7186 C   0  0  0  0  0  0  0  0  0  0  0  0
   -3.7838    1.4745    0.1626 C   0  0  0  0  0  0  0  0  0  0  0  0
   -3.3976    0.1960    0.7808 C   0  0  0  0  0  0  0  0  0  0  0  0
   -3.9408   -0.2066    1.7972 O   0  0  0  0  0  0  0  0  0  0  0  0
   -5.4261    1.8857    1.8518 O   0  0  0  0  0  0  0  0  0  0  0  0
   -4.8140    5.0375   -1.6511 O   0  0  0  0  0  0  0  0  0  0  0  0
   -0.7214   -0.8536   -1.6277 C   0  0  0  0  0  0  0  0  0  0  0  0
   -0.9066   -2.2177   -1.8689 C   0  0  0  0  0  0  0  0  0  0  0  0
    0.0959   -2.9538   -2.4731 C   0  0  0  0  0  0  0  0  0  0  0  0
    1.2887   -2.3376   -2.8406 C   0  0  0  0  0  0  0  0  0  0  0  0
    1.4763   -0.9793   -2.6013 C   0  0  0  0  0  0  0  0  0  0  0  0
    0.4751   -0.2366   -2.0030 C   0  0  0  0  0  0  0  0  0  0  0  0
    2.6433   -0.3809   -2.9613 O   0  0  0  0  0  0  0  0  0  0  0  0
    2.2729   -3.0642   -3.4342 O   0  0  0  0  0  0  0  0  0  0  0  0
   -0.0836   -4.2812   -2.7082 O   0  0  0  0  0  0  0  0  0  0  0  0
   -2.6442   -3.7110    2.5444 O   0  0  0  0  0  0  0  0  0  0  0  0
   -0.9432   -4.0585    0.3477 O   0  0  0  0  0  0  0  0  0  0  0  0
    1.8288   -4.0361    0.7417 O   0  0  0  0  0  0  0  0  0  0  0  0
    2.0133    2.9194    0.3370 O   0  0  0  0  0  0  0  0  0  0  0  0
    4.1285    4.2381   -0.9369 O   0  0  0  0  0  0  0  0  0  0  0  0
    3.7912    3.9976    1.8315 O   0  0  0  0  0  0  0  0  0  0  0  0
    6.9804    1.6073    1.2269 H   0  0  0  0  0  0  0  0  0  0  0  0
    6.1510    0.0981    1.6771 H   0  0  0  0  0  0  0  0  0  0  0  0
    5.7719    0.8950    0.1313 H   0  0  0  0  0  0  0  0  0  0  0  0
    5.2062    2.0331    2.9065 H   0  0  0  0  0  0  0  0  0  0  0  0
    5.7343    3.7495    1.1707 H   0  0  0  0  0  0  0  0  0  0  0  0
    5.1263    2.4307   -0.8201 H   0  0  0  0  0  0  0  0  0  0  0  0
    2.7635    1.9480   -1.3265 H   0  0  0  0  0  0  0  0  0  0  0  0
    4.0361    0.2691   -0.0453 H   0  0  0  0  0  0  0  0  0  0  0  0
    2.8897   -1.7675    0.5301 H   0  0  0  0  0  0  0  0  0  0  0  0
    2.5297   -1.0710    2.1281 H   0  0  0  0  0  0  0  0  0  0  0  0
    0.4204   -1.8933    0.0827 H   0  0  0  0  0  0  0  0  0  0  0  0
    1.4036   -3.2809    2.6185 H   0  0  0  0  0  0  0  0  0  0  0  0
   -0.3075   -4.9728    2.0900 H   0  0  0  0  0  0  0  0  0  0  0  0
   -0.9516   -3.1097    3.5677 H   0  0  0  0  0  0  0  0  0  0  0  0
   -2.0334   -1.0964    2.6398 H   0  0  0  0  0  0  0  0  0  0  0  0
   -2.9755    3.3986   -2.5128 H   0  0  0  0  0  0  0  0  0  0  0  0
   -5.9025    4.0901    0.5269 H   0  0  0  0  0  0  0  0  0  0  0  0
   -6.2158    1.3502    1.6946 H   0  0  0  0  0  0  0  0  0  0  0  0
   -5.5172    4.9547   -2.3097 H   0  0  0  0  0  0  0  0  0  0  0  0
   -1.8316   -2.6964   -1.5833 H   0  0  0  0  0  0  0  0  0  0  0  0
    0.6211    0.8174   -1.8179 H   0  0  0  0  0  0  0  0  0  0  0  0
    2.6402   -0.0210   -3.8588 H   0  0  0  0  0  0  0  0  0  0  0  0
    2.2168   -3.0878   -4.3993 H   0  0  0  0  0  0  0  0  0  0  0  0
   -0.4766   -4.4786   -3.5694 H   0  0  0  0  0  0  0  0  0  0  0  0
   -3.2880   -3.2303    3.0825 H   0  0  0  0  0  0  0  0  0  0  0  0
   -1.8155   -4.4737    0.3049 H   0  0  0  0  0  0  0  0  0  0  0  0
    1.9732   -4.9537    1.0105 H   0  0  0  0  0  0  0  0  0  0  0  0
    1.1608    2.4640    0.3688 H   0  0  0  0  0  0  0  0  0  0  0  0
    3.8506    4.1630   -1.8601 H   0  0  0  0  0  0  0  0  0  0  0  0
    3.9990    4.1823    2.7577 H   0  0  0  0  0  0  0  0  0  0  0  0
  1  2  1  0  0  0  0
  2  3  1  0  0  0  0
  3  4  1  0  0  0  0
  4  5  1  0  0  0  0
  5  6  1  0  0  0  0
  6  7  1  0  0  0  0
  2  7  1  0  0  0  0
  6  8  1  0  0  0  0
  8  9  1  0  0  0  0
  9 10  1  0  0  0  0
 10 11  1  0  0  0  0
 11 12  1  0  0  0  0
 12 13  1  0  0  0  0
 13 14  1  0  0  0  0
 14 15  1  0  0  0  0
 10 15  1  0  0  0  0
 14 16  1  0  0  0  0
 16 17  1  0  0  0  0
 17 18  2  0  0  0  0
 18 19  1  0  0  0  0
 19 20  1  0  0  0  0
 20 21  2  0  0  0  0
 21 22  1  0  0  0  0
 22 23  2  0  0  0  0
 23 24  1  0  0  0  0
 24 25  2  0  0  0  0
 20 25  1  0  0  0  0
 25 26  1  0  0  0  0
 17 26  1  0  0  0  0
 26 27  2  0  0  0  0
 24 28  1  0  0  0  0
 22 29  1  0  0  0  0
 18 30  1  0  0  0  0
 30 31  2  0  0  0  0
 31 32  1  0  0  0  0
 32 33  2  0  0  0  0
 33 34  1  0  0  0  0
 34 35  2  0  0  0  0
 30 35  1  0  0  0  0
 34 36  1  0  0  0  0
 33 37  1  0  0  0  0
 32 38  1  0  0  0  0
 13 39  1  0  0  0  0
 12 40  1  0  0  0  0
 11 41  1  0  0  0  0
  5 42  1  0  0  0  0
  4 43  1  0  0  0  0
  3 44  1  0  0  0  0
  1 45  1  0  0  0  0
  1 46  1  0  0  0  0
  1 47  1  0  0  0  0
  2 48  1  0  0  0  0
  3 49  1  0  0  0  0
  4 50  1  0  0  0  0
  5 51  1  0  0  0  0
  6 52  1  0  0  0  0
  9 53  1  0  0  0  0
  9 54  1  0  0  0  0
 10 55  1  0  0  0  0
 11 56  1  0  0  0  0
 12 57  1  0  0  0  0
 13 58  1  0  0  0  0
 14 59  1  0  0  0  0
 21 60  1  0  0  0  0
 23 61  1  0  0  0  0
 28 62  1  0  0  0  0
 29 63  1  0  0  0  0
 31 64  1  0  0  0  0
 35 65  1  0  0  0  0
 36 66  1  0  0  0  0
 37 67  1  0  0  0  0
 38 68  1  0  0  0  0
 39 69  1  0  0  0  0
 40 70  1  0  0  0  0
 41 71  1  0  0  0  0
 42 72  1  0  0  0  0
 43 73  1  0  0  0  0
 44 74  1  0  0  0  0
M  END
$$$$
