C10H16O
APtclcactv06291802573D 0   0.00000     0.00000
 
 27 28  0  0  0  0  0  0  0  0999 V2000
    3.6851    0.2038   -0.2528 C   0  0  0  0  0  0  0  0  0  0  0  0
    2.2046    0.1056    0.0108 C   0  0  0  0  0  0  0  0  0  0  0  0
    1.5267    1.2060    0.0834 C   0  0  0  0  0  0  0  0  0  0  0  0
    0.0511    1.2686    0.3492 C   0  0  0  0  0  0  0  0  0  0  0  0
   -0.5881   -0.0989    0.0983 C   0  0  0  0  0  0  0  0  0  0  0  0
    0.2338   -1.1618    0.8385 C   0  0  0  0  0  0  0  0  0  0  0  0
    1.6068   -1.2620    0.1669 C   0  0  0  0  0  0  0  0  0  0  0  0
   -2.0243   -0.0999    0.6258 C   0  0  0  0  0  0  0  0  0  0  0  0
   -2.9984    0.9151    0.0244 C   0  0  0  0  0  0  0  0  0  0  0  0
   -3.1263   -0.5686   -0.3265 C   0  0  0  0  0  0  0  0  0  0  0  0
   -0.5864   -0.3802   -1.3027 O   0  0  0  0  0  0  0  0  0  0  0  0
    3.9687    1.2521   -0.3466 H   0  0  0  0  0  0  0  0  0  0  0  0
    4.2322   -0.2480    0.5746 H   0  0  0  0  0  0  0  0  0  0  0  0
    3.9252   -0.3216   -1.1771 H   0  0  0  0  0  0  0  0  0  0  0  0
    2.0561    2.1370   -0.0558 H   0  0  0  0  0  0  0  0  0  0  0  0
   -0.1172    1.5614    1.3856 H   0  0  0  0  0  0  0  0  0  0  0  0
   -0.4040    2.0067   -0.3111 H   0  0  0  0  0  0  0  0  0  0  0  0
    0.3529   -0.8715    1.8824 H   0  0  0  0  0  0  0  0  0  0  0  0
   -0.2735   -2.1247    0.7785 H   0  0  0  0  0  0  0  0  0  0  0  0
    1.4969   -1.7284   -0.8122 H   0  0  0  0  0  0  0  0  0  0  0  0
    2.2670   -1.8720    0.7834 H   0  0  0  0  0  0  0  0  0  0  0  0
   -2.1366   -0.3399    1.6831 H   0  0  0  0  0  0  0  0  0  0  0  0
   -3.7519    1.3426    0.6859 H   0  0  0  0  0  0  0  0  0  0  0  0
   -2.6161    1.5836   -0.7470 H   0  0  0  0  0  0  0  0  0  0  0  0
   -2.8281   -0.8762   -1.3288 H   0  0  0  0  0  0  0  0  0  0  0  0
   -3.9639   -1.1172    0.1042 H   0  0  0  0  0  0  0  0  0  0  0  0
    0.2956   -0.4023   -1.6984 H   0  0  0  0  0  0  0  0  0  0  0  0
  1  2  1  0  0  0  0
  2  3  2  0  0  0  0
  3  4  1  0  0  0  0
  4  5  1  0  0  0  0
  5  6  1  0  0  0  0
  6  7  1  0  0  0  0
  2  7  1  0  0  0  0
  5  8  1  0  0  0  0
  8  9  1  0  0  0  0
  9 10  1  0  0  0  0
  8 10  1  0  0  0  0
  5 11  1  0  0  0  0
  1 12  1  0  0  0  0
  1 13  1  0  0  0  0
  1 14  1  0  0  0  0
  3 15  1  0  0  0  0
  4 16  1  0  0  0  0
  4 17  1  0  0  0  0
  6 18  1  0  0  0  0
  6 19  1  0  0  0  0
  7 20  1  0  0  0  0
  7 21  1  0  0  0  0
  8 22  1  0  0  0  0
  9 23  1  0  0  0  0
  9 24  1  0  0  0  0
 10 25  1  0  0  0  0
 10 26  1  0  0  0  0
 11 27  1  0  0  0  0
M  END
$$$$
