C27H30O15
APtclcactv06291802573D 0   0.00000     0.00000
 
 72 76  0  0  0  0  0  0  0  0999 V2000
    1.2110   -0.1284   -1.9679 C   0  0  0  0  0  0  0  0  0  0  0  0
    0.6409    0.4787   -0.6845 C   0  0  0  0  0  0  0  0  0  0  0  0
    1.7486    1.2263    0.0624 C   0  0  0  0  0  0  0  0  0  0  0  0
    1.1572    1.8815    1.3143 C   0  0  0  0  0  0  0  0  0  0  0  0
    0.0092    2.8068    0.8991 C   0  0  0  0  0  0  0  0  0  0  0  0
   -1.0313    1.9981    0.1199 C   0  0  0  0  0  0  0  0  0  0  0  0
   -0.4089    1.3905   -1.0140 O   0  0  0  0  0  0  0  0  0  0  0  0
   -1.5765    0.9830    0.9651 O   0  0  0  0  0  0  0  0  0  0  0  0
   -2.7096    0.3640    0.5353 C   0  0  0  0  0  0  0  0  0  0  0  0
   -2.7005   -0.9701    0.2580 C   0  0  0  0  0  0  0  0  0  0  0  0
   -3.7938   -1.6254   -0.1684 O   0  0  0  0  0  0  0  0  0  0  0  0
   -4.9795   -1.0076   -0.3522 C   0  0  0  0  0  0  0  0  0  0  0  0
   -6.0870   -1.7156   -0.7927 C   0  0  0  0  0  0  0  0  0  0  0  0
   -7.2979   -1.0663   -0.9767 C   0  0  0  0  0  0  0  0  0  0  0  0
   -7.4176    0.2958   -0.7235 C   0  0  0  0  0  0  0  0  0  0  0  0
   -6.3248    1.0192   -0.2831 C   0  0  0  0  0  0  0  0  0  0  0  0
   -5.0979    0.3697   -0.0949 C   0  0  0  0  0  0  0  0  0  0  0  0
   -3.9117    1.1013    0.3777 C   0  0  0  0  0  0  0  0  0  0  0  0
   -3.9591    2.2966    0.6211 O   0  0  0  0  0  0  0  0  0  0  0  0
   -6.4395    2.3487   -0.0359 O   0  0  0  0  0  0  0  0  0  0  0  0
   -8.3774   -1.7670   -1.4087 O   0  0  0  0  0  0  0  0  0  0  0  0
   -1.4445   -1.7227    0.4318 C   0  0  0  0  0  0  0  0  0  0  0  0
   -0.7130   -1.6016    1.6169 C   0  0  0  0  0  0  0  0  0  0  0  0
    0.4598   -2.3066    1.7749 C   0  0  0  0  0  0  0  0  0  0  0  0
    0.9163   -3.1366    0.7583 C   0  0  0  0  0  0  0  0  0  0  0  0
    0.1927   -3.2596   -0.4216 C   0  0  0  0  0  0  0  0  0  0  0  0
   -0.9846   -2.5637   -0.5857 C   0  0  0  0  0  0  0  0  0  0  0  0
    2.0733   -3.8293    0.9182 O   0  0  0  0  0  0  0  0  0  0  0  0
   -0.5974    3.3679    2.0649 O   0  0  0  0  0  0  0  0  0  0  0  0
    0.6619    0.8705    2.1944 O   0  0  0  0  0  0  0  0  0  0  0  0
    2.7729    0.3057    0.4438 O   0  0  0  0  0  0  0  0  0  0  0  0
    4.0488    0.9121    0.6586 C   0  0  0  0  0  0  0  0  0  0  0  0
    5.0131   -0.1218    1.2459 C   0  0  0  0  0  0  0  0  0  0  0  0
    5.2033   -1.2607    0.2394 C   0  0  0  0  0  0  0  0  0  0  0  0
    5.7102   -0.6787   -1.0837 C   0  0  0  0  0  0  0  0  0  0  0  0
    4.7190    0.3767   -1.5810 C   0  0  0  0  0  0  0  0  0  0  0  0
    4.5648    1.3901   -0.5853 O   0  0  0  0  0  0  0  0  0  0  0  0
    5.2482    1.0057   -2.8715 C   0  0  0  0  0  0  0  0  0  0  0  0
    4.2701    1.9039   -3.3995 O   0  0  0  0  0  0  0  0  0  0  0  0
    6.9892   -0.0746   -0.8808 O   0  0  0  0  0  0  0  0  0  0  0  0
    6.1584   -2.1939    0.7483 O   0  0  0  0  0  0  0  0  0  0  0  0
    6.2737    0.4970    1.5106 O   0  0  0  0  0  0  0  0  0  0  0  0
    2.0554   -0.7721   -1.7215 H   0  0  0  0  0  0  0  0  0  0  0  0
    0.4395   -0.7159   -2.4658 H   0  0  0  0  0  0  0  0  0  0  0  0
    1.5441    0.6701   -2.6309 H   0  0  0  0  0  0  0  0  0  0  0  0
    0.2471   -0.3156   -0.0503 H   0  0  0  0  0  0  0  0  0  0  0  0
    2.1708    1.9943   -0.5857 H   0  0  0  0  0  0  0  0  0  0  0  0
    1.9283    2.4619    1.8210 H   0  0  0  0  0  0  0  0  0  0  0  0
    0.3962    3.6067    0.2678 H   0  0  0  0  0  0  0  0  0  0  0  0
   -1.8298    2.6601   -0.2150 H   0  0  0  0  0  0  0  0  0  0  0  0
   -6.0063   -2.7738   -0.9931 H   0  0  0  0  0  0  0  0  0  0  0  0
   -8.3665    0.7899   -0.8715 H   0  0  0  0  0  0  0  0  0  0  0  0
   -6.6944    2.5592    0.8728 H   0  0  0  0  0  0  0  0  0  0  0  0
   -8.9113   -2.1454   -0.6968 H   0  0  0  0  0  0  0  0  0  0  0  0
   -1.0667   -0.9562    2.4073 H   0  0  0  0  0  0  0  0  0  0  0  0
    1.0256   -2.2137    2.6901 H   0  0  0  0  0  0  0  0  0  0  0  0
    0.5516   -3.9054   -1.2093 H   0  0  0  0  0  0  0  0  0  0  0  0
   -1.5466   -2.6602   -1.5029 H   0  0  0  0  0  0  0  0  0  0  0  0
    1.9564   -4.7046    1.3123 H   0  0  0  0  0  0  0  0  0  0  0  0
   -1.3338    3.9656    1.8762 H   0  0  0  0  0  0  0  0  0  0  0  0
    0.2723    1.2150    3.0096 H   0  0  0  0  0  0  0  0  0  0  0  0
    3.9429    1.7458    1.3528 H   0  0  0  0  0  0  0  0  0  0  0  0
    4.6000   -0.5200    2.1727 H   0  0  0  0  0  0  0  0  0  0  0  0
    4.2509   -1.7648    0.0749 H   0  0  0  0  0  0  0  0  0  0  0  0
    5.7957   -1.4751   -1.8230 H   0  0  0  0  0  0  0  0  0  0  0  0
    3.7545   -0.0928   -1.7742 H   0  0  0  0  0  0  0  0  0  0  0  0
    6.1667    1.5527   -2.6590 H   0  0  0  0  0  0  0  0  0  0  0  0
    5.4526    0.2217   -3.6006 H   0  0  0  0  0  0  0  0  0  0  0  0
    4.5388    2.3400   -4.2197 H   0  0  0  0  0  0  0  0  0  0  0  0
    7.6665   -0.6859   -0.5604 H   0  0  0  0  0  0  0  0  0  0  0  0
    5.9045   -2.5971    1.5897 H   0  0  0  0  0  0  0  0  0  0  0  0
    6.2272    1.2317    2.1376 H   0  0  0  0  0  0  0  0  0  0  0  0
  1  2  1  0  0  0  0
  2  3  1  0  0  0  0
  3  4  1  0  0  0  0
  4  5  1  0  0  0  0
  5  6  1  0  0  0  0
  6  7  1  0  0  0  0
  2  7  1  0  0  0  0
  6  8  1  0  0  0  0
  8  9  1  0  0  0  0
  9 10  2  0  0  0  0
 10 11  1  0  0  0  0
 11 12  1  0  0  0  0
 12 13  2  0  0  0  0
 13 14  1  0  0  0  0
 14 15  2  0  0  0  0
 15 16  1  0  0  0  0
 16 17  2  0  0  0  0
 12 17  1  0  0  0  0
 17 18  1  0  0  0  0
  9 18  1  0  0  0  0
 18 19  2  0  0  0  0
 16 20  1  0  0  0  0
 14 21  1  0  0  0  0
 10 22  1  0  0  0  0
 22 23  2  0  0  0  0
 23 24  1  0  0  0  0
 24 25  2  0  0  0  0
 25 26  1  0  0  0  0
 26 27  2  0  0  0  0
 22 27  1  0  0  0  0
 25 28  1  0  0  0  0
  5 29  1  0  0  0  0
  4 30  1  0  0  0  0
  3 31  1  0  0  0  0
 31 32  1  0  0  0  0
 32 33  1  0  0  0  0
 33 34  1  0  0  0  0
 34 35  1  0  0  0  0
 35 36  1  0  0  0  0
 36 37  1  0  0  0  0
 32 37  1  0  0  0  0
 36 38  1  0  0  0  0
 38 39  1  0  0  0  0
 35 40  1  0  0  0  0
 34 41  1  0  0  0  0
 33 42  1  0  0  0  0
  1 43  1  0  0  0  0
  1 44  1  0  0  0  0
  1 45  1  0  0  0  0
  2 46  1  0  0  0  0
  3 47  1  0  0  0  0
  4 48  1  0  0  0  0
  5 49  1  0  0  0  0
  6 50  1  0  0  0  0
 13 51  1  0  0  0  0
 15 52  1  0  0  0  0
 20 53  1  0  0  0  0
 21 54  1  0  0  0  0
 23 55  1  0  0  0  0
 24 56  1  0  0  0  0
 26 57  1  0  0  0  0
 27 58  1  0  0  0  0
 28 59  1  0  0  0  0
 29 60  1  0  0  0  0
 30 61  1  0  0  0  0
 32 62  1  0  0  0  0
 33 63  1  0  0  0  0
 34 64  1  0  0  0  0
 35 65  1  0  0  0  0
 36 66  1  0  0  0  0
 38 67  1  0  0  0  0
 38 68  1  0  0  0  0
 39 69  1  0  0  0  0
 40 70  1  0  0  0  0
 41 71  1  0  0  0  0
 42 72  1  0  0  0  0
M  END
$$$$
