C27H30O15
APtclcactv06291802573D 0   0.00000     0.00000
 
 72 76  0  0  0  0  0  0  0  0999 V2000
   -6.8809    3.0427   -1.9898 C   0  0  0  0  0  0  0  0  0  0  0  0
   -8.0094    2.2146   -1.7018 O   0  0  0  0  0  0  0  0  0  0  0  0
   -7.7602    1.0145   -1.1126 C   0  0  0  0  0  0  0  0  0  0  0  0
   -8.8150    0.1571   -0.8041 C   0  0  0  0  0  0  0  0  0  0  0  0
   -8.5644   -1.0686   -0.2027 C   0  0  0  0  0  0  0  0  0  0  0  0
   -7.2714   -1.4438    0.0917 C   0  0  0  0  0  0  0  0  0  0  0  0
   -6.2089   -0.5895   -0.2153 C   0  0  0  0  0  0  0  0  0  0  0  0
   -6.4610    0.6426   -0.8251 C   0  0  0  0  0  0  0  0  0  0  0  0
   -4.8243   -0.9890    0.0995 C   0  0  0  0  0  0  0  0  0  0  0  0
   -4.6098   -2.1958    0.6892 C   0  0  0  0  0  0  0  0  0  0  0  0
   -3.2883   -2.5962    0.9986 C   0  0  0  0  0  0  0  0  0  0  0  0
   -3.0591   -3.6720    1.5274 O   0  0  0  0  0  0  0  0  0  0  0  0
   -2.2003   -1.6641    0.6572 C   0  0  0  0  0  0  0  0  0  0  0  0
   -0.8626   -1.9783    0.9262 C   0  0  0  0  0  0  0  0  0  0  0  0
    0.1299   -1.0761    0.5891 C   0  0  0  0  0  0  0  0  0  0  0  0
   -0.2004    0.1332   -0.0122 C   0  0  0  0  0  0  0  0  0  0  0  0
   -1.5231    0.4508   -0.2809 C   0  0  0  0  0  0  0  0  0  0  0  0
   -2.5314   -0.4407    0.0491 C   0  0  0  0  0  0  0  0  0  0  0  0
   -3.8236   -0.1500   -0.2119 O   0  0  0  0  0  0  0  0  0  0  0  0
    0.7816    1.0117   -0.3390 O   0  0  0  0  0  0  0  0  0  0  0  0
    2.1239    0.6265   -0.0360 C   0  0  0  0  0  0  0  0  0  0  0  0
    3.0928    1.6770   -0.5849 C   0  0  0  0  0  0  0  0  0  0  0  0
    2.8263    3.0172    0.1073 C   0  0  0  0  0  0  0  0  0  0  0  0
    2.9649    2.8335    1.6217 C   0  0  0  0  0  0  0  0  0  0  0  0
    2.0009    1.7383    2.0854 C   0  0  0  0  0  0  0  0  0  0  0  0
    2.2831    0.5276    1.3807 O   0  0  0  0  0  0  0  0  0  0  0  0
    2.1760    1.5070    3.5876 C   0  0  0  0  0  0  0  0  0  0  0  0
    1.1980    0.5696    4.0424 O   0  0  0  0  0  0  0  0  0  0  0  0
    4.3061    2.4536    1.9360 O   0  0  0  0  0  0  0  0  0  0  0  0
    3.7743    3.9859   -0.3454 O   0  0  0  0  0  0  0  0  0  0  0  0
    4.4374    1.2664   -0.3291 O   0  0  0  0  0  0  0  0  0  0  0  0
    5.0118    0.4752   -1.3713 C   0  0  0  0  0  0  0  0  0  0  0  0
    6.4937    0.1918   -1.0579 C   0  0  0  0  0  0  0  0  0  0  0  0
    6.5851   -1.3532   -1.0214 C   0  0  0  0  0  0  0  0  0  0  0  0
    5.3314   -1.7718   -1.8311 C   0  0  0  0  0  0  0  0  0  0  0  0
    4.3409   -0.7937   -1.4478 O   0  0  0  0  0  0  0  0  0  0  0  0
    7.8642   -1.8408   -1.7047 C   0  0  0  0  0  0  0  0  0  0  0  0
    7.8616   -3.2688   -1.7571 O   0  0  0  0  0  0  0  0  0  0  0  0
    6.5100   -1.8370    0.3211 O   0  0  0  0  0  0  0  0  0  0  0  0
    7.3324    0.7182   -2.0881 O   0  0  0  0  0  0  0  0  0  0  0  0
   -0.5423   -3.1590    1.5136 O   0  0  0  0  0  0  0  0  0  0  0  0
  -10.0914    0.5222   -1.0922 O   0  0  0  0  0  0  0  0  0  0  0  0
   -6.3547    3.2746   -1.0638 H   0  0  0  0  0  0  0  0  0  0  0  0
   -6.2085    2.5174   -2.6681 H   0  0  0  0  0  0  0  0  0  0  0  0
   -7.2189    3.9676   -2.4571 H   0  0  0  0  0  0  0  0  0  0  0  0
   -9.3846   -1.7296    0.0353 H   0  0  0  0  0  0  0  0  0  0  0  0
   -7.0793   -2.3979    0.5599 H   0  0  0  0  0  0  0  0  0  0  0  0
   -5.6427    1.3056   -1.0643 H   0  0  0  0  0  0  0  0  0  0  0  0
   -5.4424   -2.8439    0.9201 H   0  0  0  0  0  0  0  0  0  0  0  0
    1.1639   -1.3113    0.7938 H   0  0  0  0  0  0  0  0  0  0  0  0
   -1.7676    1.3933   -0.7481 H   0  0  0  0  0  0  0  0  0  0  0  0
    2.3371   -0.3393   -0.4942 H   0  0  0  0  0  0  0  0  0  0  0  0
    2.9422    1.7856   -1.6590 H   0  0  0  0  0  0  0  0  0  0  0  0
    1.8171    3.3550   -0.1282 H   0  0  0  0  0  0  0  0  0  0  0  0
    2.7228    3.7692    2.1258 H   0  0  0  0  0  0  0  0  0  0  0  0
    0.9754    2.0467    1.8821 H   0  0  0  0  0  0  0  0  0  0  0  0
    3.1740    1.1133    3.7807 H   0  0  0  0  0  0  0  0  0  0  0  0
    2.0488    2.4508    4.1179 H   0  0  0  0  0  0  0  0  0  0  0  0
    1.2498    0.3747    4.9882 H   0  0  0  0  0  0  0  0  0  0  0  0
    4.4661    2.3199    2.8803 H   0  0  0  0  0  0  0  0  0  0  0  0
    3.6641    4.8601    0.0530 H   0  0  0  0  0  0  0  0  0  0  0  0
    4.9280    0.9993   -2.3233 H   0  0  0  0  0  0  0  0  0  0  0  0
    6.7664    0.6130   -0.0902 H   0  0  0  0  0  0  0  0  0  0  0  0
    5.5302   -1.7177   -2.9015 H   0  0  0  0  0  0  0  0  0  0  0  0
    5.0098   -2.7745   -1.5495 H   0  0  0  0  0  0  0  0  0  0  0  0
    7.9106   -1.4401   -2.7173 H   0  0  0  0  0  0  0  0  0  0  0  0
    8.7311   -1.4996   -1.1388 H   0  0  0  0  0  0  0  0  0  0  0  0
    8.6448   -3.6484   -2.1785 H   0  0  0  0  0  0  0  0  0  0  0  0
    6.5628   -2.7996    0.3959 H   0  0  0  0  0  0  0  0  0  0  0  0
    7.2703    1.6774   -2.1942 H   0  0  0  0  0  0  0  0  0  0  0  0
   -0.3779   -3.8778    0.8880 H   0  0  0  0  0  0  0  0  0  0  0  0
  -10.3886    0.2524   -1.9719 H   0  0  0  0  0  0  0  0  0  0  0  0
  1  2  1  0  0  0  0
  2  3  1  0  0  0  0
  3  4  2  0  0  0  0
  4  5  1  0  0  0  0
  5  6  2  0  0  0  0
  6  7  1  0  0  0  0
  7  8  2  0  0  0  0
  3  8  1  0  0  0  0
  7  9  1  0  0  0  0
  9 10  2  0  0  0  0
 10 11  1  0  0  0  0
 11 12  2  0  0  0  0
 11 13  1  0  0  0  0
 13 14  2  0  0  0  0
 14 15  1  0  0  0  0
 15 16  2  0  0  0  0
 16 17  1  0  0  0  0
 17 18  2  0  0  0  0
 13 18  1  0  0  0  0
 18 19  1  0  0  0  0
  9 19  1  0  0  0  0
 16 20  1  0  0  0  0
 20 21  1  0  0  0  0
 21 22  1  0  0  0  0
 22 23  1  0  0  0  0
 23 24  1  0  0  0  0
 24 25  1  0  0  0  0
 25 26  1  0  0  0  0
 21 26  1  0  0  0  0
 25 27  1  0  0  0  0
 27 28  1  0  0  0  0
 24 29  1  0  0  0  0
 23 30  1  0  0  0  0
 22 31  1  0  0  0  0
 31 32  1  0  0  0  0
 32 33  1  0  0  0  0
 33 34  1  0  0  0  0
 34 35  1  0  0  0  0
 35 36  1  0  0  0  0
 32 36  1  0  0  0  0
 34 37  1  0  0  0  0
 37 38  1  0  0  0  0
 34 39  1  0  0  0  0
 33 40  1  0  0  0  0
 14 41  1  0  0  0  0
  4 42  1  0  0  0  0
  1 43  1  0  0  0  0
  1 44  1  0  0  0  0
  1 45  1  0  0  0  0
  5 46  1  0  0  0  0
  6 47  1  0  0  0  0
  8 48  1  0  0  0  0
 10 49  1  0  0  0  0
 15 50  1  0  0  0  0
 17 51  1  0  0  0  0
 21 52  1  0  0  0  0
 22 53  1  0  0  0  0
 23 54  1  0  0  0  0
 24 55  1  0  0  0  0
 25 56  1  0  0  0  0
 27 57  1  0  0  0  0
 27 58  1  0  0  0  0
 28 59  1  0  0  0  0
 29 60  1  0  0  0  0
 30 61  1  0  0  0  0
 32 62  1  0  0  0  0
 33 63  1  0  0  0  0
 35 64  1  0  0  0  0
 35 65  1  0  0  0  0
 37 66  1  0  0  0  0
 37 67  1  0  0  0  0
 38 68  1  0  0  0  0
 39 69  1  0  0  0  0
 40 70  1  0  0  0  0
 41 71  1  0  0  0  0
 42 72  1  0  0  0  0
M  END
$$$$
