C27H31O17
APtclcactv06291802573D 0   0.00000     0.00000
 
 75 79  0  0  0  0  0  0  0  0999 V2000
    4.4290    1.1806    1.3144 C   0  0  0  0  0  0  0  0  0  0  0  0
    3.3774    1.0021    0.4142 C   0  0  0  0  0  0  0  0  0  0  0  0
    2.8870    2.0913   -0.3078 C   0  0  0  0  0  0  0  0  0  0  0  0
    3.4439    3.3449   -0.1299 C   0  0  0  0  0  0  0  0  0  0  0  0
    4.4927    3.5205    0.7678 C   0  0  0  0  0  0  0  0  0  0  0  0
    4.9829    2.4359    1.4891 C   0  0  0  0  0  0  0  0  0  0  0  0
    6.0082    2.6102    2.3654 O   0  0  0  0  0  0  0  0  0  0  0  0
    5.0390    4.7536    0.9408 O   0  0  0  0  0  0  0  0  0  0  0  0
    2.9665    4.4065   -0.8332 O   0  0  0  0  0  0  0  0  0  0  0  0
    2.7837   -0.3395    0.2253 C   0  0  0  0  0  0  0  0  0  0  0  0
    1.3888   -0.4447    0.0782 C   0  0  0  0  0  0  0  0  0  0  0  0
    0.8525   -1.7020   -0.0974 C   0  0  0  0  0  0  0  0  0  0  0  0
    1.7821   -2.7629   -0.1099 C   0  0  0  0  0  0  0  0  0  0  0  0
    1.3727   -4.0979   -0.2812 C   0  0  0  0  0  0  0  0  0  0  0  0
    2.3073   -5.0956   -0.2875 C   0  0  0  0  0  0  0  0  0  0  0  0
    3.6621   -4.7997   -0.1250 C   0  0  0  0  0  0  0  0  0  0  0  0
    4.0896   -3.5010    0.0449 C   0  0  0  0  0  0  0  0  0  0  0  0
    3.1559   -2.4534    0.0552 C   0  0  0  0  0  0  0  0  0  0  0  0
    3.5184   -1.2999    0.1989 O   0  3  0  0  0  0  0  0  0  0  0  0
    4.5725   -5.8075   -0.1342 O   0  0  0  0  0  0  0  0  0  0  0  0
    0.0572   -4.3938   -0.4388 O   0  0  0  0  0  0  0  0  0  0  0  0
    0.5951    0.6584    0.1087 O   0  0  0  0  0  0  0  0  0  0  0  0
   -0.8100    0.4512   -0.0494 C   0  0  0  0  0  0  0  0  0  0  0  0
   -1.5461    1.7807    0.1359 C   0  0  0  0  0  0  0  0  0  0  0  0
   -1.0955    2.7608   -0.9516 C   0  0  0  0  0  0  0  0  0  0  0  0
   -1.3582    2.1376   -2.3259 C   0  0  0  0  0  0  0  0  0  0  0  0
   -0.6293    0.7943   -2.4162 C   0  0  0  0  0  0  0  0  0  0  0  0
   -1.0722   -0.0585   -1.3585 O   0  0  0  0  0  0  0  0  0  0  0  0
   -0.9355    0.1372   -3.7635 C   0  0  0  0  0  0  0  0  0  0  0  0
   -0.1649   -1.0589   -3.8962 O   0  0  0  0  0  0  0  0  0  0  0  0
   -2.7619    1.9316   -2.4964 O   0  0  0  0  0  0  0  0  0  0  0  0
   -1.8312    3.9799   -0.8310 O   0  0  0  0  0  0  0  0  0  0  0  0
   -2.9548    1.5652    0.0306 O   0  0  0  0  0  0  0  0  0  0  0  0
   -3.5912    1.2632    1.2740 C   0  0  0  0  0  0  0  0  0  0  0  0
   -5.1052    1.1760    1.0647 C   0  0  0  0  0  0  0  0  0  0  0  0
   -5.4136    0.0313    0.0946 C   0  0  0  0  0  0  0  0  0  0  0  0
   -4.8281   -1.2690    0.6538 C   0  0  0  0  0  0  0  0  0  0  0  0
   -3.3248   -1.0873    0.8790 C   0  0  0  0  0  0  0  0  0  0  0  0
   -3.1067    0.0120    1.7657 O   0  0  0  0  0  0  0  0  0  0  0  0
   -2.7432   -2.3619    1.4938 C   0  0  0  0  0  0  0  0  0  0  0  0
   -1.3234   -2.2364    1.5963 O   0  0  0  0  0  0  0  0  0  0  0  0
   -5.4624   -1.5831    1.8952 O   0  0  0  0  0  0  0  0  0  0  0  0
   -6.8287   -0.1048   -0.0498 O   0  0  0  0  0  0  0  0  0  0  0  0
   -5.7468    0.9265    2.3169 O   0  0  0  0  0  0  0  0  0  0  0  0
    4.8070    0.3400    1.8774 H   0  0  0  0  0  0  0  0  0  0  0  0
    2.0736    1.9554   -1.0051 H   0  0  0  0  0  0  0  0  0  0  0  0
    5.7249    2.8276    3.2641 H   0  0  0  0  0  0  0  0  0  0  0  0
    4.6170    5.2767    1.6360 H   0  0  0  0  0  0  0  0  0  0  0  0
    2.2481    4.8798   -0.3916 H   0  0  0  0  0  0  0  0  0  0  0  0
   -0.2085   -1.8643   -0.2170 H   0  0  0  0  0  0  0  0  0  0  0  0
    1.9950   -6.1211   -0.4188 H   0  0  0  0  0  0  0  0  0  0  0  0
    5.1413   -3.2895    0.1699 H   0  0  0  0  0  0  0  0  0  0  0  0
    4.9223   -6.0136   -1.0119 H   0  0  0  0  0  0  0  0  0  0  0  0
   -0.2384   -4.3934   -1.3595 H   0  0  0  0  0  0  0  0  0  0  0  0
   -1.1581   -0.2640    0.6958 H   0  0  0  0  0  0  0  0  0  0  0  0
   -1.3121    2.1929    1.1175 H   0  0  0  0  0  0  0  0  0  0  0  0
   -0.0303    2.9638   -0.8408 H   0  0  0  0  0  0  0  0  0  0  0  0
   -0.9898    2.8050   -3.1050 H   0  0  0  0  0  0  0  0  0  0  0  0
    0.4448    0.9568   -2.3265 H   0  0  0  0  0  0  0  0  0  0  0  0
   -1.9966   -0.1065   -3.8162 H   0  0  0  0  0  0  0  0  0  0  0  0
   -0.6802    0.8251   -4.5696 H   0  0  0  0  0  0  0  0  0  0  0  0
   -0.3087   -1.5291   -4.7288 H   0  0  0  0  0  0  0  0  0  0  0  0
   -3.0014    1.5387   -3.3469 H   0  0  0  0  0  0  0  0  0  0  0  0
   -1.5965    4.6478   -1.4898 H   0  0  0  0  0  0  0  0  0  0  0  0
   -3.3687    2.0486    1.9963 H   0  0  0  0  0  0  0  0  0  0  0  0
   -5.4700    2.1148    0.6480 H   0  0  0  0  0  0  0  0  0  0  0  0
   -4.9656    0.2452   -0.8759 H   0  0  0  0  0  0  0  0  0  0  0  0
   -4.9948   -2.0787   -0.0566 H   0  0  0  0  0  0  0  0  0  0  0  0
   -2.8359   -0.8877   -0.0746 H   0  0  0  0  0  0  0  0  0  0  0  0
   -3.1673   -2.5126    2.4866 H   0  0  0  0  0  0  0  0  0  0  0  0
   -2.9878   -3.2149    0.8609 H   0  0  0  0  0  0  0  0  0  0  0  0
   -0.8868   -3.0099    1.9787 H   0  0  0  0  0  0  0  0  0  0  0  0
   -6.4190   -1.7073    1.8278 H   0  0  0  0  0  0  0  0  0  0  0  0
   -7.2668    0.6857   -0.3937 H   0  0  0  0  0  0  0  0  0  0  0  0
   -5.5902    1.6106    2.9823 H   0  0  0  0  0  0  0  0  0  0  0  0
  1  2  2  0  0  0  0
  2  3  1  0  0  0  0
  3  4  2  0  0  0  0
  4  5  1  0  0  0  0
  5  6  2  0  0  0  0
  1  6  1  0  0  0  0
  6  7  1  0  0  0  0
  5  8  1  0  0  0  0
  4  9  1  0  0  0  0
  2 10  1  0  0  0  0
 10 11  2  0  0  0  0
 11 12  1  0  0  0  0
 12 13  2  0  0  0  0
 13 14  1  0  0  0  0
 14 15  2  0  0  0  0
 15 16  1  0  0  0  0
 16 17  2  0  0  0  0
 17 18  1  0  0  0  0
 13 18  1  0  0  0  0
 18 19  2  0  0  0  0
 10 19  1  0  0  0  0
 16 20  1  0  0  0  0
 14 21  1  0  0  0  0
 11 22  1  0  0  0  0
 22 23  1  0  0  0  0
 23 24  1  0  0  0  0
 24 25  1  0  0  0  0
 25 26  1  0  0  0  0
 26 27  1  0  0  0  0
 27 28  1  0  0  0  0
 23 28  1  0  0  0  0
 27 29  1  0  0  0  0
 29 30  1  0  0  0  0
 26 31  1  0  0  0  0
 25 32  1  0  0  0  0
 24 33  1  0  0  0  0
 33 34  1  0  0  0  0
 34 35  1  0  0  0  0
 35 36  1  0  0  0  0
 36 37  1  0  0  0  0
 37 38  1  0  0  0  0
 38 39  1  0  0  0  0
 34 39  1  0  0  0  0
 38 40  1  0  0  0  0
 40 41  1  0  0  0  0
 37 42  1  0  0  0  0
 36 43  1  0  0  0  0
 35 44  1  0  0  0  0
  1 45  1  0  0  0  0
  3 46  1  0  0  0  0
  7 47  1  0  0  0  0
  8 48  1  0  0  0  0
  9 49  1  0  0  0  0
 12 50  1  0  0  0  0
 15 51  1  0  0  0  0
 17 52  1  0  0  0  0
 20 53  1  0  0  0  0
 21 54  1  0  0  0  0
 23 55  1  0  0  0  0
 24 56  1  0  0  0  0
 25 57  1  0  0  0  0
 26 58  1  0  0  0  0
 27 59  1  0  0  0  0
 29 60  1  0  0  0  0
 29 61  1  0  0  0  0
 30 62  1  0  0  0  0
 31 63  1  0  0  0  0
 32 64  1  0  0  0  0
 34 65  1  0  0  0  0
 35 66  1  0  0  0  0
 36 67  1  0  0  0  0
 37 68  1  0  0  0  0
 38 69  1  0  0  0  0
 40 70  1  0  0  0  0
 40 71  1  0  0  0  0
 41 72  1  0  0  0  0
 42 73  1  0  0  0  0
 43 74  1  0  0  0  0
 44 75  1  0  0  0  0
M  CHG  1  19   1
M  END
$$$$
