C7H6O4
APtclcactv06201804403D 0   0.00000     0.00000
 
 17 17  0  0  0  0  0  0  0  0999 V2000
    0.0321    1.2264    0.0112 C   0  0  0  0  0  0  0  0  0  0  0  0
   -0.7146    0.0473    0.0064 C   0  0  0  0  0  0  0  0  0  0  0  0
   -0.0626   -1.1867    0.0113 C   0  0  0  0  0  0  0  0  0  0  0  0
    1.3214   -1.2363    0.0209 C   0  0  0  0  0  0  0  0  0  0  0  0
    2.0597   -0.0617    0.0256 C   0  0  0  0  0  0  0  0  0  0  0  0
    1.4158    1.1673    0.0208 C   0  0  0  0  0  0  0  0  0  0  0  0
    2.1440    2.3148    0.0255 O   0  0  0  0  0  0  0  0  0  0  0  0
    1.9574   -2.4374    0.0262 O   0  0  0  0  0  0  0  0  0  0  0  0
   -2.1910    0.1053   -0.0034 C   0  0  0  0  0  0  0  0  0  0  0  0
   -2.7565    1.1802   -0.0073 O   0  0  0  0  0  0  0  0  0  0  0  0
   -2.9097   -1.0340   -0.0080 O   0  0  0  0  0  0  0  0  0  0  0  0
   -0.4682    2.1834    0.0029 H   0  0  0  0  0  0  0  0  0  0  0  0
   -0.6365   -2.1016    0.0080 H   0  0  0  0  0  0  0  0  0  0  0  0
    3.1388   -0.1040    0.0335 H   0  0  0  0  0  0  0  0  0  0  0  0
    2.3608    2.6466   -0.8566 H   0  0  0  0  0  0  0  0  0  0  0  0
    2.1475   -2.7856   -0.8557 H   0  0  0  0  0  0  0  0  0  0  0  0
   -3.8727   -0.9456   -0.0144 H   0  0  0  0  0  0  0  0  0  0  0  0
  1  2  2  0  0  0  0
  2  3  1  0  0  0  0
  3  4  2  0  0  0  0
  4  5  1  0  0  0  0
  5  6  2  0  0  0  0
  1  6  1  0  0  0  0
  6  7  1  0  0  0  0
  4  8  1  0  0  0  0
  2  9  1  0  0  0  0
  9 10  2  0  0  0  0
  9 11  1  0  0  0  0
  1 12  1  0  0  0  0
  3 13  1  0  0  0  0
  5 14  1  0  0  0  0
  7 15  1  0  0  0  0
  8 16  1  0  0  0  0
 11 17  1  0  0  0  0
M  END
$$$$
