C5H8O4
APtclcactv06211804313D 0   0.00000     0.00000
 
 17 16  0  0  0  0  0  0  0  0999 V2000
   -0.0000   -0.0503   -0.0000 C   0  0  0  0  0  0  0  0  0  0  0  0
   -1.2492    0.8331   -0.0000 C   0  0  0  0  0  0  0  0  0  0  0  0
   -2.4797   -0.0370   -0.0000 C   0  0  0  0  0  0  0  0  0  0  0  0
   -2.3688   -1.2401    0.0000 O   0  0  0  0  0  0  0  0  0  0  0  0
   -3.6988    0.5247   -0.0000 O   0  0  0  0  0  0  0  0  0  0  0  0
    1.2492    0.8331    0.0000 C   0  0  0  0  0  0  0  0  0  0  0  0
    2.4797   -0.0370    0.0000 C   0  0  0  0  0  0  0  0  0  0  0  0
    2.3688   -1.2401   -0.0000 O   0  0  0  0  0  0  0  0  0  0  0  0
    3.6988    0.5247    0.0000 O   0  0  0  0  0  0  0  0  0  0  0  0
   -0.0000   -0.6796    0.8900 H   0  0  0  0  0  0  0  0  0  0  0  0
    0.0000   -0.6796   -0.8900 H   0  0  0  0  0  0  0  0  0  0  0  0
   -1.2492    1.4624    0.8900 H   0  0  0  0  0  0  0  0  0  0  0  0
   -1.2492    1.4624   -0.8900 H   0  0  0  0  0  0  0  0  0  0  0  0
   -4.4581   -0.0742    0.0000 H   0  0  0  0  0  0  0  0  0  0  0  0
    1.2492    1.4624   -0.8900 H   0  0  0  0  0  0  0  0  0  0  0  0
    1.2492    1.4624    0.8900 H   0  0  0  0  0  0  0  0  0  0  0  0
    4.4581   -0.0742   -0.0000 H   0  0  0  0  0  0  0  0  0  0  0  0
  1  2  1  0  0  0  0
  2  3  1  0  0  0  0
  3  4  2  0  0  0  0
  3  5  1  0  0  0  0
  1  6  1  0  0  0  0
  6  7  1  0  0  0  0
  7  8  2  0  0  0  0
  7  9  1  0  0  0  0
  1 10  1  0  0  0  0
  1 11  1  0  0  0  0
  2 12  1  0  0  0  0
  2 13  1  0  0  0  0
  5 14  1  0  0  0  0
  6 15  1  0  0  0  0
  6 16  1  0  0  0  0
  9 17  1  0  0  0  0
M  END
$$$$
