C20H28O5
APtclcactv06291802573D 0   0.00000     0.00000
 
 53 56  0  0  0  0  0  0  0  0999 V2000
    0.7656    1.0273    1.9328 C   0  0  0  0  0  0  0  0  0  0  0  0
    0.4092    1.1907    0.4559 C   0  0  0  0  0  0  0  0  0  0  0  0
    1.1856    2.3548   -0.1062 C   0  0  0  0  0  0  0  0  0  0  0  0
    2.6806    2.0174    0.0084 C   0  0  0  0  0  0  0  0  0  0  0  0
    3.0208    0.7559   -0.7657 C   0  0  0  0  0  0  0  0  0  0  0  0
    2.1471   -0.4622   -0.4247 C   0  0  0  0  0  0  0  0  0  0  0  0
    0.7036   -0.0818   -0.3636 C   0  0  0  0  0  0  0  0  0  0  0  0
   -0.3369   -1.0555    0.2215 C   0  0  0  0  0  0  0  0  0  0  0  0
   -1.5885   -0.1728    0.1862 C   0  0  0  0  0  0  0  0  0  0  0  0
   -1.1140    1.2853    0.4163 C   0  0  0  0  0  0  0  0  0  0  0  0
   -1.6597    2.1750   -0.6884 C   0  0  0  0  0  0  0  0  0  0  0  0
   -3.1938    2.0612   -0.6899 C   0  0  0  0  0  0  0  0  0  0  0  0
   -3.6003    0.5843   -0.8061 C   0  0  0  0  0  0  0  0  0  0  0  0
   -2.3149   -0.2175   -1.1726 C   0  0  0  0  0  0  0  0  0  0  0  0
   -3.9564    0.0687    0.5846 C   0  0  0  0  0  0  0  0  0  0  0  0
   -5.1364    0.1105    1.1529 C   0  0  0  0  0  0  0  0  0  0  0  0
   -2.6825   -0.5105    1.1920 C   0  0  0  0  0  0  0  0  0  0  0  0
   -0.5186   -2.2952   -0.6097 C   0  0  0  0  0  0  0  0  0  0  0  0
   -0.4240   -2.2351   -1.8128 O   0  0  0  0  0  0  0  0  0  0  0  0
   -0.7858   -3.4686   -0.0152 O   0  0  0  0  0  0  0  0  0  0  0  0
    2.3622   -1.4611   -1.5951 C   0  0  0  0  0  0  0  0  0  0  0  0
    2.6580   -1.1384    0.8204 C   0  0  0  0  0  0  0  0  0  0  0  0
    1.9439   -1.2383    1.7899 O   0  0  0  0  0  0  0  0  0  0  0  0
    3.9065   -1.6301    0.8529 O   0  0  0  0  0  0  0  0  0  0  0  0
    3.4297    3.1080   -0.5515 O   0  0  0  0  0  0  0  0  0  0  0  0
    0.5182    1.9430    2.4698 H   0  0  0  0  0  0  0  0  0  0  0  0
    0.2002    0.1956    2.3531 H   0  0  0  0  0  0  0  0  0  0  0  0
    1.8327    0.8267    2.0290 H   0  0  0  0  0  0  0  0  0  0  0  0
    0.9208    2.5100   -1.1537 H   0  0  0  0  0  0  0  0  0  0  0  0
    0.9652    3.2598    0.4628 H   0  0  0  0  0  0  0  0  0  0  0  0
    2.9789    1.9134    1.0463 H   0  0  0  0  0  0  0  0  0  0  0  0
    2.9245    0.9614   -1.8367 H   0  0  0  0  0  0  0  0  0  0  0  0
    4.0668    0.4948   -0.5722 H   0  0  0  0  0  0  0  0  0  0  0  0
    0.3765    0.1235   -1.4160 H   0  0  0  0  0  0  0  0  0  0  0  0
   -0.0995   -1.3319    1.2505 H   0  0  0  0  0  0  0  0  0  0  0  0
   -1.4657    1.6369    1.3867 H   0  0  0  0  0  0  0  0  0  0  0  0
   -1.3841    3.2165   -0.4814 H   0  0  0  0  0  0  0  0  0  0  0  0
   -1.2528    1.8944   -1.6544 H   0  0  0  0  0  0  0  0  0  0  0  0
   -3.5893    2.4819    0.2355 H   0  0  0  0  0  0  0  0  0  0  0  0
   -3.5967    2.6194   -1.5374 H   0  0  0  0  0  0  0  0  0  0  0  0
   -4.4062    0.4269   -1.5262 H   0  0  0  0  0  0  0  0  0  0  0  0
   -1.7506    0.2579   -1.9677 H   0  0  0  0  0  0  0  0  0  0  0  0
   -2.6036   -1.2320   -1.4643 H   0  0  0  0  0  0  0  0  0  0  0  0
   -5.9743    0.5432    0.6264 H   0  0  0  0  0  0  0  0  0  0  0  0
   -5.2710   -0.2876    2.1477 H   0  0  0  0  0  0  0  0  0  0  0  0
   -2.7737   -1.5885    1.3070 H   0  0  0  0  0  0  0  0  0  0  0  0
   -2.4726   -0.0393    2.1507 H   0  0  0  0  0  0  0  0  0  0  0  0
   -0.8944   -4.2378   -0.5911 H   0  0  0  0  0  0  0  0  0  0  0  0
    3.4290   -1.6420   -1.7269 H   0  0  0  0  0  0  0  0  0  0  0  0
    1.8597   -2.4012   -1.3674 H   0  0  0  0  0  0  0  0  0  0  0  0
    1.9488   -1.0409   -2.5119 H   0  0  0  0  0  0  0  0  0  0  0  0
    4.1897   -2.0554    1.6739 H   0  0  0  0  0  0  0  0  0  0  0  0
    4.3881    2.9827   -0.5226 H   0  0  0  0  0  0  0  0  0  0  0  0
  1  2  1  0  0  0  0
  2  3  1  0  0  0  0
  3  4  1  0  0  0  0
  4  5  1  0  0  0  0
  5  6  1  0  0  0  0
  6  7  1  0  0  0  0
  2  7  1  0  0  0  0
  7  8  1  0  0  0  0
  8  9  1  0  0  0  0
  9 10  1  0  0  0  0
  2 10  1  0  0  0  0
 10 11  1  0  0  0  0
 11 12  1  0  0  0  0
 12 13  1  0  0  0  0
 13 14  1  0  0  0  0
  9 14  1  0  0  0  0
 13 15  1  0  0  0  0
 15 16  2  0  0  0  0
 15 17  1  0  0  0  0
  9 17  1  0  0  0  0
  8 18  1  0  0  0  0
 18 19  2  0  0  0  0
 18 20  1  0  0  0  0
  6 21  1  0  0  0  0
  6 22  1  0  0  0  0
 22 23  2  0  0  0  0
 22 24  1  0  0  0  0
  4 25  1  0  0  0  0
  1 26  1  0  0  0  0
  1 27  1  0  0  0  0
  1 28  1  0  0  0  0
  3 29  1  0  0  0  0
  3 30  1  0  0  0  0
  4 31  1  0  0  0  0
  5 32  1  0  0  0  0
  5 33  1  0  0  0  0
  7 34  1  0  0  0  0
  8 35  1  0  0  0  0
 10 36  1  0  0  0  0
 11 37  1  0  0  0  0
 11 38  1  0  0  0  0
 12 39  1  0  0  0  0
 12 40  1  0  0  0  0
 13 41  1  0  0  0  0
 14 42  1  0  0  0  0
 14 43  1  0  0  0  0
 16 44  1  0  0  0  0
 16 45  1  0  0  0  0
 17 46  1  0  0  0  0
 17 47  1  0  0  0  0
 20 48  1  0  0  0  0
 21 49  1  0  0  0  0
 21 50  1  0  0  0  0
 21 51  1  0  0  0  0
 24 52  1  0  0  0  0
 25 53  1  0  0  0  0
M  END
$$$$
