C15H26O3
APtclcactv06291802573D 0   0.00000     0.00000
 
 44 45  0  0  0  0  0  0  0  0999 V2000
    1.8579    0.6740    2.3680 C   0  0  0  0  0  0  0  0  0  0  0  0
    0.9513    1.1087    1.2148 C   0  0  0  0  0  0  0  0  0  0  0  0
    1.8106    1.6029    0.0486 C   0  0  0  0  0  0  0  0  0  0  0  0
    2.7187    0.4688   -0.4310 C   0  0  0  0  0  0  0  0  0  0  0  0
    1.8621   -0.7087   -0.9007 C   0  0  0  0  0  0  0  0  0  0  0  0
    1.0025   -1.2094    0.2626 C   0  0  0  0  0  0  0  0  0  0  0  0
    0.1056   -0.0774    0.7574 C   0  0  0  0  0  0  0  0  0  0  0  0
   -0.7753   -0.5717    1.9145 C   0  0  0  0  0  0  0  0  0  0  0  0
   -2.2385   -0.4139    1.4497 C   0  0  0  0  0  0  0  0  0  0  0  0
   -2.1746    0.6837    0.3585 C   0  0  0  0  0  0  0  0  0  0  0  0
   -0.8449    0.3652   -0.3706 C   0  0  0  0  0  0  0  0  0  0  0  0
   -3.3429    0.5662   -0.5861 C   0  0  0  0  0  0  0  0  0  0  0  0
   -4.1671    1.5732   -0.7369 C   0  0  0  0  0  0  0  0  0  0  0  0
   -3.5630   -0.7096   -1.3573 C   0  0  0  0  0  0  0  0  0  0  0  0
    0.1351   -2.3777   -0.2103 C   0  0  0  0  0  0  0  0  0  0  0  0
    0.9726   -3.4804   -0.5636 O   0  0  0  0  0  0  0  0  0  0  0  0
    3.5268    0.9318   -1.5148 O   0  0  0  0  0  0  0  0  0  0  0  0
    0.9637    2.0211   -1.0237 O   0  0  0  0  0  0  0  0  0  0  0  0
    2.4615    1.5208    2.6947 H   0  0  0  0  0  0  0  0  0  0  0  0
    1.2460    0.3220    3.1985 H   0  0  0  0  0  0  0  0  0  0  0  0
    2.5123   -0.1305    2.0323 H   0  0  0  0  0  0  0  0  0  0  0  0
    0.2970    1.9133    1.5505 H   0  0  0  0  0  0  0  0  0  0  0  0
    2.4218    2.4432    0.3781 H   0  0  0  0  0  0  0  0  0  0  0  0
    3.3609    0.1465    0.3887 H   0  0  0  0  0  0  0  0  0  0  0  0
    1.2162   -0.3854   -1.7170 H   0  0  0  0  0  0  0  0  0  0  0  0
    2.5099   -1.5141   -1.2468 H   0  0  0  0  0  0  0  0  0  0  0  0
    1.6488   -1.5424    1.0748 H   0  0  0  0  0  0  0  0  0  0  0  0
   -0.5612   -1.6193    2.1260 H   0  0  0  0  0  0  0  0  0  0  0  0
   -0.5983    0.0333    2.8038 H   0  0  0  0  0  0  0  0  0  0  0  0
   -2.6080   -1.3491    1.0289 H   0  0  0  0  0  0  0  0  0  0  0  0
   -2.8693   -0.0918    2.2782 H   0  0  0  0  0  0  0  0  0  0  0  0
   -2.1396    1.6753    0.8097 H   0  0  0  0  0  0  0  0  0  0  0  0
   -0.4593    1.2554   -0.8675 H   0  0  0  0  0  0  0  0  0  0  0  0
   -0.9873   -0.4425   -1.0887 H   0  0  0  0  0  0  0  0  0  0  0  0
   -5.0044    1.4890   -1.4138 H   0  0  0  0  0  0  0  0  0  0  0  0
   -4.0094    2.4876   -0.1842 H   0  0  0  0  0  0  0  0  0  0  0  0
   -2.7828   -1.4271   -1.1031 H   0  0  0  0  0  0  0  0  0  0  0  0
   -4.5371   -1.1260   -1.1005 H   0  0  0  0  0  0  0  0  0  0  0  0
   -3.5283   -0.4987   -2.4262 H   0  0  0  0  0  0  0  0  0  0  0  0
   -0.5402   -2.6766    0.5913 H   0  0  0  0  0  0  0  0  0  0  0  0
   -0.4463   -2.0700   -1.0794 H   0  0  0  0  0  0  0  0  0  0  0  0
    0.4889   -4.2583   -0.8732 H   0  0  0  0  0  0  0  0  0  0  0  0
    4.1288    0.2636   -1.8700 H   0  0  0  0  0  0  0  0  0  0  0  0
    1.4419    2.3473   -1.7983 H   0  0  0  0  0  0  0  0  0  0  0  0
  1  2  1  0  0  0  0
  2  3  1  0  0  0  0
  3  4  1  0  0  0  0
  4  5  1  0  0  0  0
  5  6  1  0  0  0  0
  6  7  1  0  0  0  0
  2  7  1  0  0  0  0
  7  8  1  0  0  0  0
  8  9  1  0  0  0  0
  9 10  1  0  0  0  0
 10 11  1  0  0  0  0
  7 11  1  0  0  0  0
 10 12  1  0  0  0  0
 12 13  2  0  0  0  0
 12 14  1  0  0  0  0
  6 15  1  0  0  0  0
 15 16  1  0  0  0  0
  4 17  1  0  0  0  0
  3 18  1  0  0  0  0
  1 19  1  0  0  0  0
  1 20  1  0  0  0  0
  1 21  1  0  0  0  0
  2 22  1  0  0  0  0
  3 23  1  0  0  0  0
  4 24  1  0  0  0  0
  5 25  1  0  0  0  0
  5 26  1  0  0  0  0
  6 27  1  0  0  0  0
  8 28  1  0  0  0  0
  8 29  1  0  0  0  0
  9 30  1  0  0  0  0
  9 31  1  0  0  0  0
 10 32  1  0  0  0  0
 11 33  1  0  0  0  0
 11 34  1  0  0  0  0
 13 35  1  0  0  0  0
 13 36  1  0  0  0  0
 14 37  1  0  0  0  0
 14 38  1  0  0  0  0
 14 39  1  0  0  0  0
 15 40  1  0  0  0  0
 15 41  1  0  0  0  0
 16 42  1  0  0  0  0
 17 43  1  0  0  0  0
 18 44  1  0  0  0  0
M  END
$$$$
