C20H28O6
APtclcactv06291802573D 0   0.00000     0.00000
 
 54 57  0  0  0  0  0  0  0  0999 V2000
    1.0676    1.0019    1.9634 C   0  0  0  0  0  0  0  0  0  0  0  0
    0.6225    1.1765    0.5123 C   0  0  0  0  0  0  0  0  0  0  0  0
    1.3391    2.3648   -0.0780 C   0  0  0  0  0  0  0  0  0  0  0  0
    2.8452    2.0585   -0.0570 C   0  0  0  0  0  0  0  0  0  0  0  0
    3.1645    0.8154   -0.8690 C   0  0  0  0  0  0  0  0  0  0  0  0
    2.3398   -0.4263   -0.4921 C   0  0  0  0  0  0  0  0  0  0  0  0
    0.8945   -0.0787   -0.3413 C   0  0  0  0  0  0  0  0  0  0  0  0
   -0.0902   -1.0816    0.2887 C   0  0  0  0  0  0  0  0  0  0  0  0
   -1.3597   -0.2257    0.3399 C   0  0  0  0  0  0  0  0  0  0  0  0
   -0.9019    1.2394    0.5617 C   0  0  0  0  0  0  0  0  0  0  0  0
   -1.5273    2.1300   -0.4994 C   0  0  0  0  0  0  0  0  0  0  0  0
   -3.0563    1.9875   -0.4084 C   0  0  0  0  0  0  0  0  0  0  0  0
   -3.4422    0.5045   -0.5193 C   0  0  0  0  0  0  0  0  0  0  0  0
   -2.1663   -0.2680   -0.9727 C   0  0  0  0  0  0  0  0  0  0  0  0
   -3.7023   -0.0327    0.8847 C   0  0  0  0  0  0  0  0  0  0  0  0
   -4.8453   -0.0158    1.5253 C   0  0  0  0  0  0  0  0  0  0  0  0
   -2.3845   -0.5985    1.4044 C   0  0  0  0  0  0  0  0  0  0  0  0
   -4.5495    0.2899   -1.3994 O   0  0  0  0  0  0  0  0  0  0  0  0
   -0.2952   -2.3133   -0.5487 C   0  0  0  0  0  0  0  0  0  0  0  0
   -0.2721   -2.2350   -1.7542 O   0  0  0  0  0  0  0  0  0  0  0  0
   -0.5039   -3.5000    0.0429 O   0  0  0  0  0  0  0  0  0  0  0  0
    2.5069   -1.4067   -1.6857 C   0  0  0  0  0  0  0  0  0  0  0  0
    2.9384   -1.1049    0.7118 C   0  0  0  0  0  0  0  0  0  0  0  0
    2.2855   -1.2321    1.7205 O   0  0  0  0  0  0  0  0  0  0  0  0
    4.1972   -1.5684    0.6642 O   0  0  0  0  0  0  0  0  0  0  0  0
    3.5365    3.1727   -0.6439 O   0  0  0  0  0  0  0  0  0  0  0  0
    0.8096    1.8950    2.5326 H   0  0  0  0  0  0  0  0  0  0  0  0
    0.5644    0.1373    2.3963 H   0  0  0  0  0  0  0  0  0  0  0  0
    2.1463    0.8489    1.9967 H   0  0  0  0  0  0  0  0  0  0  0  0
    1.0091    2.5266   -1.1059 H   0  0  0  0  0  0  0  0  0  0  0  0
    1.1333    3.2572    0.5156 H   0  0  0  0  0  0  0  0  0  0  0  0
    3.2064    1.9465    0.9599 H   0  0  0  0  0  0  0  0  0  0  0  0
    2.9957    1.0328   -1.9289 H   0  0  0  0  0  0  0  0  0  0  0  0
    4.2258    0.5756   -0.7453 H   0  0  0  0  0  0  0  0  0  0  0  0
    0.5024    0.1337   -1.3701 H   0  0  0  0  0  0  0  0  0  0  0  0
    0.2129   -1.3676    1.2979 H   0  0  0  0  0  0  0  0  0  0  0  0
   -1.2046    1.5724    1.5550 H   0  0  0  0  0  0  0  0  0  0  0  0
   -1.2574    3.1738   -0.2988 H   0  0  0  0  0  0  0  0  0  0  0  0
   -1.1752    1.8646   -1.4908 H   0  0  0  0  0  0  0  0  0  0  0  0
   -3.4008    2.3878    0.5466 H   0  0  0  0  0  0  0  0  0  0  0  0
   -3.5216    2.5493   -1.2204 H   0  0  0  0  0  0  0  0  0  0  0  0
   -1.6597    0.2267   -1.7946 H   0  0  0  0  0  0  0  0  0  0  0  0
   -2.4530   -1.2851   -1.2591 H   0  0  0  0  0  0  0  0  0  0  0  0
   -5.7206    0.4095    1.0569 H   0  0  0  0  0  0  0  0  0  0  0  0
   -4.9121   -0.4272    2.5216 H   0  0  0  0  0  0  0  0  0  0  0  0
   -2.4507   -1.6797    1.5071 H   0  0  0  0  0  0  0  0  0  0  0  0
   -2.1251   -0.1383    2.3564 H   0  0  0  0  0  0  0  0  0  0  0  0
   -5.3557    0.7554   -1.1379 H   0  0  0  0  0  0  0  0  0  0  0  0
   -0.6305   -4.2634   -0.5370 H   0  0  0  0  0  0  0  0  0  0  0  0
    3.5677   -1.5616   -1.8828 H   0  0  0  0  0  0  0  0  0  0  0  0
    2.0398   -2.3605   -1.4406 H   0  0  0  0  0  0  0  0  0  0  0  0
    2.0305   -0.9857   -2.5711 H   0  0  0  0  0  0  0  0  0  0  0  0
    4.5379   -1.9965    1.4615 H   0  0  0  0  0  0  0  0  0  0  0  0
    4.4974    3.0680   -0.6736 H   0  0  0  0  0  0  0  0  0  0  0  0
  1  2  1  0  0  0  0
  2  3  1  0  0  0  0
  3  4  1  0  0  0  0
  4  5  1  0  0  0  0
  5  6  1  0  0  0  0
  6  7  1  0  0  0  0
  2  7  1  0  0  0  0
  7  8  1  0  0  0  0
  8  9  1  0  0  0  0
  9 10  1  0  0  0  0
  2 10  1  0  0  0  0
 10 11  1  0  0  0  0
 11 12  1  0  0  0  0
 12 13  1  0  0  0  0
 13 14  1  0  0  0  0
  9 14  1  0  0  0  0
 13 15  1  0  0  0  0
 15 16  2  0  0  0  0
 15 17  1  0  0  0  0
  9 17  1  0  0  0  0
 13 18  1  0  0  0  0
  8 19  1  0  0  0  0
 19 20  2  0  0  0  0
 19 21  1  0  0  0  0
  6 22  1  0  0  0  0
  6 23  1  0  0  0  0
 23 24  2  0  0  0  0
 23 25  1  0  0  0  0
  4 26  1  0  0  0  0
  1 27  1  0  0  0  0
  1 28  1  0  0  0  0
  1 29  1  0  0  0  0
  3 30  1  0  0  0  0
  3 31  1  0  0  0  0
  4 32  1  0  0  0  0
  5 33  1  0  0  0  0
  5 34  1  0  0  0  0
  7 35  1  0  0  0  0
  8 36  1  0  0  0  0
 10 37  1  0  0  0  0
 11 38  1  0  0  0  0
 11 39  1  0  0  0  0
 12 40  1  0  0  0  0
 12 41  1  0  0  0  0
 14 42  1  0  0  0  0
 14 43  1  0  0  0  0
 16 44  1  0  0  0  0
 16 45  1  0  0  0  0
 17 46  1  0  0  0  0
 17 47  1  0  0  0  0
 18 48  1  0  0  0  0
 21 49  1  0  0  0  0
 22 50  1  0  0  0  0
 22 51  1  0  0  0  0
 22 52  1  0  0  0  0
 25 53  1  0  0  0  0
 26 54  1  0  0  0  0
M  END
$$$$
