C10H20
APtclcactv06211804403D 0   0.00000     0.00000
 
 30 30  0  0  0  0  0  0  0  0999 V2000
    3.6166   -0.0000   -0.1966 C   0  0  0  0  0  0  0  0  0  0  0  0
    2.1741    0.0000    0.3134 C   0  0  0  0  0  0  0  0  0  0  0  0
    1.4529    1.2492   -0.1966 C   0  0  0  0  0  0  0  0  0  0  0  0
    0.0104    1.2492    0.3133 C   0  0  0  0  0  0  0  0  0  0  0  0
   -0.7109    0.0000   -0.1967 C   0  0  0  0  0  0  0  0  0  0  0  0
    0.0104   -1.2492    0.3133 C   0  0  0  0  0  0  0  0  0  0  0  0
    1.4529   -1.2492   -0.1966 C   0  0  0  0  0  0  0  0  0  0  0  0
   -2.1534   -0.0000    0.3133 C   0  0  0  0  0  0  0  0  0  0  0  0
   -2.8746    1.2492   -0.1968 C   0  0  0  0  0  0  0  0  0  0  0  0
   -2.8746   -1.2492   -0.1968 C   0  0  0  0  0  0  0  0  0  0  0  0
    4.1304    0.8900    0.1668 H   0  0  0  0  0  0  0  0  0  0  0  0
    4.1304   -0.8900    0.1668 H   0  0  0  0  0  0  0  0  0  0  0  0
    3.6166   -0.0000   -1.2866 H   0  0  0  0  0  0  0  0  0  0  0  0
    2.1741    0.0000    1.4034 H   0  0  0  0  0  0  0  0  0  0  0  0
    1.9667    2.1392    0.1667 H   0  0  0  0  0  0  0  0  0  0  0  0
    1.4529    1.2492   -1.2866 H   0  0  0  0  0  0  0  0  0  0  0  0
    0.0103    1.2492    1.4033 H   0  0  0  0  0  0  0  0  0  0  0  0
   -0.5035    2.1392   -0.0500 H   0  0  0  0  0  0  0  0  0  0  0  0
   -0.7108   -0.0000   -1.2867 H   0  0  0  0  0  0  0  0  0  0  0  0
    0.0103   -1.2492    1.4033 H   0  0  0  0  0  0  0  0  0  0  0  0
   -0.5035   -2.1392   -0.0500 H   0  0  0  0  0  0  0  0  0  0  0  0
    1.4529   -1.2492   -1.2866 H   0  0  0  0  0  0  0  0  0  0  0  0
    1.9667   -2.1392    0.1667 H   0  0  0  0  0  0  0  0  0  0  0  0
   -2.1534    0.0000    1.4033 H   0  0  0  0  0  0  0  0  0  0  0  0
   -2.8746    1.2492   -1.2868 H   0  0  0  0  0  0  0  0  0  0  0  0
   -3.9023    1.2492    0.1666 H   0  0  0  0  0  0  0  0  0  0  0  0
   -2.3608    2.1392    0.1666 H   0  0  0  0  0  0  0  0  0  0  0  0
   -2.3608   -2.1392    0.1666 H   0  0  0  0  0  0  0  0  0  0  0  0
   -3.9023   -1.2492    0.1666 H   0  0  0  0  0  0  0  0  0  0  0  0
   -2.8746   -1.2492   -1.2868 H   0  0  0  0  0  0  0  0  0  0  0  0
  1  2  1  0  0  0  0
  2  3  1  0  0  0  0
  3  4  1  0  0  0  0
  4  5  1  0  0  0  0
  5  6  1  0  0  0  0
  6  7  1  0  0  0  0
  2  7  1  0  0  0  0
  5  8  1  0  0  0  0
  8  9  1  0  0  0  0
  8 10  1  0  0  0  0
  1 11  1  0  0  0  0
  1 12  1  0  0  0  0
  1 13  1  0  0  0  0
  2 14  1  0  0  0  0
  3 15  1  0  0  0  0
  3 16  1  0  0  0  0
  4 17  1  0  0  0  0
  4 18  1  0  0  0  0
  5 19  1  0  0  0  0
  6 20  1  0  0  0  0
  6 21  1  0  0  0  0
  7 22  1  0  0  0  0
  7 23  1  0  0  0  0
  8 24  1  0  0  0  0
  9 25  1  0  0  0  0
  9 26  1  0  0  0  0
  9 27  1  0  0  0  0
 10 28  1  0  0  0  0
 10 29  1  0  0  0  0
 10 30  1  0  0  0  0
M  END
$$$$
