C10H14
APtclcactv06211804403D 0   0.00000     0.00000
 
 24 24  0  0  0  0  0  0  0  0999 V2000
    3.6022   -0.2543    0.0018 C   0  0  0  0  0  0  0  0  0  0  0  0
    2.1052   -0.0810    0.0011 C   0  0  0  0  0  0  0  0  0  0  0  0
    1.5562    1.1877   -0.0012 C   0  0  0  0  0  0  0  0  0  0  0  0
    0.1831    1.3466   -0.0017 C   0  0  0  0  0  0  0  0  0  0  0  0
   -0.6412    0.2369   -0.0004 C   0  0  0  0  0  0  0  0  0  0  0  0
   -0.0923   -1.0318    0.0010 C   0  0  0  0  0  0  0  0  0  0  0  0
    1.2809   -1.1908   -0.0029 C   0  0  0  0  0  0  0  0  0  0  0  0
   -2.1382    0.4102    0.0000 C   0  0  0  0  0  0  0  0  0  0  0  0
   -2.7282   -0.2488   -1.2484 C   0  0  0  0  0  0  0  0  0  0  0  0
   -2.7273   -0.2465    1.2501 C   0  0  0  0  0  0  0  0  0  0  0  0
    3.9629   -0.2943    1.0296 H   0  0  0  0  0  0  0  0  0  0  0  0
    3.8609   -1.1811   -0.5104 H   0  0  0  0  0  0  0  0  0  0  0  0
    4.0655    0.5871   -0.5134 H   0  0  0  0  0  0  0  0  0  0  0  0
    2.2002    2.0547   -0.0022 H   0  0  0  0  0  0  0  0  0  0  0  0
   -0.2458    2.3378   -0.0028 H   0  0  0  0  0  0  0  0  0  0  0  0
   -0.7362   -1.8988    0.0024 H   0  0  0  0  0  0  0  0  0  0  0  0
    1.7098   -2.1820   -0.0018 H   0  0  0  0  0  0  0  0  0  0  0  0
   -2.3809    1.4728   -0.0008 H   0  0  0  0  0  0  0  0  0  0  0  0
   -2.4855   -1.3114   -1.2475 H   0  0  0  0  0  0  0  0  0  0  0  0
   -3.8110   -0.1234   -1.2481 H   0  0  0  0  0  0  0  0  0  0  0  0
   -2.3086    0.2191   -2.1390 H   0  0  0  0  0  0  0  0  0  0  0  0
   -2.4845   -1.3091    1.2509 H   0  0  0  0  0  0  0  0  0  0  0  0
   -2.3069    0.2229    2.1395 H   0  0  0  0  0  0  0  0  0  0  0  0
   -3.8100   -0.1212    1.2504 H   0  0  0  0  0  0  0  0  0  0  0  0
  1  2  1  0  0  0  0
  2  3  2  0  0  0  0
  3  4  1  0  0  0  0
  4  5  2  0  0  0  0
  5  6  1  0  0  0  0
  6  7  2  0  0  0  0
  2  7  1  0  0  0  0
  5  8  1  0  0  0  0
  8  9  1  0  0  0  0
  8 10  1  0  0  0  0
  1 11  1  0  0  0  0
  1 12  1  0  0  0  0
  1 13  1  0  0  0  0
  3 14  1  0  0  0  0
  4 15  1  0  0  0  0
  6 16  1  0  0  0  0
  7 17  1  0  0  0  0
  8 18  1  0  0  0  0
  9 19  1  0  0  0  0
  9 20  1  0  0  0  0
  9 21  1  0  0  0  0
 10 22  1  0  0  0  0
 10 23  1  0  0  0  0
 10 24  1  0  0  0  0
M  END
$$$$
