C11H11NO2
APtclcactv06211806273D 0   0.00000     0.00000
 
 25 26  0  0  0  0  0  0  0  0999 V2000
    4.3948   -0.8528   -0.7154 C   0  0  0  0  0  0  0  0  0  0  0  0
    3.5727   -0.3641    0.3771 O   0  0  0  0  0  0  0  0  0  0  0  0
    2.3156   -0.0006    0.0784 C   0  0  0  0  0  0  0  0  0  0  0  0
    1.9153   -0.0878   -1.0583 O   0  0  0  0  0  0  0  0  0  0  0  0
    1.4034    0.5164    1.1609 C   0  0  0  0  0  0  0  0  0  0  0  0
    0.0593    0.8517    0.5675 C   0  0  0  0  0  0  0  0  0  0  0  0
   -0.3472    2.0582    0.1420 C   0  0  0  0  0  0  0  0  0  0  0  0
   -1.6272    1.9780   -0.3347 N   0  0  0  0  0  0  0  0  0  0  0  0
   -2.0875    0.6849   -0.2249 C   0  0  0  0  0  0  0  0  0  0  0  0
   -3.2888    0.0650   -0.5520 C   0  0  0  0  0  0  0  0  0  0  0  0
   -3.4501   -1.2828   -0.3153 C   0  0  0  0  0  0  0  0  0  0  0  0
   -2.4248   -2.0303    0.2471 C   0  0  0  0  0  0  0  0  0  0  0  0
   -1.2364   -1.4415    0.5765 C   0  0  0  0  0  0  0  0  0  0  0  0
   -1.0491   -0.0786    0.3396 C   0  0  0  0  0  0  0  0  0  0  0  0
    5.3842   -1.1113   -0.3382 H   0  0  0  0  0  0  0  0  0  0  0  0
    3.9303   -1.7368   -1.1524 H   0  0  0  0  0  0  0  0  0  0  0  0
    4.4870   -0.0774   -1.4759 H   0  0  0  0  0  0  0  0  0  0  0  0
    1.2812   -0.2476    1.9287 H   0  0  0  0  0  0  0  0  0  0  0  0
    1.8379    1.4119    1.6052 H   0  0  0  0  0  0  0  0  0  0  0  0
    0.2479    2.9590    0.1720 H   0  0  0  0  0  0  0  0  0  0  0  0
   -2.1348    2.7213   -0.6962 H   0  0  0  0  0  0  0  0  0  0  0  0
   -4.0927    0.6382   -0.9897 H   0  0  0  0  0  0  0  0  0  0  0  0
   -4.3838   -1.7622   -0.5696 H   0  0  0  0  0  0  0  0  0  0  0  0
   -2.5675   -3.0858    0.4261 H   0  0  0  0  0  0  0  0  0  0  0  0
   -0.4432   -2.0295    1.0141 H   0  0  0  0  0  0  0  0  0  0  0  0
  1  2  1  0  0  0  0
  2  3  1  0  0  0  0
  3  4  2  0  0  0  0
  3  5  1  0  0  0  0
  5  6  1  0  0  0  0
  6  7  2  0  0  0  0
  7  8  1  0  0  0  0
  8  9  1  0  0  0  0
  9 10  2  0  0  0  0
 10 11  1  0  0  0  0
 11 12  2  0  0  0  0
 12 13  1  0  0  0  0
 13 14  2  0  0  0  0
  9 14  1  0  0  0  0
  6 14  1  0  0  0  0
  1 15  1  0  0  0  0
  1 16  1  0  0  0  0
  1 17  1  0  0  0  0
  5 18  1  0  0  0  0
  5 19  1  0  0  0  0
  7 20  1  0  0  0  0
  8 21  1  0  0  0  0
 10 22  1  0  0  0  0
 11 23  1  0  0  0  0
 12 24  1  0  0  0  0
 13 25  1  0  0  0  0
M  END
$$$$
