C8H8O3
APtclcactv06211804403D 0   0.00000     0.00000
 
 19 19  0  0  0  0  0  0  0  0999 V2000
    3.8399    0.7822   -0.0016 C   0  0  0  0  0  0  0  0  0  0  0  0
    3.0802   -0.4281   -0.0006 O   0  0  0  0  0  0  0  0  0  0  0  0
    1.7286   -0.3071   -0.0005 C   0  0  0  0  0  0  0  0  0  0  0  0
    0.9308   -1.4455    0.0005 C   0  0  0  0  0  0  0  0  0  0  0  0
   -0.4409   -1.3272    0.0005 C   0  0  0  0  0  0  0  0  0  0  0  0
   -1.0311   -0.0600    0.0001 C   0  0  0  0  0  0  0  0  0  0  0  0
   -0.2252    1.0822   -0.0005 C   0  0  0  0  0  0  0  0  0  0  0  0
    1.1457    0.9549    0.0043 C   0  0  0  0  0  0  0  0  0  0  0  0
   -2.4999    0.0715   -0.0003 C   0  0  0  0  0  0  0  0  0  0  0  0
   -3.1989   -0.9224   -0.0003 O   0  0  0  0  0  0  0  0  0  0  0  0
   -3.0669    1.2939   -0.0008 O   0  0  0  0  0  0  0  0  0  0  0  0
    3.5978    1.3624   -0.8921 H   0  0  0  0  0  0  0  0  0  0  0  0
    3.5980    1.3638    0.8879 H   0  0  0  0  0  0  0  0  0  0  0  0
    4.9035    0.5436   -0.0016 H   0  0  0  0  0  0  0  0  0  0  0  0
    1.3876   -2.4241    0.0008 H   0  0  0  0  0  0  0  0  0  0  0  0
   -1.0600   -2.2121    0.0006 H   0  0  0  0  0  0  0  0  0  0  0  0
   -0.6772    2.0631   -0.0012 H   0  0  0  0  0  0  0  0  0  0  0  0
    1.7692    1.8368    0.0043 H   0  0  0  0  0  0  0  0  0  0  0  0
   -4.0333    1.3296   -0.0011 H   0  0  0  0  0  0  0  0  0  0  0  0
  1  2  1  0  0  0  0
  2  3  1  0  0  0  0
  3  4  2  0  0  0  0
  4  5  1  0  0  0  0
  5  6  2  0  0  0  0
  6  7  1  0  0  0  0
  7  8  2  0  0  0  0
  3  8  1  0  0  0  0
  6  9  1  0  0  0  0
  9 10  2  0  0  0  0
  9 11  1  0  0  0  0
  1 12  1  0  0  0  0
  1 13  1  0  0  0  0
  1 14  1  0  0  0  0
  4 15  1  0  0  0  0
  5 16  1  0  0  0  0
  7 17  1  0  0  0  0
  8 18  1  0  0  0  0
 11 19  1  0  0  0  0
M  END
$$$$
