C25H24O15
APtclcactv06291802583D 0   0.00000     0.00000
 
 64 67  0  0  0  0  0  0  0  0999 V2000
   -2.0957    3.1805    2.0574 C   0  0  0  0  0  0  0  0  0  0  0  0
   -2.6707    2.0418    2.7014 O   0  0  0  0  0  0  0  0  0  0  0  0
   -1.9659    0.8800    2.6465 C   0  0  0  0  0  0  0  0  0  0  0  0
   -2.4687   -0.2693    3.2537 C   0  0  0  0  0  0  0  0  0  0  0  0
   -1.7523   -1.4568    3.1999 C   0  0  0  0  0  0  0  0  0  0  0  0
   -0.5400   -1.5052    2.5460 C   0  0  0  0  0  0  0  0  0  0  0  0
   -0.0295   -0.3565    1.9347 C   0  0  0  0  0  0  0  0  0  0  0  0
   -0.7541    0.8378    1.9839 C   0  0  0  0  0  0  0  0  0  0  0  0
    1.2672   -0.4060    1.2346 C   0  0  0  0  0  0  0  0  0  0  0  0
    1.5157   -1.4428    0.3862 C   0  0  0  0  0  0  0  0  0  0  0  0
    2.7586   -1.5046   -0.2955 C   0  0  0  0  0  0  0  0  0  0  0  0
    3.0162   -2.4180   -1.0632 O   0  0  0  0  0  0  0  0  0  0  0  0
    3.7249   -0.4241   -0.0411 C   0  0  0  0  0  0  0  0  0  0  0  0
    4.9759   -0.4046   -0.6712 C   0  0  0  0  0  0  0  0  0  0  0  0
    5.8558    0.6283   -0.4060 C   0  0  0  0  0  0  0  0  0  0  0  0
    5.4999    1.6394    0.4798 C   0  0  0  0  0  0  0  0  0  0  0  0
    4.2639    1.6265    1.1073 C   0  0  0  0  0  0  0  0  0  0  0  0
    3.3676    0.5996    0.8542 C   0  0  0  0  0  0  0  0  0  0  0  0
    2.1583    0.5763    1.4528 O   0  0  0  0  0  0  0  0  0  0  0  0
    6.3716    2.6489    0.7329 O   0  0  0  0  0  0  0  0  0  0  0  0
    5.3218   -1.3926   -1.5350 O   0  0  0  0  0  0  0  0  0  0  0  0
    0.5794   -2.4117    0.1946 O   0  0  0  0  0  0  0  0  0  0  0  0
    0.1083   -2.6035   -1.1408 C   0  0  0  0  0  0  0  0  0  0  0  0
   -0.7989   -3.8357   -1.1901 C   0  0  0  0  0  0  0  0  0  0  0  0
   -2.0198   -3.5973   -0.2963 C   0  0  0  0  0  0  0  0  0  0  0  0
   -2.7388   -2.3271   -0.7610 C   0  0  0  0  0  0  0  0  0  0  0  0
   -1.7567   -1.1532   -0.7283 C   0  0  0  0  0  0  0  0  0  0  0  0
   -0.6306   -1.4528   -1.5555 O   0  0  0  0  0  0  0  0  0  0  0  0
   -2.4507    0.1074   -1.2481 C   0  0  0  0  0  0  0  0  0  0  0  0
   -1.5586    1.2443   -1.1068 O   0  0  0  0  0  0  0  0  0  0  0  0
   -2.0194    2.4354   -1.5197 C   0  0  0  0  0  0  0  0  0  0  0  0
   -3.1314    2.5252   -1.9838 O   0  0  0  0  0  0  0  0  0  0  0  0
   -1.1499    3.6609   -1.4044 C   0  0  0  0  0  0  0  0  0  0  0  0
   -1.8966    4.8582   -1.9334 C   0  0  0  0  0  0  0  0  0  0  0  0
   -3.0196    4.7297   -2.3602 O   0  0  0  0  0  0  0  0  0  0  0  0
   -1.3141    6.0675   -1.9304 O   0  0  0  0  0  0  0  0  0  0  0  0
   -3.2191   -2.5108   -2.0942 O   0  0  0  0  0  0  0  0  0  0  0  0
   -2.9084   -4.7122   -0.3934 O   0  0  0  0  0  0  0  0  0  0  0  0
   -1.2279   -4.0594   -2.5347 O   0  0  0  0  0  0  0  0  0  0  0  0
   -3.6630   -0.2270    3.9004 O   0  0  0  0  0  0  0  0  0  0  0  0
   -2.7579    4.0381    2.1762 H   0  0  0  0  0  0  0  0  0  0  0  0
   -1.1286    3.4030    2.5082 H   0  0  0  0  0  0  0  0  0  0  0  0
   -1.9619    2.9689    0.9965 H   0  0  0  0  0  0  0  0  0  0  0  0
   -2.1457   -2.3451    3.6718 H   0  0  0  0  0  0  0  0  0  0  0  0
    0.0157   -2.4304    2.5062 H   0  0  0  0  0  0  0  0  0  0  0  0
   -0.3636    1.7276    1.5127 H   0  0  0  0  0  0  0  0  0  0  0  0
    6.8222    0.6497   -0.8878 H   0  0  0  0  0  0  0  0  0  0  0  0
    3.9990    2.4169    1.7939 H   0  0  0  0  0  0  0  0  0  0  0  0
    6.2804    3.4058    0.1380 H   0  0  0  0  0  0  0  0  0  0  0  0
    5.0781   -1.2148   -2.4538 H   0  0  0  0  0  0  0  0  0  0  0  0
    0.9575   -2.7504   -1.8083 H   0  0  0  0  0  0  0  0  0  0  0  0
   -0.2500   -4.7068   -0.8322 H   0  0  0  0  0  0  0  0  0  0  0  0
   -1.6966   -3.4759    0.7376 H   0  0  0  0  0  0  0  0  0  0  0  0
   -3.5772   -2.1192   -0.0962 H   0  0  0  0  0  0  0  0  0  0  0  0
   -1.4217   -0.9879    0.2958 H   0  0  0  0  0  0  0  0  0  0  0  0
   -2.7059   -0.0257   -2.2994 H   0  0  0  0  0  0  0  0  0  0  0  0
   -3.3595    0.2850   -0.6732 H   0  0  0  0  0  0  0  0  0  0  0  0
   -0.8922    3.8264   -0.3583 H   0  0  0  0  0  0  0  0  0  0  0  0
   -0.2386    3.5156   -1.9845 H   0  0  0  0  0  0  0  0  0  0  0  0
   -1.8324    6.8054   -2.2797 H   0  0  0  0  0  0  0  0  0  0  0  0
   -3.8437   -3.2429   -2.1899 H   0  0  0  0  0  0  0  0  0  0  0  0
   -2.5158   -5.5529   -0.1208 H   0  0  0  0  0  0  0  0  0  0  0  0
   -0.5036   -4.1407   -3.1703 H   0  0  0  0  0  0  0  0  0  0  0  0
   -4.4225   -0.4300    3.3374 H   0  0  0  0  0  0  0  0  0  0  0  0
  1  2  1  0  0  0  0
  2  3  1  0  0  0  0
  3  4  2  0  0  0  0
  4  5  1  0  0  0  0
  5  6  2  0  0  0  0
  6  7  1  0  0  0  0
  7  8  2  0  0  0  0
  3  8  1  0  0  0  0
  7  9  1  0  0  0  0
  9 10  2  0  0  0  0
 10 11  1  0  0  0  0
 11 12  2  0  0  0  0
 11 13  1  0  0  0  0
 13 14  2  0  0  0  0
 14 15  1  0  0  0  0
 15 16  2  0  0  0  0
 16 17  1  0  0  0  0
 17 18  2  0  0  0  0
 13 18  1  0  0  0  0
 18 19  1  0  0  0  0
  9 19  1  0  0  0  0
 16 20  1  0  0  0  0
 14 21  1  0  0  0  0
 10 22  1  0  0  0  0
 22 23  1  0  0  0  0
 23 24  1  0  0  0  0
 24 25  1  0  0  0  0
 25 26  1  0  0  0  0
 26 27  1  0  0  0  0
 27 28  1  0  0  0  0
 23 28  1  0  0  0  0
 27 29  1  0  0  0  0
 29 30  1  0  0  0  0
 30 31  1  0  0  0  0
 31 32  2  0  0  0  0
 31 33  1  0  0  0  0
 33 34  1  0  0  0  0
 34 35  2  0  0  0  0
 34 36  1  0  0  0  0
 26 37  1  0  0  0  0
 25 38  1  0  0  0  0
 24 39  1  0  0  0  0
  4 40  1  0  0  0  0
  1 41  1  0  0  0  0
  1 42  1  0  0  0  0
  1 43  1  0  0  0  0
  5 44  1  0  0  0  0
  6 45  1  0  0  0  0
  8 46  1  0  0  0  0
 15 47  1  0  0  0  0
 17 48  1  0  0  0  0
 20 49  1  0  0  0  0
 21 50  1  0  0  0  0
 23 51  1  0  0  0  0
 24 52  1  0  0  0  0
 25 53  1  0  0  0  0
 26 54  1  0  0  0  0
 27 55  1  0  0  0  0
 29 56  1  0  0  0  0
 29 57  1  0  0  0  0
 33 58  1  0  0  0  0
 33 59  1  0  0  0  0
 36 60  1  0  0  0  0
 37 61  1  0  0  0  0
 38 62  1  0  0  0  0
 39 63  1  0  0  0  0
 40 64  1  0  0  0  0
M  END
$$$$
