C28H28O18
APtclcactv06291802583D 0   0.00000     0.00000
 
 74 78  0  0  0  0  0  0  0  0999 V2000
   -2.2697    3.5819   -0.3027 C   0  0  0  0  0  0  0  0  0  0  0  0
   -3.3999    2.8097    0.1076 O   0  0  0  0  0  0  0  0  0  0  0  0
   -3.1889    1.4890    0.3537 C   0  0  0  0  0  0  0  0  0  0  0  0
   -4.2477    0.6774    0.7575 C   0  0  0  0  0  0  0  0  0  0  0  0
   -4.0360   -0.6711    1.0096 C   0  0  0  0  0  0  0  0  0  0  0  0
   -2.7780   -1.2139    0.8614 C   0  0  0  0  0  0  0  0  0  0  0  0
   -1.7118   -0.4063    0.4565 C   0  0  0  0  0  0  0  0  0  0  0  0
   -1.9261    0.9505    0.1980 C   0  0  0  0  0  0  0  0  0  0  0  0
   -0.3644   -0.9853    0.2978 C   0  0  0  0  0  0  0  0  0  0  0  0
   -0.1875   -2.3097    0.5525 C   0  0  0  0  0  0  0  0  0  0  0  0
    1.0980   -2.8827    0.4057 C   0  0  0  0  0  0  0  0  0  0  0  0
    1.2929   -4.0673    0.6253 O   0  0  0  0  0  0  0  0  0  0  0  0
    2.1913   -1.9940   -0.0230 C   0  0  0  0  0  0  0  0  0  0  0  0
    3.4948   -2.4756   -0.1950 C   0  0  0  0  0  0  0  0  0  0  0  0
    4.4932   -1.6086   -0.5998 C   0  0  0  0  0  0  0  0  0  0  0  0
    4.2028   -0.2692   -0.8336 C   0  0  0  0  0  0  0  0  0  0  0  0
    2.9143    0.2144   -0.6648 C   0  0  0  0  0  0  0  0  0  0  0  0
    1.9004   -0.6393   -0.2602 C   0  0  0  0  0  0  0  0  0  0  0  0
    0.6392   -0.1861   -0.0977 O   0  0  0  0  0  0  0  0  0  0  0  0
    5.1904    0.5734   -1.2306 O   0  0  0  0  0  0  0  0  0  0  0  0
    6.4964    0.0147   -1.3861 C   0  0  0  0  0  0  0  0  0  0  0  0
    7.4417    1.0765   -1.9541 C   0  0  0  0  0  0  0  0  0  0  0  0
    7.5482    2.2379   -0.9611 C   0  0  0  0  0  0  0  0  0  0  0  0
    8.0257    1.6975    0.3903 C   0  0  0  0  0  0  0  0  0  0  0  0
    7.0579    0.6117    0.8678 C   0  0  0  0  0  0  0  0  0  0  0  0
    6.9820   -0.4227   -0.1153 O   0  0  0  0  0  0  0  0  0  0  0  0
    7.5531    0.0335    2.1684 C   0  0  0  0  0  0  0  0  0  0  0  0
    7.8991   -1.1229    2.2226 O   0  0  0  0  0  0  0  0  0  0  0  0
    7.6099    0.8033    3.2666 O   0  0  0  0  0  0  0  0  0  0  0  0
    9.3342    1.1413    0.2468 O   0  0  0  0  0  0  0  0  0  0  0  0
    8.4852    3.1999   -1.4493 O   0  0  0  0  0  0  0  0  0  0  0  0
    8.7347    0.5039   -2.1598 O   0  0  0  0  0  0  0  0  0  0  0  0
    3.7763   -3.7833    0.0342 O   0  0  0  0  0  0  0  0  0  0  0  0
   -5.4898    1.2075    0.9051 O   0  0  0  0  0  0  0  0  0  0  0  0
   -6.5289    0.3194    1.3215 C   0  0  0  0  0  0  0  0  0  0  0  0
   -7.8172    1.1136    1.5524 C   0  0  0  0  0  0  0  0  0  0  0  0
   -8.2556    1.7555    0.2325 C   0  0  0  0  0  0  0  0  0  0  0  0
   -8.4298    0.6589   -0.8227 C   0  0  0  0  0  0  0  0  0  0  0  0
   -7.1179   -0.1177   -0.9619 C   0  0  0  0  0  0  0  0  0  0  0  0
   -6.7515   -0.6625    0.3074 O   0  0  0  0  0  0  0  0  0  0  0  0
   -7.2989   -1.2361   -1.9555 C   0  0  0  0  0  0  0  0  0  0  0  0
   -7.2193   -2.3858   -1.5923 O   0  0  0  0  0  0  0  0  0  0  0  0
   -7.5485   -0.9552   -3.2441 O   0  0  0  0  0  0  0  0  0  0  0  0
   -9.4715   -0.2318   -0.4183 O   0  0  0  0  0  0  0  0  0  0  0  0
   -9.4966    2.4382    0.4219 O   0  0  0  0  0  0  0  0  0  0  0  0
   -8.8426    0.2349    2.0198 O   0  0  0  0  0  0  0  0  0  0  0  0
   -2.5754    4.6154   -0.4655 H   0  0  0  0  0  0  0  0  0  0  0  0
   -1.5049    3.5471    0.4732 H   0  0  0  0  0  0  0  0  0  0  0  0
   -1.8665    3.1721   -1.2288 H   0  0  0  0  0  0  0  0  0  0  0  0
   -4.8590   -1.2963    1.3230 H   0  0  0  0  0  0  0  0  0  0  0  0
   -2.6160   -2.2634    1.0586 H   0  0  0  0  0  0  0  0  0  0  0  0
   -1.1050    1.5780   -0.1155 H   0  0  0  0  0  0  0  0  0  0  0  0
   -1.0222   -2.9195    0.8650 H   0  0  0  0  0  0  0  0  0  0  0  0
    5.5011   -1.9727   -0.7342 H   0  0  0  0  0  0  0  0  0  0  0  0
    2.7006    1.2569   -0.8491 H   0  0  0  0  0  0  0  0  0  0  0  0
    6.4499   -0.8335   -2.0692 H   0  0  0  0  0  0  0  0  0  0  0  0
    7.0496    1.4432   -2.9028 H   0  0  0  0  0  0  0  0  0  0  0  0
    6.5712    2.7064   -0.8418 H   0  0  0  0  0  0  0  0  0  0  0  0
    8.0514    2.5083    1.1183 H   0  0  0  0  0  0  0  0  0  0  0  0
    6.0690    1.0457    1.0159 H   0  0  0  0  0  0  0  0  0  0  0  0
    7.9344    0.3881    4.0774 H   0  0  0  0  0  0  0  0  0  0  0  0
    9.6998    0.7795    1.0657 H   0  0  0  0  0  0  0  0  0  0  0  0
    8.2487    3.5793   -2.3068 H   0  0  0  0  0  0  0  0  0  0  0  0
    8.7412   -0.2419   -2.7753 H   0  0  0  0  0  0  0  0  0  0  0  0
    3.6774   -4.3491   -0.7437 H   0  0  0  0  0  0  0  0  0  0  0  0
   -6.2354   -0.1745    2.2478 H   0  0  0  0  0  0  0  0  0  0  0  0
   -7.6373    1.8920    2.2939 H   0  0  0  0  0  0  0  0  0  0  0  0
   -7.4956    2.4630   -0.0990 H   0  0  0  0  0  0  0  0  0  0  0  0
   -8.6881    1.1121   -1.7798 H   0  0  0  0  0  0  0  0  0  0  0  0
   -6.3330    0.5540   -1.3094 H   0  0  0  0  0  0  0  0  0  0  0  0
   -7.6572   -1.7059   -3.8440 H   0  0  0  0  0  0  0  0  0  0  0  0
   -9.6365   -0.9527   -1.0413 H   0  0  0  0  0  0  0  0  0  0  0  0
   -9.4609    3.1429    1.0831 H   0  0  0  0  0  0  0  0  0  0  0  0
   -8.6299   -0.2108    2.8512 H   0  0  0  0  0  0  0  0  0  0  0  0
  1  2  1  0  0  0  0
  2  3  1  0  0  0  0
  3  4  2  0  0  0  0
  4  5  1  0  0  0  0
  5  6  2  0  0  0  0
  6  7  1  0  0  0  0
  7  8  2  0  0  0  0
  3  8  1  0  0  0  0
  7  9  1  0  0  0  0
  9 10  2  0  0  0  0
 10 11  1  0  0  0  0
 11 12  2  0  0  0  0
 11 13  1  0  0  0  0
 13 14  2  0  0  0  0
 14 15  1  0  0  0  0
 15 16  2  0  0  0  0
 16 17  1  0  0  0  0
 17 18  2  0  0  0  0
 13 18  1  0  0  0  0
 18 19  1  0  0  0  0
  9 19  1  0  0  0  0
 16 20  1  0  0  0  0
 20 21  1  0  0  0  0
 21 22  1  0  0  0  0
 22 23  1  0  0  0  0
 23 24  1  0  0  0  0
 24 25  1  0  0  0  0
 25 26  1  0  0  0  0
 21 26  1  0  0  0  0
 25 27  1  0  0  0  0
 27 28  2  0  0  0  0
 27 29  1  0  0  0  0
 24 30  1  0  0  0  0
 23 31  1  0  0  0  0
 22 32  1  0  0  0  0
 14 33  1  0  0  0  0
  4 34  1  0  0  0  0
 34 35  1  0  0  0  0
 35 36  1  0  0  0  0
 36 37  1  0  0  0  0
 37 38  1  0  0  0  0
 38 39  1  0  0  0  0
 39 40  1  0  0  0  0
 35 40  1  0  0  0  0
 39 41  1  0  0  0  0
 41 42  2  0  0  0  0
 41 43  1  0  0  0  0
 38 44  1  0  0  0  0
 37 45  1  0  0  0  0
 36 46  1  0  0  0  0
  1 47  1  0  0  0  0
  1 48  1  0  0  0  0
  1 49  1  0  0  0  0
  5 50  1  0  0  0  0
  6 51  1  0  0  0  0
  8 52  1  0  0  0  0
 10 53  1  0  0  0  0
 15 54  1  0  0  0  0
 17 55  1  0  0  0  0
 21 56  1  0  0  0  0
 22 57  1  0  0  0  0
 23 58  1  0  0  0  0
 24 59  1  0  0  0  0
 25 60  1  0  0  0  0
 29 61  1  0  0  0  0
 30 62  1  0  0  0  0
 31 63  1  0  0  0  0
 32 64  1  0  0  0  0
 33 65  1  0  0  0  0
 35 66  1  0  0  0  0
 36 67  1  0  0  0  0
 37 68  1  0  0  0  0
 38 69  1  0  0  0  0
 39 70  1  0  0  0  0
 43 71  1  0  0  0  0
 44 72  1  0  0  0  0
 45 73  1  0  0  0  0
 46 74  1  0  0  0  0
M  END
$$$$
