C33H40O21
APtclcactv06291802593D 0   0.00000     0.00000
 
 94 99  0  0  0  0  0  0  0  0999 V2000
   -2.2123   -4.9854    2.4605 C   0  0  0  0  0  0  0  0  0  0  0  0
   -0.7156   -5.1689    2.2012 C   0  0  0  0  0  0  0  0  0  0  0  0
   -0.5121   -5.8494    0.8451 C   0  0  0  0  0  0  0  0  0  0  0  0
   -1.0679   -4.9455   -0.2596 C   0  0  0  0  0  0  0  0  0  0  0  0
   -0.3757   -3.5811   -0.1842 C   0  0  0  0  0  0  0  0  0  0  0  0
   -0.5845   -2.9882    1.2117 C   0  0  0  0  0  0  0  0  0  0  0  0
   -0.0734   -3.8923    2.1932 O   0  0  0  0  0  0  0  0  0  0  0  0
    0.1058   -1.7406    1.3077 O   0  0  0  0  0  0  0  0  0  0  0  0
   -0.1167   -1.0462    2.5366 C   0  0  0  0  0  0  0  0  0  0  0  0
    0.6666    0.2680    2.5289 C   0  0  0  0  0  0  0  0  0  0  0  0
    0.3313    1.0696    3.7894 C   0  0  0  0  0  0  0  0  0  0  0  0
    1.1641    2.3552    3.8040 C   0  0  0  0  0  0  0  0  0  0  0  0
    2.6494    1.9892    3.7257 C   0  0  0  0  0  0  0  0  0  0  0  0
    2.8951    1.1521    2.4677 C   0  0  0  0  0  0  0  0  0  0  0  0
    2.0676   -0.0124    2.5029 O   0  0  0  0  0  0  0  0  0  0  0  0
    2.5779    1.9274    1.3100 O   0  0  0  0  0  0  0  0  0  0  0  0
    3.0255    1.4610    0.1124 C   0  0  0  0  0  0  0  0  0  0  0  0
    2.1408    1.1236   -0.8674 C   0  0  0  0  0  0  0  0  0  0  0  0
    2.5344    0.6593   -2.0657 O   0  0  0  0  0  0  0  0  0  0  0  0
    3.8356    0.4944   -2.3837 C   0  0  0  0  0  0  0  0  0  0  0  0
    4.2052    0.0135   -3.6303 C   0  0  0  0  0  0  0  0  0  0  0  0
    5.5462   -0.1499   -3.9415 C   0  0  0  0  0  0  0  0  0  0  0  0
    6.5329    0.1638   -3.0132 C   0  0  0  0  0  0  0  0  0  0  0  0
    6.1843    0.6443   -1.7646 C   0  0  0  0  0  0  0  0  0  0  0  0
    4.8313    0.8129   -1.4433 C   0  0  0  0  0  0  0  0  0  0  0  0
    4.4176    1.3276   -0.1282 C   0  0  0  0  0  0  0  0  0  0  0  0
    5.2397    1.6238    0.7242 O   0  0  0  0  0  0  0  0  0  0  0  0
    7.1458    0.9502   -0.8570 O   0  0  0  0  0  0  0  0  0  0  0  0
    5.8996   -0.6214   -5.1646 O   0  0  0  0  0  0  0  0  0  0  0  0
    0.6978    1.2730   -0.6031 C   0  0  0  0  0  0  0  0  0  0  0  0
    0.2039    2.4644   -0.0643 C   0  0  0  0  0  0  0  0  0  0  0  0
   -1.1491    2.5990    0.1815 C   0  0  0  0  0  0  0  0  0  0  0  0
   -2.0179    1.5482   -0.1073 C   0  0  0  0  0  0  0  0  0  0  0  0
   -1.5278    0.3651   -0.6423 C   0  0  0  0  0  0  0  0  0  0  0  0
   -0.1802    0.2257   -0.8960 C   0  0  0  0  0  0  0  0  0  0  0  0
   -3.3480    1.6823    0.1359 O   0  0  0  0  0  0  0  0  0  0  0  0
   -4.1816    0.5664   -0.1835 C   0  0  0  0  0  0  0  0  0  0  0  0
   -5.6151    0.8533    0.2710 C   0  0  0  0  0  0  0  0  0  0  0  0
   -6.1512    2.0678   -0.4930 C   0  0  0  0  0  0  0  0  0  0  0  0
   -6.0627    1.7910   -1.9970 C   0  0  0  0  0  0  0  0  0  0  0  0
   -4.6119    1.4678   -2.3639 C   0  0  0  0  0  0  0  0  0  0  0  0
   -4.1657    0.3485   -1.5958 O   0  0  0  0  0  0  0  0  0  0  0  0
   -4.5253    1.1313   -3.8539 C   0  0  0  0  0  0  0  0  0  0  0  0
   -3.1571    0.9437   -4.2211 O   0  0  0  0  0  0  0  0  0  0  0  0
   -6.8978    0.6797   -2.3279 O   0  0  0  0  0  0  0  0  0  0  0  0
   -7.5137    2.2984   -0.1288 O   0  0  0  0  0  0  0  0  0  0  0  0
   -6.4384   -0.2828    0.0001 O   0  0  0  0  0  0  0  0  0  0  0  0
   -1.6331    3.7569    0.7057 O   0  0  0  0  0  0  0  0  0  0  0  0
    3.4328    3.1829    3.6656 O   0  0  0  0  0  0  0  0  0  0  0  0
    0.8116    3.1658    2.6812 O   0  0  0  0  0  0  0  0  0  0  0  0
   -1.0587    1.4010    3.7889 O   0  0  0  0  0  0  0  0  0  0  0  0
    1.0228   -3.7409   -0.4309 O   0  0  0  0  0  0  0  0  0  0  0  0
   -0.8164   -5.5393   -1.5348 O   0  0  0  0  0  0  0  0  0  0  0  0
    0.8827   -6.0692    0.6257 O   0  0  0  0  0  0  0  0  0  0  0  0
   -2.7022   -5.9591    2.4656 H   0  0  0  0  0  0  0  0  0  0  0  0
   -2.3570   -4.5008    3.4261 H   0  0  0  0  0  0  0  0  0  0  0  0
   -2.6439   -4.3656    1.6746 H   0  0  0  0  0  0  0  0  0  0  0  0
   -0.2838   -5.7883    2.9873 H   0  0  0  0  0  0  0  0  0  0  0  0
   -1.0384   -6.8039    0.8339 H   0  0  0  0  0  0  0  0  0  0  0  0
   -2.1414   -4.8179   -0.1207 H   0  0  0  0  0  0  0  0  0  0  0  0
   -0.8044   -2.9134   -0.9314 H   0  0  0  0  0  0  0  0  0  0  0  0
   -1.6490   -2.8289    1.3835 H   0  0  0  0  0  0  0  0  0  0  0  0
   -1.1803   -0.8347    2.6470 H   0  0  0  0  0  0  0  0  0  0  0  0
    0.2190   -1.6644    3.3692 H   0  0  0  0  0  0  0  0  0  0  0  0
    0.3953    0.8477    1.6466 H   0  0  0  0  0  0  0  0  0  0  0  0
    0.5646    0.4744    4.6723 H   0  0  0  0  0  0  0  0  0  0  0  0
    0.9718    2.9037    4.7261 H   0  0  0  0  0  0  0  0  0  0  0  0
    2.9295    1.4127    4.6074 H   0  0  0  0  0  0  0  0  0  0  0  0
    3.9425    0.8528    2.4291 H   0  0  0  0  0  0  0  0  0  0  0  0
    3.4480   -0.2344   -4.3593 H   0  0  0  0  0  0  0  0  0  0  0  0
    7.5740    0.0316   -3.2682 H   0  0  0  0  0  0  0  0  0  0  0  0
    7.4539    1.8656   -0.9038 H   0  0  0  0  0  0  0  0  0  0  0  0
    6.0307    0.0686   -5.8293 H   0  0  0  0  0  0  0  0  0  0  0  0
    0.8783    3.2777    0.1598 H   0  0  0  0  0  0  0  0  0  0  0  0
   -2.2046   -0.4467   -0.8646 H   0  0  0  0  0  0  0  0  0  0  0  0
    0.1985   -0.6961   -1.3124 H   0  0  0  0  0  0  0  0  0  0  0  0
   -3.8098   -0.3227    0.3258 H   0  0  0  0  0  0  0  0  0  0  0  0
   -5.6229    1.0633    1.3406 H   0  0  0  0  0  0  0  0  0  0  0  0
   -5.5534    2.9457   -0.2481 H   0  0  0  0  0  0  0  0  0  0  0  0
   -6.3907    2.6715   -2.5494 H   0  0  0  0  0  0  0  0  0  0  0  0
   -3.9817    2.3308   -2.1488 H   0  0  0  0  0  0  0  0  0  0  0  0
   -5.0836    0.2164   -4.0528 H   0  0  0  0  0  0  0  0  0  0  0  0
   -4.9490    1.9494   -4.4364 H   0  0  0  0  0  0  0  0  0  0  0  0
   -3.0265    0.7269   -5.1544 H   0  0  0  0  0  0  0  0  0  0  0  0
   -7.8321    0.8133   -2.1174 H   0  0  0  0  0  0  0  0  0  0  0  0
   -7.6447    2.4740    0.8130 H   0  0  0  0  0  0  0  0  0  0  0  0
   -6.1536   -1.0908    0.4486 H   0  0  0  0  0  0  0  0  0  0  0  0
   -1.8892    4.4121    0.0423 H   0  0  0  0  0  0  0  0  0  0  0  0
    4.3856    3.0259    3.6143 H   0  0  0  0  0  0  0  0  0  0  0  0
    1.3016    3.9978    2.6276 H   0  0  0  0  0  0  0  0  0  0  0  0
   -1.3419    1.9103    4.5606 H   0  0  0  0  0  0  0  0  0  0  0  0
    1.5247   -2.9150   -0.3986 H   0  0  0  0  0  0  0  0  0  0  0  0
   -1.1425   -5.0192   -2.2820 H   0  0  0  0  0  0  0  0  0  0  0  0
    1.3020   -6.6308    1.2920 H   0  0  0  0  0  0  0  0  0  0  0  0
  1  2  1  0  0  0  0
  2  3  1  0  0  0  0
  3  4  1  0  0  0  0
  4  5  1  0  0  0  0
  5  6  1  0  0  0  0
  6  7  1  0  0  0  0
  2  7  1  0  0  0  0
  6  8  1  0  0  0  0
  8  9  1  0  0  0  0
  9 10  1  0  0  0  0
 10 11  1  0  0  0  0
 11 12  1  0  0  0  0
 12 13  1  0  0  0  0
 13 14  1  0  0  0  0
 14 15  1  0  0  0  0
 10 15  1  0  0  0  0
 14 16  1  0  0  0  0
 16 17  1  0  0  0  0
 17 18  2  0  0  0  0
 18 19  1  0  0  0  0
 19 20  1  0  0  0  0
 20 21  2  0  0  0  0
 21 22  1  0  0  0  0
 22 23  2  0  0  0  0
 23 24  1  0  0  0  0
 24 25  2  0  0  0  0
 20 25  1  0  0  0  0
 25 26  1  0  0  0  0
 17 26  1  0  0  0  0
 26 27  2  0  0  0  0
 24 28  1  0  0  0  0
 22 29  1  0  0  0  0
 18 30  1  0  0  0  0
 30 31  2  0  0  0  0
 31 32  1  0  0  0  0
 32 33  2  0  0  0  0
 33 34  1  0  0  0  0
 34 35  2  0  0  0  0
 30 35  1  0  0  0  0
 33 36  1  0  0  0  0
 36 37  1  0  0  0  0
 37 38  1  0  0  0  0
 38 39  1  0  0  0  0
 39 40  1  0  0  0  0
 40 41  1  0  0  0  0
 41 42  1  0  0  0  0
 37 42  1  0  0  0  0
 41 43  1  0  0  0  0
 43 44  1  0  0  0  0
 40 45  1  0  0  0  0
 39 46  1  0  0  0  0
 38 47  1  0  0  0  0
 32 48  1  0  0  0  0
 13 49  1  0  0  0  0
 12 50  1  0  0  0  0
 11 51  1  0  0  0  0
  5 52  1  0  0  0  0
  4 53  1  0  0  0  0
  3 54  1  0  0  0  0
  1 55  1  0  0  0  0
  1 56  1  0  0  0  0
  1 57  1  0  0  0  0
  2 58  1  0  0  0  0
  3 59  1  0  0  0  0
  4 60  1  0  0  0  0
  5 61  1  0  0  0  0
  6 62  1  0  0  0  0
  9 63  1  0  0  0  0
  9 64  1  0  0  0  0
 10 65  1  0  0  0  0
 11 66  1  0  0  0  0
 12 67  1  0  0  0  0
 13 68  1  0  0  0  0
 14 69  1  0  0  0  0
 21 70  1  0  0  0  0
 23 71  1  0  0  0  0
 28 72  1  0  0  0  0
 29 73  1  0  0  0  0
 31 74  1  0  0  0  0
 34 75  1  0  0  0  0
 35 76  1  0  0  0  0
 37 77  1  0  0  0  0
 38 78  1  0  0  0  0
 39 79  1  0  0  0  0
 40 80  1  0  0  0  0
 41 81  1  0  0  0  0
 43 82  1  0  0  0  0
 43 83  1  0  0  0  0
 44 84  1  0  0  0  0
 45 85  1  0  0  0  0
 46 86  1  0  0  0  0
 47 87  1  0  0  0  0
 48 88  1  0  0  0  0
 49 89  1  0  0  0  0
 50 90  1  0  0  0  0
 51 91  1  0  0  0  0
 52 92  1  0  0  0  0
 53 93  1  0  0  0  0
 54 94  1  0  0  0  0
M  END
$$$$
