C27H30O16
APtclcactv06291802583D 0   0.00000     0.00000
 
 73 77  0  0  0  0  0  0  0  0999 V2000
   -5.7790   -1.7760    0.1453 C   0  0  0  0  0  0  0  0  0  0  0  0
   -7.0084   -1.1993    0.3803 C   0  0  0  0  0  0  0  0  0  0  0  0
   -7.1133    0.1745    0.5496 C   0  0  0  0  0  0  0  0  0  0  0  0
   -5.9756    0.9771    0.4830 C   0  0  0  0  0  0  0  0  0  0  0  0
   -4.7399    0.4058    0.2477 C   0  0  0  0  0  0  0  0  0  0  0  0
   -4.6342   -0.9774    0.0773 C   0  0  0  0  0  0  0  0  0  0  0  0
   -3.3173   -1.5928   -0.1737 C   0  0  0  0  0  0  0  0  0  0  0  0
   -3.2457   -2.9415   -0.3356 C   0  0  0  0  0  0  0  0  0  0  0  0
   -1.9911   -3.5494   -0.5776 C   0  0  0  0  0  0  0  0  0  0  0  0
   -1.8898   -4.7563   -0.7281 O   0  0  0  0  0  0  0  0  0  0  0  0
   -0.8123   -2.6688   -0.6414 C   0  0  0  0  0  0  0  0  0  0  0  0
   -0.9968   -1.2874   -0.4603 C   0  0  0  0  0  0  0  0  0  0  0  0
   -2.2360   -0.7998   -0.2392 O   0  0  0  0  0  0  0  0  0  0  0  0
    0.0994   -0.4405   -0.5164 C   0  0  0  0  0  0  0  0  0  0  0  0
    1.3642   -0.9573   -0.7499 C   0  0  0  0  0  0  0  0  0  0  0  0
    1.5495   -2.3239   -0.9295 C   0  0  0  0  0  0  0  0  0  0  0  0
    0.4686   -3.1843   -0.8762 C   0  0  0  0  0  0  0  0  0  0  0  0
    0.6473   -4.5182   -1.0508 O   0  0  0  0  0  0  0  0  0  0  0  0
    2.4324   -0.1213   -0.8043 O   0  0  0  0  0  0  0  0  0  0  0  0
    3.7091   -0.7150   -1.0481 C   0  0  0  0  0  0  0  0  0  0  0  0
    4.7633    0.3849   -1.1987 C   0  0  0  0  0  0  0  0  0  0  0  0
    4.8594    1.1721    0.1118 C   0  0  0  0  0  0  0  0  0  0  0  0
    5.1878    0.2044    1.2530 C   0  0  0  0  0  0  0  0  0  0  0  0
    4.1172   -0.8885    1.3088 C   0  0  0  0  0  0  0  0  0  0  0  0
    4.0587   -1.5610    0.0493 O   0  0  0  0  0  0  0  0  0  0  0  0
    4.4704   -1.8930    2.4076 C   0  0  0  0  0  0  0  0  0  0  0  0
    3.4143   -2.8468    2.5384 O   0  0  0  0  0  0  0  0  0  0  0  0
    6.4661   -0.3907    1.0214 O   0  0  0  0  0  0  0  0  0  0  0  0
    5.8924    2.1537    0.0052 O   0  0  0  0  0  0  0  0  0  0  0  0
    6.0304   -0.2055   -1.4951 O   0  0  0  0  0  0  0  0  0  0  0  0
   -0.0843    1.0428   -0.3239 C   0  0  0  0  0  0  0  0  0  0  0  0
    0.4104    1.4420    1.0688 C   0  0  0  0  0  0  0  0  0  0  0  0
    0.2763    2.9589    1.2343 C   0  0  0  0  0  0  0  0  0  0  0  0
    1.0603    3.6546    0.1174 C   0  0  0  0  0  0  0  0  0  0  0  0
    0.5405    3.1699   -1.2386 C   0  0  0  0  0  0  0  0  0  0  0  0
    0.6656    1.7484   -1.3147 O   0  0  0  0  0  0  0  0  0  0  0  0
   -0.9307    3.5615   -1.3906 C   0  0  0  0  0  0  0  0  0  0  0  0
   -1.3733    3.2468   -2.7124 O   0  0  0  0  0  0  0  0  0  0  0  0
    0.8830    5.0689    0.2190 O   0  0  0  0  0  0  0  0  0  0  0  0
   -1.1016    3.3287    1.1530 O   0  0  0  0  0  0  0  0  0  0  0  0
   -0.3763    0.7818    2.0624 O   0  0  0  0  0  0  0  0  0  0  0  0
   -6.0821    2.3227    0.6493 O   0  0  0  0  0  0  0  0  0  0  0  0
   -8.3276    0.7381    0.7802 O   0  0  0  0  0  0  0  0  0  0  0  0
   -5.6997   -2.8455    0.0180 H   0  0  0  0  0  0  0  0  0  0  0  0
   -7.8923   -1.8176    0.4326 H   0  0  0  0  0  0  0  0  0  0  0  0
   -3.8577    1.0266    0.1955 H   0  0  0  0  0  0  0  0  0  0  0  0
   -4.1401   -3.5441   -0.2794 H   0  0  0  0  0  0  0  0  0  0  0  0
    2.5401   -2.7141   -1.1108 H   0  0  0  0  0  0  0  0  0  0  0  0
    0.8198   -5.0025   -0.2317 H   0  0  0  0  0  0  0  0  0  0  0  0
    3.6666   -1.3055   -1.9633 H   0  0  0  0  0  0  0  0  0  0  0  0
    4.4755    1.0570   -2.0071 H   0  0  0  0  0  0  0  0  0  0  0  0
    3.9072    1.6632    0.3128 H   0  0  0  0  0  0  0  0  0  0  0  0
    5.2035    0.7475    2.1979 H   0  0  0  0  0  0  0  0  0  0  0  0
    3.1487   -0.4379    1.5256 H   0  0  0  0  0  0  0  0  0  0  0  0
    5.3947   -2.4079    2.1457 H   0  0  0  0  0  0  0  0  0  0  0  0
    4.6032   -1.3661    3.3525 H   0  0  0  0  0  0  0  0  0  0  0  0
    3.5707   -3.5159    3.2187 H   0  0  0  0  0  0  0  0  0  0  0  0
    7.1925    0.2455    0.9695 H   0  0  0  0  0  0  0  0  0  0  0  0
    5.7524    2.7966   -0.7034 H   0  0  0  0  0  0  0  0  0  0  0  0
    6.0414   -0.7242   -2.3112 H   0  0  0  0  0  0  0  0  0  0  0  0
   -1.1407    1.2938   -0.4202 H   0  0  0  0  0  0  0  0  0  0  0  0
    1.4559    1.1544    1.1802 H   0  0  0  0  0  0  0  0  0  0  0  0
    0.6787    3.2570    2.2025 H   0  0  0  0  0  0  0  0  0  0  0  0
    2.1189    3.4117    0.2096 H   0  0  0  0  0  0  0  0  0  0  0  0
    1.1235    3.6294   -2.0367 H   0  0  0  0  0  0  0  0  0  0  0  0
   -1.5301    3.0105   -0.6659 H   0  0  0  0  0  0  0  0  0  0  0  0
   -1.0418    4.6316   -1.2154 H   0  0  0  0  0  0  0  0  0  0  0  0
   -2.2993    3.4688   -2.8804 H   0  0  0  0  0  0  0  0  0  0  0  0
    1.1870    5.4442    1.0567 H   0  0  0  0  0  0  0  0  0  0  0  0
   -1.2605    4.2776    1.2498 H   0  0  0  0  0  0  0  0  0  0  0  0
   -0.1175    0.9892    2.9708 H   0  0  0  0  0  0  0  0  0  0  0  0
   -5.9929    2.6138    1.5671 H   0  0  0  0  0  0  0  0  0  0  0  0
   -8.5596    0.8032    1.7167 H   0  0  0  0  0  0  0  0  0  0  0  0
  1  2  2  0  0  0  0
  2  3  1  0  0  0  0
  3  4  2  0  0  0  0
  4  5  1  0  0  0  0
  5  6  2  0  0  0  0
  1  6  1  0  0  0  0
  6  7  1  0  0  0  0
  7  8  2  0  0  0  0
  8  9  1  0  0  0  0
  9 10  2  0  0  0  0
  9 11  1  0  0  0  0
 11 12  2  0  0  0  0
 12 13  1  0  0  0  0
  7 13  1  0  0  0  0
 12 14  1  0  0  0  0
 14 15  2  0  0  0  0
 15 16  1  0  0  0  0
 16 17  2  0  0  0  0
 11 17  1  0  0  0  0
 17 18  1  0  0  0  0
 15 19  1  0  0  0  0
 19 20  1  0  0  0  0
 20 21  1  0  0  0  0
 21 22  1  0  0  0  0
 22 23  1  0  0  0  0
 23 24  1  0  0  0  0
 24 25  1  0  0  0  0
 20 25  1  0  0  0  0
 24 26  1  0  0  0  0
 26 27  1  0  0  0  0
 23 28  1  0  0  0  0
 22 29  1  0  0  0  0
 21 30  1  0  0  0  0
 14 31  1  0  0  0  0
 31 32  1  0  0  0  0
 32 33  1  0  0  0  0
 33 34  1  0  0  0  0
 34 35  1  0  0  0  0
 35 36  1  0  0  0  0
 31 36  1  0  0  0  0
 35 37  1  0  0  0  0
 37 38  1  0  0  0  0
 34 39  1  0  0  0  0
 33 40  1  0  0  0  0
 32 41  1  0  0  0  0
  4 42  1  0  0  0  0
  3 43  1  0  0  0  0
  1 44  1  0  0  0  0
  2 45  1  0  0  0  0
  5 46  1  0  0  0  0
  8 47  1  0  0  0  0
 16 48  1  0  0  0  0
 18 49  1  0  0  0  0
 20 50  1  0  0  0  0
 21 51  1  0  0  0  0
 22 52  1  0  0  0  0
 23 53  1  0  0  0  0
 24 54  1  0  0  0  0
 26 55  1  0  0  0  0
 26 56  1  0  0  0  0
 27 57  1  0  0  0  0
 28 58  1  0  0  0  0
 29 59  1  0  0  0  0
 30 60  1  0  0  0  0
 31 61  1  0  0  0  0
 32 62  1  0  0  0  0
 33 63  1  0  0  0  0
 34 64  1  0  0  0  0
 35 65  1  0  0  0  0
 37 66  1  0  0  0  0
 37 67  1  0  0  0  0
 38 68  1  0  0  0  0
 39 69  1  0  0  0  0
 40 70  1  0  0  0  0
 41 71  1  0  0  0  0
 42 72  1  0  0  0  0
 43 73  1  0  0  0  0
M  END
$$$$
