C20H18O9
APtclcactv06291802583D 0   0.00000     0.00000
 
 47 50  0  0  0  0  0  0  0  0999 V2000
   -5.1619   -1.0838   -0.7412 C   0  0  0  0  0  0  0  0  0  0  0  0
   -6.3108   -0.0873   -0.5664 C   0  0  0  0  0  0  0  0  0  0  0  0
   -6.1212    0.6729    0.7499 C   0  0  0  0  0  0  0  0  0  0  0  0
   -4.7524    1.3602    0.7371 C   0  0  0  0  0  0  0  0  0  0  0  0
   -3.6636    0.3078    0.5120 C   0  0  0  0  0  0  0  0  0  0  0  0
   -3.9168   -0.3830   -0.7131 O   0  0  0  0  0  0  0  0  0  0  0  0
   -2.3883    0.9486    0.4429 O   0  0  0  0  0  0  0  0  0  0  0  0
   -1.2986    0.1444    0.3500 C   0  0  0  0  0  0  0  0  0  0  0  0
   -1.4619   -1.2362    0.3263 C   0  0  0  0  0  0  0  0  0  0  0  0
   -0.3587   -2.0648    0.2319 C   0  0  0  0  0  0  0  0  0  0  0  0
    0.9217   -1.5027    0.1601 C   0  0  0  0  0  0  0  0  0  0  0  0
    1.0839   -0.1065    0.1838 C   0  0  0  0  0  0  0  0  0  0  0  0
   -0.0339    0.7077    0.2739 C   0  0  0  0  0  0  0  0  0  0  0  0
    2.3226    0.4257    0.1149 O   0  0  0  0  0  0  0  0  0  0  0  0
    3.4254   -0.3344    0.0232 C   0  0  0  0  0  0  0  0  0  0  0  0
    3.3763   -1.6933   -0.0074 C   0  0  0  0  0  0  0  0  0  0  0  0
    2.1235   -2.3479    0.0593 C   0  0  0  0  0  0  0  0  0  0  0  0
    2.0421   -3.5654    0.0343 O   0  0  0  0  0  0  0  0  0  0  0  0
    4.7407    0.3296   -0.0473 C   0  0  0  0  0  0  0  0  0  0  0  0
    4.8240    1.7246   -0.0185 C   0  0  0  0  0  0  0  0  0  0  0  0
    6.0541    2.3405   -0.0847 C   0  0  0  0  0  0  0  0  0  0  0  0
    7.2115    1.5770   -0.1800 C   0  0  0  0  0  0  0  0  0  0  0  0
    7.1332    0.1898   -0.2090 C   0  0  0  0  0  0  0  0  0  0  0  0
    5.9076   -0.4344   -0.1375 C   0  0  0  0  0  0  0  0  0  0  0  0
    8.4220    2.1881   -0.2455 O   0  0  0  0  0  0  0  0  0  0  0  0
   -0.5159   -3.4126    0.2096 O   0  0  0  0  0  0  0  0  0  0  0  0
   -4.7113    2.3231   -0.3180 O   0  0  0  0  0  0  0  0  0  0  0  0
   -7.1488    1.6566    0.8861 O   0  0  0  0  0  0  0  0  0  0  0  0
   -6.3110    0.8373   -1.6560 O   0  0  0  0  0  0  0  0  0  0  0  0
   -5.1869   -1.8131    0.0685 H   0  0  0  0  0  0  0  0  0  0  0  0
   -5.2685   -1.5975   -1.6967 H   0  0  0  0  0  0  0  0  0  0  0  0
   -7.2589   -0.6247   -0.5433 H   0  0  0  0  0  0  0  0  0  0  0  0
   -6.1706   -0.0259    1.5849 H   0  0  0  0  0  0  0  0  0  0  0  0
   -4.5858    1.8580    1.6924 H   0  0  0  0  0  0  0  0  0  0  0  0
   -3.6691   -0.4033    1.3381 H   0  0  0  0  0  0  0  0  0  0  0  0
   -2.4526   -1.6625    0.3821 H   0  0  0  0  0  0  0  0  0  0  0  0
    0.0806    1.7815    0.2928 H   0  0  0  0  0  0  0  0  0  0  0  0
    4.2871   -2.2688   -0.0822 H   0  0  0  0  0  0  0  0  0  0  0  0
    3.9251    2.3187    0.0552 H   0  0  0  0  0  0  0  0  0  0  0  0
    6.1194    3.4183   -0.0628 H   0  0  0  0  0  0  0  0  0  0  0  0
    8.0351   -0.3997   -0.2832 H   0  0  0  0  0  0  0  0  0  0  0  0
    5.8477   -1.5126   -0.1597 H   0  0  0  0  0  0  0  0  0  0  0  0
    8.8311    2.3438    0.6167 H   0  0  0  0  0  0  0  0  0  0  0  0
   -0.6207   -3.7816   -0.6781 H   0  0  0  0  0  0  0  0  0  0  0  0
   -3.8714    2.7976   -0.3849 H   0  0  0  0  0  0  0  0  0  0  0  0
   -8.0442    1.2914    0.8947 H   0  0  0  0  0  0  0  0  0  0  0  0
   -6.4222    0.4235   -2.5229 H   0  0  0  0  0  0  0  0  0  0  0  0
  1  2  1  0  0  0  0
  2  3  1  0  0  0  0
  3  4  1  0  0  0  0
  4  5  1  0  0  0  0
  5  6  1  0  0  0  0
  1  6  1  0  0  0  0
  5  7  1  0  0  0  0
  7  8  1  0  0  0  0
  8  9  2  0  0  0  0
  9 10  1  0  0  0  0
 10 11  2  0  0  0  0
 11 12  1  0  0  0  0
 12 13  2  0  0  0  0
  8 13  1  0  0  0  0
 12 14  1  0  0  0  0
 14 15  1  0  0  0  0
 15 16  2  0  0  0  0
 16 17  1  0  0  0  0
 11 17  1  0  0  0  0
 17 18  2  0  0  0  0
 15 19  1  0  0  0  0
 19 20  2  0  0  0  0
 20 21  1  0  0  0  0
 21 22  2  0  0  0  0
 22 23  1  0  0  0  0
 23 24  2  0  0  0  0
 19 24  1  0  0  0  0
 22 25  1  0  0  0  0
 10 26  1  0  0  0  0
  4 27  1  0  0  0  0
  3 28  1  0  0  0  0
  2 29  1  0  0  0  0
  1 30  1  0  0  0  0
  1 31  1  0  0  0  0
  2 32  1  0  0  0  0
  3 33  1  0  0  0  0
  4 34  1  0  0  0  0
  5 35  1  0  0  0  0
  9 36  1  0  0  0  0
 13 37  1  0  0  0  0
 16 38  1  0  0  0  0
 20 39  1  0  0  0  0
 21 40  1  0  0  0  0
 23 41  1  0  0  0  0
 24 42  1  0  0  0  0
 25 43  1  0  0  0  0
 26 44  1  0  0  0  0
 27 45  1  0  0  0  0
 28 46  1  0  0  0  0
 29 47  1  0  0  0  0
M  END
$$$$
