C33H40O21
APtclcactv06291802593D 0   0.00000     0.00000
 
 94 99  0  0  0  0  0  0  0  0999 V2000
   -7.1392   -3.5774    1.1687 C   0  0  0  0  0  0  0  0  0  0  0  0
   -5.8090   -3.6787    1.9177 C   0  0  0  0  0  0  0  0  0  0  0  0
   -4.9873   -4.8365    1.3448 C   0  0  0  0  0  0  0  0  0  0  0  0
   -4.6717   -4.5493   -0.1264 C   0  0  0  0  0  0  0  0  0  0  0  0
   -3.9369   -3.2091   -0.2274 C   0  0  0  0  0  0  0  0  0  0  0  0
   -4.7991   -2.1143    0.4063 C   0  0  0  0  0  0  0  0  0  0  0  0
   -5.0815   -2.4583    1.7642 O   0  0  0  0  0  0  0  0  0  0  0  0
   -4.0959   -0.8709    0.3661 O   0  0  0  0  0  0  0  0  0  0  0  0
   -4.8591    0.2438    0.8320 C   0  0  0  0  0  0  0  0  0  0  0  0
   -4.0115    1.5145    0.7445 C   0  0  0  0  0  0  0  0  0  0  0  0
   -4.8668    2.7260    1.1247 C   0  0  0  0  0  0  0  0  0  0  0  0
   -3.9963    3.9859    1.0931 C   0  0  0  0  0  0  0  0  0  0  0  0
   -2.8062    3.7949    2.0383 C   0  0  0  0  0  0  0  0  0  0  0  0
   -2.0305    2.5422    1.6227 C   0  0  0  0  0  0  0  0  0  0  0  0
   -2.9057    1.4127    1.6438 O   0  0  0  0  0  0  0  0  0  0  0  0
   -1.5120    2.7187    0.3029 O   0  0  0  0  0  0  0  0  0  0  0  0
   -0.5549    1.8423   -0.1073 C   0  0  0  0  0  0  0  0  0  0  0  0
   -0.7762    1.0386   -1.1853 C   0  0  0  0  0  0  0  0  0  0  0  0
    0.1373    0.1579   -1.6276 O   0  0  0  0  0  0  0  0  0  0  0  0
    1.3409    0.0072   -1.0347 C   0  0  0  0  0  0  0  0  0  0  0  0
    2.2591   -0.9116   -1.5196 C   0  0  0  0  0  0  0  0  0  0  0  0
    3.4909   -1.0555   -0.9013 C   0  0  0  0  0  0  0  0  0  0  0  0
    3.8217   -0.2826    0.2102 C   0  0  0  0  0  0  0  0  0  0  0  0
    2.9167    0.6406    0.7085 C   0  0  0  0  0  0  0  0  0  0  0  0
    1.6708    0.7892    0.0867 C   0  0  0  0  0  0  0  0  0  0  0  0
    0.6833    1.7623    0.5804 C   0  0  0  0  0  0  0  0  0  0  0  0
    0.9187    2.4698    1.5469 O   0  0  0  0  0  0  0  0  0  0  0  0
    3.2353    1.3954    1.7919 O   0  0  0  0  0  0  0  0  0  0  0  0
    5.0356   -0.4353    0.8075 O   0  0  0  0  0  0  0  0  0  0  0  0
    6.0570    0.4976    0.4490 C   0  0  0  0  0  0  0  0  0  0  0  0
    7.1705    0.4642    1.4992 C   0  0  0  0  0  0  0  0  0  0  0  0
    7.8016   -0.9314    1.5186 C   0  0  0  0  0  0  0  0  0  0  0  0
    8.3159   -1.2667    0.1152 C   0  0  0  0  0  0  0  0  0  0  0  0
    7.1582   -1.1664   -0.8815 C   0  0  0  0  0  0  0  0  0  0  0  0
    6.5967    0.1465   -0.8268 O   0  0  0  0  0  0  0  0  0  0  0  0
    7.6763   -1.4413   -2.2946 C   0  0  0  0  0  0  0  0  0  0  0  0
    6.5761   -1.4833   -3.2055 O   0  0  0  0  0  0  0  0  0  0  0  0
    9.3425   -0.3424   -0.2506 O   0  0  0  0  0  0  0  0  0  0  0  0
    8.8903   -0.9509    2.4440 O   0  0  0  0  0  0  0  0  0  0  0  0
    8.1667    1.4343    1.1700 O   0  0  0  0  0  0  0  0  0  0  0  0
    4.3841   -1.9585   -1.3830 O   0  0  0  0  0  0  0  0  0  0  0  0
   -2.0663    1.1388   -1.8925 C   0  0  0  0  0  0  0  0  0  0  0  0
   -2.5642    2.3896   -2.2688 C   0  0  0  0  0  0  0  0  0  0  0  0
   -3.7695    2.4784   -2.9297 C   0  0  0  0  0  0  0  0  0  0  0  0
   -4.4902    1.3270   -3.2224 C   0  0  0  0  0  0  0  0  0  0  0  0
   -3.9993    0.0815   -2.8498 C   0  0  0  0  0  0  0  0  0  0  0  0
   -2.7922   -0.0172   -2.1937 C   0  0  0  0  0  0  0  0  0  0  0  0
   -5.6779    1.4192   -3.8740 O   0  0  0  0  0  0  0  0  0  0  0  0
   -1.9481    4.9350    1.9623 O   0  0  0  0  0  0  0  0  0  0  0  0
   -3.5205    4.2049   -0.2365 O   0  0  0  0  0  0  0  0  0  0  0  0
   -5.9407    2.8639    0.1922 O   0  0  0  0  0  0  0  0  0  0  0  0
   -2.6896   -3.2951    0.4646 O   0  0  0  0  0  0  0  0  0  0  0  0
   -3.8431   -5.5895   -0.6493 O   0  0  0  0  0  0  0  0  0  0  0  0
   -3.7678   -4.9655    2.0784 O   0  0  0  0  0  0  0  0  0  0  0  0
   -7.6935   -4.5087    1.2850 H   0  0  0  0  0  0  0  0  0  0  0  0
   -7.7241   -2.7531    1.5767 H   0  0  0  0  0  0  0  0  0  0  0  0
   -6.9478   -3.3983    0.1107 H   0  0  0  0  0  0  0  0  0  0  0  0
   -6.0003   -3.8574    2.9758 H   0  0  0  0  0  0  0  0  0  0  0  0
   -5.5589   -5.7614    1.4209 H   0  0  0  0  0  0  0  0  0  0  0  0
   -5.6000   -4.5000   -0.6955 H   0  0  0  0  0  0  0  0  0  0  0  0
   -3.7572   -2.9703   -1.2756 H   0  0  0  0  0  0  0  0  0  0  0  0
   -5.7336   -2.0216   -0.1471 H   0  0  0  0  0  0  0  0  0  0  0  0
   -5.7499    0.3579    0.2143 H   0  0  0  0  0  0  0  0  0  0  0  0
   -5.1543    0.0746    1.8675 H   0  0  0  0  0  0  0  0  0  0  0  0
   -3.6421    1.6356   -0.2739 H   0  0  0  0  0  0  0  0  0  0  0  0
   -5.2699    2.5868    2.1279 H   0  0  0  0  0  0  0  0  0  0  0  0
   -4.5851    4.8441    1.4170 H   0  0  0  0  0  0  0  0  0  0  0  0
   -3.1676    3.6773    3.0599 H   0  0  0  0  0  0  0  0  0  0  0  0
   -1.2072    2.3771    2.3178 H   0  0  0  0  0  0  0  0  0  0  0  0
    2.0137   -1.5164   -2.3801 H   0  0  0  0  0  0  0  0  0  0  0  0
    3.6668    2.2330    1.5746 H   0  0  0  0  0  0  0  0  0  0  0  0
    5.6327    1.5005    0.4009 H   0  0  0  0  0  0  0  0  0  0  0  0
    6.7524    0.6885    2.4806 H   0  0  0  0  0  0  0  0  0  0  0  0
    7.0538   -1.6657    1.8180 H   0  0  0  0  0  0  0  0  0  0  0  0
    8.7170   -2.2802    0.1068 H   0  0  0  0  0  0  0  0  0  0  0  0
    6.3935   -1.8998   -0.6254 H   0  0  0  0  0  0  0  0  0  0  0  0
    8.3630   -0.6482   -2.5905 H   0  0  0  0  0  0  0  0  0  0  0  0
    8.1980   -2.3982   -2.3106 H   0  0  0  0  0  0  0  0  0  0  0  0
    6.8310   -1.6540   -4.1226 H   0  0  0  0  0  0  0  0  0  0  0  0
   10.1067   -0.3486    0.3418 H   0  0  0  0  0  0  0  0  0  0  0  0
    8.6375   -0.7401    3.3533 H   0  0  0  0  0  0  0  0  0  0  0  0
    7.8353    2.3421    1.1350 H   0  0  0  0  0  0  0  0  0  0  0  0
    4.9232   -1.6270   -2.1140 H   0  0  0  0  0  0  0  0  0  0  0  0
   -2.0049    3.2851   -2.0414 H   0  0  0  0  0  0  0  0  0  0  0  0
   -4.1551    3.4443   -3.2205 H   0  0  0  0  0  0  0  0  0  0  0  0
   -4.5630   -0.8107   -3.0790 H   0  0  0  0  0  0  0  0  0  0  0  0
   -2.4114   -0.9856   -1.9046 H   0  0  0  0  0  0  0  0  0  0  0  0
   -5.6022    1.3800   -4.8373 H   0  0  0  0  0  0  0  0  0  0  0  0
   -1.1718    4.8820    2.5364 H   0  0  0  0  0  0  0  0  0  0  0  0
   -2.9612    4.9882   -0.3300 H   0  0  0  0  0  0  0  0  0  0  0  0
   -6.5246    3.6133    0.3727 H   0  0  0  0  0  0  0  0  0  0  0  0
   -2.1700   -2.4798    0.4416 H   0  0  0  0  0  0  0  0  0  0  0  0
   -3.6037   -5.4718   -1.5788 H   0  0  0  0  0  0  0  0  0  0  0  0
   -3.8926   -5.1437    3.0206 H   0  0  0  0  0  0  0  0  0  0  0  0
  1  2  1  0  0  0  0
  2  3  1  0  0  0  0
  3  4  1  0  0  0  0
  4  5  1  0  0  0  0
  5  6  1  0  0  0  0
  6  7  1  0  0  0  0
  2  7  1  0  0  0  0
  6  8  1  0  0  0  0
  8  9  1  0  0  0  0
  9 10  1  0  0  0  0
 10 11  1  0  0  0  0
 11 12  1  0  0  0  0
 12 13  1  0  0  0  0
 13 14  1  0  0  0  0
 14 15  1  0  0  0  0
 10 15  1  0  0  0  0
 14 16  1  0  0  0  0
 16 17  1  0  0  0  0
 17 18  2  0  0  0  0
 18 19  1  0  0  0  0
 19 20  1  0  0  0  0
 20 21  2  0  0  0  0
 21 22  1  0  0  0  0
 22 23  2  0  0  0  0
 23 24  1  0  0  0  0
 24 25  2  0  0  0  0
 20 25  1  0  0  0  0
 25 26  1  0  0  0  0
 17 26  1  0  0  0  0
 26 27  2  0  0  0  0
 24 28  1  0  0  0  0
 23 29  1  0  0  0  0
 29 30  1  0  0  0  0
 30 31  1  0  0  0  0
 31 32  1  0  0  0  0
 32 33  1  0  0  0  0
 33 34  1  0  0  0  0
 34 35  1  0  0  0  0
 30 35  1  0  0  0  0
 34 36  1  0  0  0  0
 36 37  1  0  0  0  0
 33 38  1  0  0  0  0
 32 39  1  0  0  0  0
 31 40  1  0  0  0  0
 22 41  1  0  0  0  0
 18 42  1  0  0  0  0
 42 43  2  0  0  0  0
 43 44  1  0  0  0  0
 44 45  2  0  0  0  0
 45 46  1  0  0  0  0
 46 47  2  0  0  0  0
 42 47  1  0  0  0  0
 45 48  1  0  0  0  0
 13 49  1  0  0  0  0
 12 50  1  0  0  0  0
 11 51  1  0  0  0  0
  5 52  1  0  0  0  0
  4 53  1  0  0  0  0
  3 54  1  0  0  0  0
  1 55  1  0  0  0  0
  1 56  1  0  0  0  0
  1 57  1  0  0  0  0
  2 58  1  0  0  0  0
  3 59  1  0  0  0  0
  4 60  1  0  0  0  0
  5 61  1  0  0  0  0
  6 62  1  0  0  0  0
  9 63  1  0  0  0  0
  9 64  1  0  0  0  0
 10 65  1  0  0  0  0
 11 66  1  0  0  0  0
 12 67  1  0  0  0  0
 13 68  1  0  0  0  0
 14 69  1  0  0  0  0
 21 70  1  0  0  0  0
 28 71  1  0  0  0  0
 30 72  1  0  0  0  0
 31 73  1  0  0  0  0
 32 74  1  0  0  0  0
 33 75  1  0  0  0  0
 34 76  1  0  0  0  0
 36 77  1  0  0  0  0
 36 78  1  0  0  0  0
 37 79  1  0  0  0  0
 38 80  1  0  0  0  0
 39 81  1  0  0  0  0
 40 82  1  0  0  0  0
 41 83  1  0  0  0  0
 43 84  1  0  0  0  0
 44 85  1  0  0  0  0
 46 86  1  0  0  0  0
 47 87  1  0  0  0  0
 48 88  1  0  0  0  0
 49 89  1  0  0  0  0
 50 90  1  0  0  0  0
 51 91  1  0  0  0  0
 52 92  1  0  0  0  0
 53 93  1  0  0  0  0
 54 94  1  0  0  0  0
M  END
$$$$
