C33H40O19
APtclcactv06291802583D 0   0.00000     0.00000
 
 92 97  0  0  0  0  0  0  0  0999 V2000
    7.4887    1.0556   -2.1183 C   0  0  0  0  0  0  0  0  0  0  0  0
    7.0911    1.4928   -0.7070 C   0  0  0  0  0  0  0  0  0  0  0  0
    6.7416    2.9833   -0.7137 C   0  0  0  0  0  0  0  0  0  0  0  0
    5.5346    3.2125   -1.6286 C   0  0  0  0  0  0  0  0  0  0  0  0
    4.3690    2.3442   -1.1451 C   0  0  0  0  0  0  0  0  0  0  0  0
    4.8103    0.8784   -1.1217 C   0  0  0  0  0  0  0  0  0  0  0  0
    5.9548    0.7403   -0.2773 O   0  0  0  0  0  0  0  0  0  0  0  0
    3.7461    0.0684   -0.6183 O   0  0  0  0  0  0  0  0  0  0  0  0
    4.0138   -1.3347   -0.6603 C   0  0  0  0  0  0  0  0  0  0  0  0
    2.8131   -2.0999   -0.1002 C   0  0  0  0  0  0  0  0  0  0  0  0
    3.0471   -3.6044   -0.2595 C   0  0  0  0  0  0  0  0  0  0  0  0
    1.8690   -4.3646    0.3574 C   0  0  0  0  0  0  0  0  0  0  0  0
    1.7214   -3.9515    1.8250 C   0  0  0  0  0  0  0  0  0  0  0  0
    1.5386   -2.4336    1.9039 C   0  0  0  0  0  0  0  0  0  0  0  0
    2.6535   -1.7881    1.2853 O   0  0  0  0  0  0  0  0  0  0  0  0
    0.3367   -2.0625    1.2259 O   0  0  0  0  0  0  0  0  0  0  0  0
   -0.0803   -0.7785    1.3689 C   0  0  0  0  0  0  0  0  0  0  0  0
   -1.2901   -0.3844    0.8188 C   0  0  0  0  0  0  0  0  0  0  0  0
   -1.7233    0.9247    0.9607 C   0  0  0  0  0  0  0  0  0  0  0  0
   -0.9263    1.8435    1.6649 C   0  0  0  0  0  0  0  0  0  0  0  0
    0.2952    1.4386    2.2178 C   0  0  0  0  0  0  0  0  0  0  0  0
    0.7078    0.1273    2.0708 C   0  0  0  0  0  0  0  0  0  0  0  0
    1.0652    2.3254    2.8980 O   0  0  0  0  0  0  0  0  0  0  0  0
   -1.4063    3.2289    1.8031 C   0  0  0  0  0  0  0  0  0  0  0  0
   -0.7554    4.0685    2.4037 O   0  0  0  0  0  0  0  0  0  0  0  0
   -2.6515    3.5486    1.2119 C   0  0  0  0  0  0  0  0  0  0  0  0
   -3.3470    2.5847    0.5505 C   0  0  0  0  0  0  0  0  0  0  0  0
   -2.8986    1.3250    0.4309 O   0  0  0  0  0  0  0  0  0  0  0  0
   -4.6431    2.9372   -0.0592 C   0  0  0  0  0  0  0  0  0  0  0  0
   -5.3813    1.9688   -0.7455 C   0  0  0  0  0  0  0  0  0  0  0  0
   -6.5910    2.3023   -1.3132 C   0  0  0  0  0  0  0  0  0  0  0  0
   -7.0779    3.5994   -1.2046 C   0  0  0  0  0  0  0  0  0  0  0  0
   -6.3472    4.5653   -0.5231 C   0  0  0  0  0  0  0  0  0  0  0  0
   -5.1393    4.2391    0.0526 C   0  0  0  0  0  0  0  0  0  0  0  0
   -8.2705    3.9239   -1.7661 O   0  0  0  0  0  0  0  0  0  0  0  0
   -2.1347   -1.3797    0.0657 C   0  0  0  0  0  0  0  0  0  0  0  0
   -1.5324   -1.6135   -1.3223 C   0  0  0  0  0  0  0  0  0  0  0  0
   -2.3615   -2.6703   -2.0586 C   0  0  0  0  0  0  0  0  0  0  0  0
   -2.3993   -3.9504   -1.2181 C   0  0  0  0  0  0  0  0  0  0  0  0
   -2.9680   -3.6263    0.1658 C   0  0  0  0  0  0  0  0  0  0  0  0
   -2.1687   -2.6152    0.7830 O   0  0  0  0  0  0  0  0  0  0  0  0
   -4.4056   -3.1230    0.0215 C   0  0  0  0  0  0  0  0  0  0  0  0
   -4.9853   -2.9592    1.3174 O   0  0  0  0  0  0  0  0  0  0  0  0
   -3.2300   -4.9193   -1.8609 O   0  0  0  0  0  0  0  0  0  0  0  0
   -3.6918   -2.1854   -2.2511 O   0  0  0  0  0  0  0  0  0  0  0  0
   -1.5504   -0.3914   -2.0627 O   0  0  0  0  0  0  0  0  0  0  0  0
    0.5808   -4.5999    2.3912 O   0  0  0  0  0  0  0  0  0  0  0  0
    0.6702   -4.0457   -0.3519 O   0  0  0  0  0  0  0  0  0  0  0  0
    3.1494   -3.9274   -1.6478 O   0  0  0  0  0  0  0  0  0  0  0  0
    3.9861    2.7487    0.1709 O   0  0  0  0  0  0  0  0  0  0  0  0
    5.1555    4.5896   -1.5838 O   0  0  0  0  0  0  0  0  0  0  0  0
    6.4214    3.4046    0.6137 O   0  0  0  0  0  0  0  0  0  0  0  0
    8.3548    1.6304   -2.4463 H   0  0  0  0  0  0  0  0  0  0  0  0
    7.7375   -0.0056   -2.1134 H   0  0  0  0  0  0  0  0  0  0  0  0
    6.6569    1.2306   -2.8007 H   0  0  0  0  0  0  0  0  0  0  0  0
    7.9227    1.3175   -0.0244 H   0  0  0  0  0  0  0  0  0  0  0  0
    7.5926    3.5554   -1.0832 H   0  0  0  0  0  0  0  0  0  0  0  0
    5.7945    2.9376   -2.6509 H   0  0  0  0  0  0  0  0  0  0  0  0
    3.5234    2.4593   -1.8231 H   0  0  0  0  0  0  0  0  0  0  0  0
    5.0636    0.5589   -2.1326 H   0  0  0  0  0  0  0  0  0  0  0  0
    4.1903   -1.6402   -1.6916 H   0  0  0  0  0  0  0  0  0  0  0  0
    4.8967   -1.5543   -0.0601 H   0  0  0  0  0  0  0  0  0  0  0  0
    1.9131   -1.8124   -0.6437 H   0  0  0  0  0  0  0  0  0  0  0  0
    3.9689   -3.8857    0.2497 H   0  0  0  0  0  0  0  0  0  0  0  0
    2.0554   -5.4369    0.2975 H   0  0  0  0  0  0  0  0  0  0  0  0
    2.6164   -4.2397    2.3764 H   0  0  0  0  0  0  0  0  0  0  0  0
    1.4759   -2.1288    2.9485 H   0  0  0  0  0  0  0  0  0  0  0  0
    1.6485   -0.1922    2.4943 H   0  0  0  0  0  0  0  0  0  0  0  0
    0.8764    2.3644    3.8456 H   0  0  0  0  0  0  0  0  0  0  0  0
   -3.0472    4.5508    1.2857 H   0  0  0  0  0  0  0  0  0  0  0  0
   -5.0035    0.9607   -0.8307 H   0  0  0  0  0  0  0  0  0  0  0  0
   -7.1618    1.5547   -1.8440 H   0  0  0  0  0  0  0  0  0  0  0  0
   -6.7292    5.5722   -0.4410 H   0  0  0  0  0  0  0  0  0  0  0  0
   -4.5721    4.9904    0.5820 H   0  0  0  0  0  0  0  0  0  0  0  0
   -9.0285    3.8002   -1.1785 H   0  0  0  0  0  0  0  0  0  0  0  0
   -3.1479   -0.9915   -0.0384 H   0  0  0  0  0  0  0  0  0  0  0  0
   -0.5052   -1.9631   -1.2194 H   0  0  0  0  0  0  0  0  0  0  0  0
   -1.9058   -2.8824   -3.0258 H   0  0  0  0  0  0  0  0  0  0  0  0
   -1.3895   -4.3472   -1.1132 H   0  0  0  0  0  0  0  0  0  0  0  0
   -2.9575   -4.5249    0.7826 H   0  0  0  0  0  0  0  0  0  0  0  0
   -4.4049   -2.1657   -0.4997 H   0  0  0  0  0  0  0  0  0  0  0  0
   -4.9885   -3.8466   -0.5484 H   0  0  0  0  0  0  0  0  0  0  0  0
   -5.8985   -2.6417    1.3025 H   0  0  0  0  0  0  0  0  0  0  0  0
   -2.9310   -5.1684   -2.7461 H   0  0  0  0  0  0  0  0  0  0  0  0
   -4.2734   -2.8051   -2.7125 H   0  0  0  0  0  0  0  0  0  0  0  0
   -1.1827   -0.4660   -2.9539 H   0  0  0  0  0  0  0  0  0  0  0  0
    0.4265   -4.3834    3.3210 H   0  0  0  0  0  0  0  0  0  0  0  0
   -0.1032   -4.5497   -0.0637 H   0  0  0  0  0  0  0  0  0  0  0  0
    3.2984   -4.8666   -1.8231 H   0  0  0  0  0  0  0  0  0  0  0  0
    3.2514    2.2400    0.5405 H   0  0  0  0  0  0  0  0  0  0  0  0
    4.3958    4.8068   -2.1412 H   0  0  0  0  0  0  0  0  0  0  0  0
    7.1404    3.2835    1.2489 H   0  0  0  0  0  0  0  0  0  0  0  0
  1  2  1  0  0  0  0
  2  3  1  0  0  0  0
  3  4  1  0  0  0  0
  4  5  1  0  0  0  0
  5  6  1  0  0  0  0
  6  7  1  0  0  0  0
  2  7  1  0  0  0  0
  6  8  1  0  0  0  0
  8  9  1  0  0  0  0
  9 10  1  0  0  0  0
 10 11  1  0  0  0  0
 11 12  1  0  0  0  0
 12 13  1  0  0  0  0
 13 14  1  0  0  0  0
 14 15  1  0  0  0  0
 10 15  1  0  0  0  0
 14 16  1  0  0  0  0
 16 17  1  0  0  0  0
 17 18  2  0  0  0  0
 18 19  1  0  0  0  0
 19 20  2  0  0  0  0
 20 21  1  0  0  0  0
 21 22  2  0  0  0  0
 17 22  1  0  0  0  0
 21 23  1  0  0  0  0
 20 24  1  0  0  0  0
 24 25  2  0  0  0  0
 24 26  1  0  0  0  0
 26 27  2  0  0  0  0
 27 28  1  0  0  0  0
 19 28  1  0  0  0  0
 27 29  1  0  0  0  0
 29 30  2  0  0  0  0
 30 31  1  0  0  0  0
 31 32  2  0  0  0  0
 32 33  1  0  0  0  0
 33 34  2  0  0  0  0
 29 34  1  0  0  0  0
 32 35  1  0  0  0  0
 18 36  1  0  0  0  0
 36 37  1  0  0  0  0
 37 38  1  0  0  0  0
 38 39  1  0  0  0  0
 39 40  1  0  0  0  0
 40 41  1  0  0  0  0
 36 41  1  0  0  0  0
 40 42  1  0  0  0  0
 42 43  1  0  0  0  0
 39 44  1  0  0  0  0
 38 45  1  0  0  0  0
 37 46  1  0  0  0  0
 13 47  1  0  0  0  0
 12 48  1  0  0  0  0
 11 49  1  0  0  0  0
  5 50  1  0  0  0  0
  4 51  1  0  0  0  0
  3 52  1  0  0  0  0
  1 53  1  0  0  0  0
  1 54  1  0  0  0  0
  1 55  1  0  0  0  0
  2 56  1  0  0  0  0
  3 57  1  0  0  0  0
  4 58  1  0  0  0  0
  5 59  1  0  0  0  0
  6 60  1  0  0  0  0
  9 61  1  0  0  0  0
  9 62  1  0  0  0  0
 10 63  1  0  0  0  0
 11 64  1  0  0  0  0
 12 65  1  0  0  0  0
 13 66  1  0  0  0  0
 14 67  1  0  0  0  0
 22 68  1  0  0  0  0
 23 69  1  0  0  0  0
 26 70  1  0  0  0  0
 30 71  1  0  0  0  0
 31 72  1  0  0  0  0
 33 73  1  0  0  0  0
 34 74  1  0  0  0  0
 35 75  1  0  0  0  0
 36 76  1  0  0  0  0
 37 77  1  0  0  0  0
 38 78  1  0  0  0  0
 39 79  1  0  0  0  0
 40 80  1  0  0  0  0
 42 81  1  0  0  0  0
 42 82  1  0  0  0  0
 43 83  1  0  0  0  0
 44 84  1  0  0  0  0
 45 85  1  0  0  0  0
 46 86  1  0  0  0  0
 47 87  1  0  0  0  0
 48 88  1  0  0  0  0
 49 89  1  0  0  0  0
 50 90  1  0  0  0  0
 51 91  1  0  0  0  0
 52 92  1  0  0  0  0
M  END
$$$$
