C21H24O13
APtclcactv06291802583D 0   0.00000     0.00000
 
 58 61  0  0  0  0  0  0  0  0999 V2000
    1.0858    1.4478   -1.7979 C   0  0  0  0  0  0  0  0  0  0  0  0
    0.1730    1.4557   -0.7599 C   0  0  0  0  0  0  0  0  0  0  0  0
    0.4310    2.1831    0.3868 C   0  0  0  0  0  0  0  0  0  0  0  0
    1.6073    2.9086    0.5000 C   0  0  0  0  0  0  0  0  0  0  0  0
    2.5277    2.9033   -0.5413 C   0  0  0  0  0  0  0  0  0  0  0  0
    2.2647    2.1702   -1.6924 C   0  0  0  0  0  0  0  0  0  0  0  0
    3.1624    2.1614   -2.7140 O   0  0  0  0  0  0  0  0  0  0  0  0
    3.6833    3.6140   -0.4342 O   0  0  0  0  0  0  0  0  0  0  0  0
    1.8598    3.6247    1.6282 O   0  0  0  0  0  0  0  0  0  0  0  0
   -1.1072    0.6695   -0.8790 C   0  0  0  0  0  0  0  0  0  0  0  0
   -0.9725   -0.6556   -0.1178 C   0  0  0  0  0  0  0  0  0  0  0  0
   -2.2441   -1.4751   -0.3513 C   0  0  0  0  0  0  0  0  0  0  0  0
   -3.4563   -0.6093   -0.1184 C   0  0  0  0  0  0  0  0  0  0  0  0
   -4.6853   -1.2236    0.0924 C   0  0  0  0  0  0  0  0  0  0  0  0
   -5.8208   -0.4592    0.3062 C   0  0  0  0  0  0  0  0  0  0  0  0
   -5.7312    0.9245    0.3096 C   0  0  0  0  0  0  0  0  0  0  0  0
   -4.5066    1.5376    0.1007 C   0  0  0  0  0  0  0  0  0  0  0  0
   -3.3658    0.7715   -0.1123 C   0  0  0  0  0  0  0  0  0  0  0  0
   -2.1830    1.4119   -0.3035 O   0  0  0  0  0  0  0  0  0  0  0  0
   -6.8429    1.6780    0.5170 O   0  0  0  0  0  0  0  0  0  0  0  0
   -4.7734   -2.5797    0.0882 O   0  0  0  0  0  0  0  0  0  0  0  0
   -2.2571   -1.9600   -1.6954 O   0  0  0  0  0  0  0  0  0  0  0  0
    0.1615   -1.3770   -0.6034 O   0  0  0  0  0  0  0  0  0  0  0  0
    0.7841   -2.2096    0.3770 C   0  0  0  0  0  0  0  0  0  0  0  0
    1.9015   -3.0239   -0.2801 C   0  0  0  0  0  0  0  0  0  0  0  0
    2.9681   -2.0677   -0.8229 C   0  0  0  0  0  0  0  0  0  0  0  0
    3.4837   -1.1921    0.3233 C   0  0  0  0  0  0  0  0  0  0  0  0
    2.3051   -0.4485    0.9571 C   0  0  0  0  0  0  0  0  0  0  0  0
    1.3363   -1.3948    1.4130 O   0  0  0  0  0  0  0  0  0  0  0  0
    2.8034    0.3824    2.1413 C   0  0  0  0  0  0  0  0  0  0  0  0
    1.7267    1.1657    2.6601 O   0  0  0  0  0  0  0  0  0  0  0  0
    4.1137   -2.0152    1.3070 O   0  0  0  0  0  0  0  0  0  0  0  0
    4.0504   -2.8214   -1.3729 O   0  0  0  0  0  0  0  0  0  0  0  0
    2.4896   -3.8956    0.6876 O   0  0  0  0  0  0  0  0  0  0  0  0
    0.8826    0.8746   -2.6904 H   0  0  0  0  0  0  0  0  0  0  0  0
   -0.2848    2.1867    1.1956 H   0  0  0  0  0  0  0  0  0  0  0  0
    3.8209    1.4559   -2.6529 H   0  0  0  0  0  0  0  0  0  0  0  0
    4.4165    3.1165   -0.0468 H   0  0  0  0  0  0  0  0  0  0  0  0
    2.3319    3.1290    2.3113 H   0  0  0  0  0  0  0  0  0  0  0  0
   -1.3189    0.4696   -1.9294 H   0  0  0  0  0  0  0  0  0  0  0  0
   -0.8537   -0.4570    0.9474 H   0  0  0  0  0  0  0  0  0  0  0  0
   -2.2633   -2.3191    0.3383 H   0  0  0  0  0  0  0  0  0  0  0  0
   -6.7740   -0.9401    0.4697 H   0  0  0  0  0  0  0  0  0  0  0  0
   -4.4377    2.6154    0.1029 H   0  0  0  0  0  0  0  0  0  0  0  0
   -7.0106    1.8840    1.4468 H   0  0  0  0  0  0  0  0  0  0  0  0
   -4.6434   -2.9850    0.9565 H   0  0  0  0  0  0  0  0  0  0  0  0
   -3.0361   -2.4893   -1.9151 H   0  0  0  0  0  0  0  0  0  0  0  0
    0.0431   -2.8864    0.8026 H   0  0  0  0  0  0  0  0  0  0  0  0
    1.4895   -3.6130   -1.0995 H   0  0  0  0  0  0  0  0  0  0  0  0
    2.5317   -1.4360   -1.5965 H   0  0  0  0  0  0  0  0  0  0  0  0
    4.2032   -0.4710   -0.0646 H   0  0  0  0  0  0  0  0  0  0  0  0
    1.8502    0.2097    0.2169 H   0  0  0  0  0  0  0  0  0  0  0  0
    3.1771   -0.2825    2.9200 H   0  0  0  0  0  0  0  0  0  0  0  0
    3.6059    1.0417    1.8105 H   0  0  0  0  0  0  0  0  0  0  0  0
    1.9708    1.7189    3.4147 H   0  0  0  0  0  0  0  0  0  0  0  0
    4.8676   -2.5202    0.9729 H   0  0  0  0  0  0  0  0  0  0  0  0
    3.7940   -3.4044   -2.1005 H   0  0  0  0  0  0  0  0  0  0  0  0
    1.8689   -4.5264    1.0774 H   0  0  0  0  0  0  0  0  0  0  0  0
  1  2  2  0  0  0  0
  2  3  1  0  0  0  0
  3  4  2  0  0  0  0
  4  5  1  0  0  0  0
  5  6  2  0  0  0  0
  1  6  1  0  0  0  0
  6  7  1  0  0  0  0
  5  8  1  0  0  0  0
  4  9  1  0  0  0  0
  2 10  1  0  0  0  0
 10 11  1  0  0  0  0
 11 12  1  0  0  0  0
 12 13  1  0  0  0  0
 13 14  2  0  0  0  0
 14 15  1  0  0  0  0
 15 16  2  0  0  0  0
 16 17  1  0  0  0  0
 17 18  2  0  0  0  0
 13 18  1  0  0  0  0
 18 19  1  0  0  0  0
 10 19  1  0  0  0  0
 16 20  1  0  0  0  0
 14 21  1  0  0  0  0
 12 22  1  0  0  0  0
 11 23  1  0  0  0  0
 23 24  1  0  0  0  0
 24 25  1  0  0  0  0
 25 26  1  0  0  0  0
 26 27  1  0  0  0  0
 27 28  1  0  0  0  0
 28 29  1  0  0  0  0
 24 29  1  0  0  0  0
 28 30  1  0  0  0  0
 30 31  1  0  0  0  0
 27 32  1  0  0  0  0
 26 33  1  0  0  0  0
 25 34  1  0  0  0  0
  1 35  1  0  0  0  0
  3 36  1  0  0  0  0
  7 37  1  0  0  0  0
  8 38  1  0  0  0  0
  9 39  1  0  0  0  0
 10 40  1  0  0  0  0
 11 41  1  0  0  0  0
 12 42  1  0  0  0  0
 15 43  1  0  0  0  0
 17 44  1  0  0  0  0
 20 45  1  0  0  0  0
 21 46  1  0  0  0  0
 22 47  1  0  0  0  0
 24 48  1  0  0  0  0
 25 49  1  0  0  0  0
 26 50  1  0  0  0  0
 27 51  1  0  0  0  0
 28 52  1  0  0  0  0
 30 53  1  0  0  0  0
 30 54  1  0  0  0  0
 31 55  1  0  0  0  0
 32 56  1  0  0  0  0
 33 57  1  0  0  0  0
 34 58  1  0  0  0  0
M  END
$$$$
