C25H27O13
APtclcactv06291802583D 0   0.00000     0.00000
 
 65 68  0  0  0  0  0  0  0  0999 V2000
    4.5823   -1.9208   -2.8325 C   0  0  0  0  0  0  0  0  0  0  0  0
    3.5737   -2.9237   -2.3344 C   0  0  0  0  0  0  0  0  0  0  0  0
    3.6736   -4.0868   -2.6462 O   0  0  0  0  0  0  0  0  0  0  0  0
    2.5645   -2.5250   -1.5444 O   0  0  0  0  0  0  0  0  0  0  0  0
    1.6307   -3.5452   -1.1024 C   0  0  0  0  0  0  0  0  0  0  0  0
    0.5581   -2.9061   -0.2181 C   0  0  0  0  0  0  0  0  0  0  0  0
   -0.4954   -3.9556    0.1459 C   0  0  0  0  0  0  0  0  0  0  0  0
   -1.5325   -3.3242    1.0797 C   0  0  0  0  0  0  0  0  0  0  0  0
   -0.8185   -2.7648    2.3140 C   0  0  0  0  0  0  0  0  0  0  0  0
    0.2474   -1.7613    1.8663 C   0  0  0  0  0  0  0  0  0  0  0  0
    1.1616   -2.4048    0.9763 O   0  0  0  0  0  0  0  0  0  0  0  0
   -0.3804   -0.6669    1.1953 O   0  0  0  0  0  0  0  0  0  0  0  0
    0.3885    0.4255    0.9434 C   0  0  0  0  0  0  0  0  0  0  0  0
   -0.1397    1.5472    0.2791 C   0  0  0  0  0  0  0  0  0  0  0  0
    0.5165    2.5346    0.0400 O   0  3  0  0  0  0  0  0  0  0  0  0
    1.6886    2.6832    0.3348 C   0  0  0  0  0  0  0  0  0  0  0  0
    2.3625    3.8710    0.0122 C   0  0  0  0  0  0  0  0  0  0  0  0
    3.6887    4.0222    0.3537 C   0  0  0  0  0  0  0  0  0  0  0  0
    4.3799    3.0082    1.0199 C   0  0  0  0  0  0  0  0  0  0  0  0
    3.7521    1.8390    1.3479 C   0  0  0  0  0  0  0  0  0  0  0  0
    2.3980    1.6587    1.0113 C   0  0  0  0  0  0  0  0  0  0  0  0
    1.7088    0.4716    1.3357 C   0  0  0  0  0  0  0  0  0  0  0  0
    4.4312    0.8578    1.9952 O   0  0  0  0  0  0  0  0  0  0  0  0
    4.3335    5.1748    0.0373 O   0  0  0  0  0  0  0  0  0  0  0  0
   -1.5565    1.5179   -0.1450 C   0  0  0  0  0  0  0  0  0  0  0  0
   -2.5485    1.1326    0.7581 C   0  0  0  0  0  0  0  0  0  0  0  0
   -3.8728    1.1063    0.3596 C   0  0  0  0  0  0  0  0  0  0  0  0
   -4.2163    1.4633   -0.9410 C   0  0  0  0  0  0  0  0  0  0  0  0
   -3.2287    1.8473   -1.8432 C   0  0  0  0  0  0  0  0  0  0  0  0
   -1.9039    1.8810   -1.4471 C   0  0  0  0  0  0  0  0  0  0  0  0
   -3.5672    2.1952   -3.1137 O   0  0  0  0  0  0  0  0  0  0  0  0
   -2.4957    2.4727   -4.0176 C   0  0  0  0  0  0  0  0  0  0  0  0
   -5.5187    1.4363   -1.3308 O   0  0  0  0  0  0  0  0  0  0  0  0
   -4.8398    0.7310    1.2391 O   0  0  0  0  0  0  0  0  0  0  0  0
   -4.4160    0.3772    2.5572 C   0  0  0  0  0  0  0  0  0  0  0  0
   -1.7670   -2.1092    3.1582 O   0  0  0  0  0  0  0  0  0  0  0  0
   -2.2082   -2.2658    0.3976 O   0  0  0  0  0  0  0  0  0  0  0  0
   -1.1409   -4.4166   -1.0427 O   0  0  0  0  0  0  0  0  0  0  0  0
    4.2442   -1.5065   -3.7823 H   0  0  0  0  0  0  0  0  0  0  0  0
    4.6873   -1.1180   -2.1027 H   0  0  0  0  0  0  0  0  0  0  0  0
    5.5449   -2.4125   -2.9727 H   0  0  0  0  0  0  0  0  0  0  0  0
    1.1588   -4.0064   -1.9700 H   0  0  0  0  0  0  0  0  0  0  0  0
    2.1656   -4.3052   -0.5329 H   0  0  0  0  0  0  0  0  0  0  0  0
    0.0833   -2.0864   -0.7573 H   0  0  0  0  0  0  0  0  0  0  0  0
   -0.0150   -4.7946    0.6493 H   0  0  0  0  0  0  0  0  0  0  0  0
   -2.2544   -4.0807    1.3876 H   0  0  0  0  0  0  0  0  0  0  0  0
   -0.3446   -3.5797    2.8613 H   0  0  0  0  0  0  0  0  0  0  0  0
    0.7877   -1.3918    2.7379 H   0  0  0  0  0  0  0  0  0  0  0  0
    1.8427    4.6650   -0.5033 H   0  0  0  0  0  0  0  0  0  0  0  0
    5.4192    3.1487    1.2777 H   0  0  0  0  0  0  0  0  0  0  0  0
    2.1848   -0.3477    1.8540 H   0  0  0  0  0  0  0  0  0  0  0  0
    4.3884    0.9200    2.9593 H   0  0  0  0  0  0  0  0  0  0  0  0
    4.2808    5.8556    0.7219 H   0  0  0  0  0  0  0  0  0  0  0  0
   -2.2823    0.8549    1.7673 H   0  0  0  0  0  0  0  0  0  0  0  0
   -1.1379    2.1794   -2.1475 H   0  0  0  0  0  0  0  0  0  0  0  0
   -1.9114    3.3125   -3.6415 H   0  0  0  0  0  0  0  0  0  0  0  0
   -1.8560    1.5943   -4.1033 H   0  0  0  0  0  0  0  0  0  0  0  0
   -2.9025    2.7229   -4.9974 H   0  0  0  0  0  0  0  0  0  0  0  0
   -5.9893    2.2689   -1.1881 H   0  0  0  0  0  0  0  0  0  0  0  0
   -3.9149    1.2282    3.0184 H   0  0  0  0  0  0  0  0  0  0  0  0
   -5.2836    0.0985    3.1553 H   0  0  0  0  0  0  0  0  0  0  0  0
   -3.7262   -0.4651    2.5032 H   0  0  0  0  0  0  0  0  0  0  0  0
   -1.3833   -1.7301    3.9608 H   0  0  0  0  0  0  0  0  0  0  0  0
   -2.9509   -1.8911    0.8908 H   0  0  0  0  0  0  0  0  0  0  0  0
   -1.8220   -5.0849   -0.8865 H   0  0  0  0  0  0  0  0  0  0  0  0
  1  2  1  0  0  0  0
  2  3  2  0  0  0  0
  2  4  1  0  0  0  0
  4  5  1  0  0  0  0
  5  6  1  0  0  0  0
  6  7  1  0  0  0  0
  7  8  1  0  0  0  0
  8  9  1  0  0  0  0
  9 10  1  0  0  0  0
 10 11  1  0  0  0  0
  6 11  1  0  0  0  0
 10 12  1  0  0  0  0
 12 13  1  0  0  0  0
 13 14  2  0  0  0  0
 14 15  1  0  0  0  0
 15 16  2  0  0  0  0
 16 17  1  0  0  0  0
 17 18  2  0  0  0  0
 18 19  1  0  0  0  0
 19 20  2  0  0  0  0
 20 21  1  0  0  0  0
 16 21  1  0  0  0  0
 21 22  2  0  0  0  0
 13 22  1  0  0  0  0
 20 23  1  0  0  0  0
 18 24  1  0  0  0  0
 14 25  1  0  0  0  0
 25 26  2  0  0  0  0
 26 27  1  0  0  0  0
 27 28  2  0  0  0  0
 28 29  1  0  0  0  0
 29 30  2  0  0  0  0
 25 30  1  0  0  0  0
 29 31  1  0  0  0  0
 31 32  1  0  0  0  0
 28 33  1  0  0  0  0
 27 34  1  0  0  0  0
 34 35  1  0  0  0  0
  9 36  1  0  0  0  0
  8 37  1  0  0  0  0
  7 38  1  0  0  0  0
  1 39  1  0  0  0  0
  1 40  1  0  0  0  0
  1 41  1  0  0  0  0
  5 42  1  0  0  0  0
  5 43  1  0  0  0  0
  6 44  1  0  0  0  0
  7 45  1  0  0  0  0
  8 46  1  0  0  0  0
  9 47  1  0  0  0  0
 10 48  1  0  0  0  0
 17 49  1  0  0  0  0
 19 50  1  0  0  0  0
 22 51  1  0  0  0  0
 23 52  1  0  0  0  0
 24 53  1  0  0  0  0
 26 54  1  0  0  0  0
 30 55  1  0  0  0  0
 32 56  1  0  0  0  0
 32 57  1  0  0  0  0
 32 58  1  0  0  0  0
 33 59  1  0  0  0  0
 35 60  1  0  0  0  0
 35 61  1  0  0  0  0
 35 62  1  0  0  0  0
 36 63  1  0  0  0  0
 37 64  1  0  0  0  0
 38 65  1  0  0  0  0
M  CHG  1  15   1
M  END
$$$$
