C32H38O19
APtclcactv06291802583D 0   0.00000     0.00000
 
 89 94  0  0  0  0  0  0  0  0999 V2000
    1.8703   -4.1093    2.0207 C   0  0  0  0  0  0  0  0  0  0  0  0
    2.2009   -5.0854    0.8886 C   0  0  0  0  0  0  0  0  0  0  0  0
    1.5094   -4.6184   -0.3959 C   0  0  0  0  0  0  0  0  0  0  0  0
    1.9567   -3.1880   -0.7125 C   0  0  0  0  0  0  0  0  0  0  0  0
    1.6355   -2.2852    0.4815 C   0  0  0  0  0  0  0  0  0  0  0  0
    2.2843   -2.7930    1.6491 O   0  0  0  0  0  0  0  0  0  0  0  0
    2.1261   -0.8881    0.2015 C   0  0  0  0  0  0  0  0  0  0  0  0
    3.4808   -0.6028    0.2707 C   0  0  0  0  0  0  0  0  0  0  0  0
    3.9485    0.6819    0.0153 C   0  0  0  0  0  0  0  0  0  0  0  0
    3.0623    1.6915   -0.3115 C   0  0  0  0  0  0  0  0  0  0  0  0
    1.6922    1.4100   -0.3837 C   0  0  0  0  0  0  0  0  0  0  0  0
    1.2228    0.1097   -0.1308 C   0  0  0  0  0  0  0  0  0  0  0  0
   -0.0996   -0.1516   -0.2032 O   0  0  0  0  0  0  0  0  0  0  0  0
   -1.0014    0.7937   -0.5120 C   0  0  0  0  0  0  0  0  0  0  0  0
   -0.6501    2.0814   -0.7739 C   0  0  0  0  0  0  0  0  0  0  0  0
    0.7139    2.4554   -0.7289 C   0  0  0  0  0  0  0  0  0  0  0  0
    1.0650    3.6016   -0.9579 O   0  0  0  0  0  0  0  0  0  0  0  0
   -2.4276    0.4217   -0.5700 C   0  0  0  0  0  0  0  0  0  0  0  0
   -2.8201   -0.8937   -0.3063 C   0  0  0  0  0  0  0  0  0  0  0  0
   -4.1528   -1.2367   -0.3615 C   0  0  0  0  0  0  0  0  0  0  0  0
   -5.1067   -0.2773   -0.6789 C   0  0  0  0  0  0  0  0  0  0  0  0
   -4.7209    1.0317   -0.9418 C   0  0  0  0  0  0  0  0  0  0  0  0
   -3.3910    1.3847   -0.8831 C   0  0  0  0  0  0  0  0  0  0  0  0
   -6.4193   -0.6198   -0.7327 O   0  0  0  0  0  0  0  0  0  0  0  0
   -7.3468    0.4153   -1.0649 C   0  0  0  0  0  0  0  0  0  0  0  0
   -8.7505   -0.1808   -1.1992 C   0  0  0  0  0  0  0  0  0  0  0  0
   -9.1768   -0.7721    0.1480 C   0  0  0  0  0  0  0  0  0  0  0  0
   -9.1099    0.3223    1.2176 C   0  0  0  0  0  0  0  0  0  0  0  0
   -7.6923    0.8989    1.2586 C   0  0  0  0  0  0  0  0  0  0  0  0
   -7.3473    1.4039   -0.0329 O   0  0  0  0  0  0  0  0  0  0  0  0
   -7.6326    2.0340    2.2829 C   0  0  0  0  0  0  0  0  0  0  0  0
   -6.2854    2.4943    2.4058 O   0  0  0  0  0  0  0  0  0  0  0  0
  -10.0385    1.3602    0.8976 O   0  0  0  0  0  0  0  0  0  0  0  0
  -10.5145   -1.2654    0.0517 O   0  0  0  0  0  0  0  0  0  0  0  0
   -9.6697    0.8438   -1.5832 O   0  0  0  0  0  0  0  0  0  0  0  0
    3.5166    2.9459   -0.5602 O   0  0  0  0  0  0  0  0  0  0  0  0
    5.4247    0.9742    0.0957 C   0  0  0  0  0  0  0  0  0  0  0  0
    5.9956    1.1116   -1.3182 C   0  0  0  0  0  0  0  0  0  0  0  0
    7.4826    1.4679   -1.2275 C   0  0  0  0  0  0  0  0  0  0  0  0
    7.6393    2.7537   -0.4099 C   0  0  0  0  0  0  0  0  0  0  0  0
    7.0049    2.5529    0.9689 C   0  0  0  0  0  0  0  0  0  0  0  0
    5.6307    2.1936    0.8117 O   0  0  0  0  0  0  0  0  0  0  0  0
    7.7422    1.4372    1.7122 C   0  0  0  0  0  0  0  0  0  0  0  0
    7.2524    1.3529    3.0520 O   0  0  0  0  0  0  0  0  0  0  0  0
    9.0275    3.0563   -0.2573 O   0  0  0  0  0  0  0  0  0  0  0  0
    8.1907    0.4047   -0.5870 O   0  0  0  0  0  0  0  0  0  0  0  0
    5.8427   -0.1254   -2.0172 O   0  0  0  0  0  0  0  0  0  0  0  0
    4.3594   -1.5867    0.5912 O   0  0  0  0  0  0  0  0  0  0  0  0
    3.3642   -3.1712   -0.9588 O   0  0  0  0  0  0  0  0  0  0  0  0
    1.8715   -5.4824   -1.4750 O   0  0  0  0  0  0  0  0  0  0  0  0
    3.6149   -5.1189    0.6846 O   0  0  0  0  0  0  0  0  0  0  0  0
    0.7957   -4.1146    2.2029 H   0  0  0  0  0  0  0  0  0  0  0  0
    2.3943   -4.4129    2.9270 H   0  0  0  0  0  0  0  0  0  0  0  0
    1.8462   -6.0820    1.1516 H   0  0  0  0  0  0  0  0  0  0  0  0
    0.4285   -4.6401   -0.2567 H   0  0  0  0  0  0  0  0  0  0  0  0
    1.4272   -2.8276   -1.5945 H   0  0  0  0  0  0  0  0  0  0  0  0
    0.5578   -2.2666    0.6436 H   0  0  0  0  0  0  0  0  0  0  0  0
   -1.4065    2.8123   -1.0190 H   0  0  0  0  0  0  0  0  0  0  0  0
   -2.0793   -1.6400   -0.0599 H   0  0  0  0  0  0  0  0  0  0  0  0
   -4.4569   -2.2529   -0.1583 H   0  0  0  0  0  0  0  0  0  0  0  0
   -5.4656    1.7742   -1.1881 H   0  0  0  0  0  0  0  0  0  0  0  0
   -3.0920    2.4023   -1.0872 H   0  0  0  0  0  0  0  0  0  0  0  0
   -7.0554    0.8754   -2.0091 H   0  0  0  0  0  0  0  0  0  0  0  0
   -8.7420   -0.9658   -1.9553 H   0  0  0  0  0  0  0  0  0  0  0  0
   -8.5048   -1.5869    0.4175 H   0  0  0  0  0  0  0  0  0  0  0  0
   -9.3584   -0.1030    2.1900 H   0  0  0  0  0  0  0  0  0  0  0  0
   -6.9893    0.1157    1.5424 H   0  0  0  0  0  0  0  0  0  0  0  0
   -8.2685    2.8553    1.9525 H   0  0  0  0  0  0  0  0  0  0  0  0
   -7.9818    1.6701    3.2492 H   0  0  0  0  0  0  0  0  0  0  0  0
   -6.1725    3.2155    3.0400 H   0  0  0  0  0  0  0  0  0  0  0  0
  -10.9579    1.0644    0.8498 H   0  0  0  0  0  0  0  0  0  0  0  0
  -10.6314   -1.9579   -0.6129 H   0  0  0  0  0  0  0  0  0  0  0  0
   -9.4577    1.2664   -2.4268 H   0  0  0  0  0  0  0  0  0  0  0  0
    3.7349    3.1085   -1.4880 H   0  0  0  0  0  0  0  0  0  0  0  0
    5.9291    0.1586    0.6137 H   0  0  0  0  0  0  0  0  0  0  0  0
    5.4639    1.9001   -1.8507 H   0  0  0  0  0  0  0  0  0  0  0  0
    7.8823    1.6222   -2.2298 H   0  0  0  0  0  0  0  0  0  0  0  0
    7.1408    3.5754   -0.9240 H   0  0  0  0  0  0  0  0  0  0  0  0
    7.0756    3.4787    1.5398 H   0  0  0  0  0  0  0  0  0  0  0  0
    7.5732    0.4882    1.2032 H   0  0  0  0  0  0  0  0  0  0  0  0
    8.8099    1.6555    1.7288 H   0  0  0  0  0  0  0  0  0  0  0  0
    7.6761    0.6649    3.5831 H   0  0  0  0  0  0  0  0  0  0  0  0
    9.4948    3.1915   -1.0930 H   0  0  0  0  0  0  0  0  0  0  0  0
    9.1402    0.5635   -0.4958 H   0  0  0  0  0  0  0  0  0  0  0  0
    6.1836   -0.1106   -2.9220 H   0  0  0  0  0  0  0  0  0  0  0  0
    4.7002   -2.0735   -0.1717 H   0  0  0  0  0  0  0  0  0  0  0  0
    3.6403   -3.7268   -1.7006 H   0  0  0  0  0  0  0  0  0  0  0  0
    1.6241   -6.4071   -1.3386 H   0  0  0  0  0  0  0  0  0  0  0  0
    4.1176   -5.4019    1.4607 H   0  0  0  0  0  0  0  0  0  0  0  0
  1  2  1  0  0  0  0
  2  3  1  0  0  0  0
  3  4  1  0  0  0  0
  4  5  1  0  0  0  0
  5  6  1  0  0  0  0
  1  6  1  0  0  0  0
  5  7  1  0  0  0  0
  7  8  2  0  0  0  0
  8  9  1  0  0  0  0
  9 10  2  0  0  0  0
 10 11  1  0  0  0  0
 11 12  2  0  0  0  0
  7 12  1  0  0  0  0
 12 13  1  0  0  0  0
 13 14  1  0  0  0  0
 14 15  2  0  0  0  0
 15 16  1  0  0  0  0
 11 16  1  0  0  0  0
 16 17  2  0  0  0  0
 14 18  1  0  0  0  0
 18 19  2  0  0  0  0
 19 20  1  0  0  0  0
 20 21  2  0  0  0  0
 21 22  1  0  0  0  0
 22 23  2  0  0  0  0
 18 23  1  0  0  0  0
 21 24  1  0  0  0  0
 24 25  1  0  0  0  0
 25 26  1  0  0  0  0
 26 27  1  0  0  0  0
 27 28  1  0  0  0  0
 28 29  1  0  0  0  0
 29 30  1  0  0  0  0
 25 30  1  0  0  0  0
 29 31  1  0  0  0  0
 31 32  1  0  0  0  0
 28 33  1  0  0  0  0
 27 34  1  0  0  0  0
 26 35  1  0  0  0  0
 10 36  1  0  0  0  0
  9 37  1  0  0  0  0
 37 38  1  0  0  0  0
 38 39  1  0  0  0  0
 39 40  1  0  0  0  0
 40 41  1  0  0  0  0
 41 42  1  0  0  0  0
 37 42  1  0  0  0  0
 41 43  1  0  0  0  0
 43 44  1  0  0  0  0
 40 45  1  0  0  0  0
 39 46  1  0  0  0  0
 38 47  1  0  0  0  0
  8 48  1  0  0  0  0
  4 49  1  0  0  0  0
  3 50  1  0  0  0  0
  2 51  1  0  0  0  0
  1 52  1  0  0  0  0
  1 53  1  0  0  0  0
  2 54  1  0  0  0  0
  3 55  1  0  0  0  0
  4 56  1  0  0  0  0
  5 57  1  0  0  0  0
 15 58  1  0  0  0  0
 19 59  1  0  0  0  0
 20 60  1  0  0  0  0
 22 61  1  0  0  0  0
 23 62  1  0  0  0  0
 25 63  1  0  0  0  0
 26 64  1  0  0  0  0
 27 65  1  0  0  0  0
 28 66  1  0  0  0  0
 29 67  1  0  0  0  0
 31 68  1  0  0  0  0
 31 69  1  0  0  0  0
 32 70  1  0  0  0  0
 33 71  1  0  0  0  0
 34 72  1  0  0  0  0
 35 73  1  0  0  0  0
 36 74  1  0  0  0  0
 37 75  1  0  0  0  0
 38 76  1  0  0  0  0
 39 77  1  0  0  0  0
 40 78  1  0  0  0  0
 41 79  1  0  0  0  0
 43 80  1  0  0  0  0
 43 81  1  0  0  0  0
 44 82  1  0  0  0  0
 45 83  1  0  0  0  0
 46 84  1  0  0  0  0
 47 85  1  0  0  0  0
 48 86  1  0  0  0  0
 49 87  1  0  0  0  0
 50 88  1  0  0  0  0
 51 89  1  0  0  0  0
M  END
$$$$
