C20H24O4
APtclcactv06291802573D 0   0.00000     0.00000
 
 48 51  0  0  0  0  0  0  0  0999 V2000
    5.2837   -0.3233   -0.9836 C   0  0  0  0  0  0  0  0  0  0  0  0
    4.5490   -0.9251    0.2160 C   0  0  0  0  0  0  0  0  0  0  0  0
    5.1240   -0.3449    1.5097 C   0  0  0  0  0  0  0  0  0  0  0  0
    3.0820   -0.5927    0.1249 C   0  0  0  0  0  0  0  0  0  0  0  0
    2.1754   -1.5941    0.0581 C   0  0  0  0  0  0  0  0  0  0  0  0
    0.7506   -1.2733   -0.0302 C   0  0  0  0  0  0  0  0  0  0  0  0
   -0.1979   -2.2463   -0.1282 C   0  0  0  0  0  0  0  0  0  0  0  0
   -1.6599   -1.8499   -0.2012 C   0  0  0  0  0  0  0  0  0  0  0  0
   -1.8495   -0.6441    0.7742 C   0  0  0  0  0  0  0  0  0  0  0  0
   -3.3505   -0.3568    0.8402 C   0  0  0  0  0  0  0  0  0  0  0  0
   -3.6019    1.0601    1.3518 C   0  0  0  0  0  0  0  0  0  0  0  0
   -2.9900    2.0606    0.3661 C   0  0  0  0  0  0  0  0  0  0  0  0
   -1.4774    1.8352    0.3194 C   0  0  0  0  0  0  0  0  0  0  0  0
   -1.1482    0.4287   -0.0971 C   0  0  0  0  0  0  0  0  0  0  0  0
    0.3304    0.1369   -0.0278 C   0  0  0  0  0  0  0  0  0  0  0  0
    1.2562    1.1135    0.0361 C   0  0  0  0  0  0  0  0  0  0  0  0
    2.6748    0.7592    0.1164 C   0  0  0  0  0  0  0  0  0  0  0  0
    3.5158    1.6432    0.1676 O   0  0  0  0  0  0  0  0  0  0  0  0
    0.8759    2.4189    0.0306 O   0  0  0  0  0  0  0  0  0  0  0  0
   -1.6301    0.0761   -1.4879 C   0  0  0  0  0  0  0  0  0  0  0  0
   -1.7566    0.8450   -2.4113 O   0  0  0  0  0  0  0  0  0  0  0  0
   -1.8940   -1.2461   -1.5163 O   0  0  0  0  0  0  0  0  0  0  0  0
   -3.9546   -0.5035   -0.5578 C   0  0  0  0  0  0  0  0  0  0  0  0
   -4.0156   -1.3601    1.7846 C   0  0  0  0  0  0  0  0  0  0  0  0
    6.3448   -0.5636   -0.9177 H   0  0  0  0  0  0  0  0  0  0  0  0
    4.8741   -0.7366   -1.9053 H   0  0  0  0  0  0  0  0  0  0  0  0
    5.1556    0.7592   -0.9824 H   0  0  0  0  0  0  0  0  0  0  0  0
    4.6771   -2.0075    0.2148 H   0  0  0  0  0  0  0  0  0  0  0  0
    4.9959    0.7375    1.5109 H   0  0  0  0  0  0  0  0  0  0  0  0
    4.6006   -0.7737    2.3643 H   0  0  0  0  0  0  0  0  0  0  0  0
    6.1851   -0.5853    1.5756 H   0  0  0  0  0  0  0  0  0  0  0  0
    2.5010   -2.6237    0.0695 H   0  0  0  0  0  0  0  0  0  0  0  0
    0.0879   -3.2875   -0.1540 H   0  0  0  0  0  0  0  0  0  0  0  0
   -2.3308   -2.6804    0.0188 H   0  0  0  0  0  0  0  0  0  0  0  0
   -1.3969   -0.7957    1.7542 H   0  0  0  0  0  0  0  0  0  0  0  0
   -4.6750    1.2348    1.4300 H   0  0  0  0  0  0  0  0  0  0  0  0
   -3.1383    1.1823    2.3307 H   0  0  0  0  0  0  0  0  0  0  0  0
   -3.4142    1.9036   -0.6256 H   0  0  0  0  0  0  0  0  0  0  0  0
   -3.1984    3.0772    0.6996 H   0  0  0  0  0  0  0  0  0  0  0  0
   -1.0345    2.5313   -0.3929 H   0  0  0  0  0  0  0  0  0  0  0  0
   -1.0578    2.0223    1.3078 H   0  0  0  0  0  0  0  0  0  0  0  0
    1.6125    3.0434    0.0796 H   0  0  0  0  0  0  0  0  0  0  0  0
   -3.6939   -1.4802   -0.9656 H   0  0  0  0  0  0  0  0  0  0  0  0
   -5.0391   -0.4131   -0.4963 H   0  0  0  0  0  0  0  0  0  0  0  0
   -3.5611    0.2782   -1.2075 H   0  0  0  0  0  0  0  0  0  0  0  0
   -3.5815   -1.2650    2.7799 H   0  0  0  0  0  0  0  0  0  0  0  0
   -5.0856   -1.1583    1.8341 H   0  0  0  0  0  0  0  0  0  0  0  0
   -3.8534   -2.3718    1.4127 H   0  0  0  0  0  0  0  0  0  0  0  0
  1  2  1  0  0  0  0
  2  3  1  0  0  0  0
  2  4  1  0  0  0  0
  4  5  2  0  0  0  0
  5  6  1  0  0  0  0
  6  7  2  0  0  0  0
  7  8  1  0  0  0  0
  8  9  1  0  0  0  0
  9 10  1  0  0  0  0
 10 11  1  0  0  0  0
 11 12  1  0  0  0  0
 12 13  1  0  0  0  0
 13 14  1  0  0  0  0
  9 14  1  0  0  0  0
 14 15  1  0  0  0  0
  6 15  1  0  0  0  0
 15 16  2  0  0  0  0
 16 17  1  0  0  0  0
  4 17  1  0  0  0  0
 17 18  2  0  0  0  0
 16 19  1  0  0  0  0
 14 20  1  0  0  0  0
 20 21  2  0  0  0  0
 20 22  1  0  0  0  0
  8 22  1  0  0  0  0
 10 23  1  0  0  0  0
 10 24  1  0  0  0  0
  1 25  1  0  0  0  0
  1 26  1  0  0  0  0
  1 27  1  0  0  0  0
  2 28  1  0  0  0  0
  3 29  1  0  0  0  0
  3 30  1  0  0  0  0
  3 31  1  0  0  0  0
  5 32  1  0  0  0  0
  7 33  1  0  0  0  0
  8 34  1  0  0  0  0
  9 35  1  0  0  0  0
 11 36  1  0  0  0  0
 11 37  1  0  0  0  0
 12 38  1  0  0  0  0
 12 39  1  0  0  0  0
 13 40  1  0  0  0  0
 13 41  1  0  0  0  0
 19 42  1  0  0  0  0
 23 43  1  0  0  0  0
 23 44  1  0  0  0  0
 23 45  1  0  0  0  0
 24 46  1  0  0  0  0
 24 47  1  0  0  0  0
 24 48  1  0  0  0  0
M  END
$$$$
