C33H40O22
APtclcactv06291802593D 0   0.00000     0.00000
 
 95100  0  0  0  0  0  0  0  0999 V2000
   -4.7445    1.5239    1.8935 C   0  0  0  0  0  0  0  0  0  0  0  0
   -5.8832    2.2980    1.8543 C   0  0  0  0  0  0  0  0  0  0  0  0
   -6.0318    3.2697    0.8723 C   0  0  0  0  0  0  0  0  0  0  0  0
   -5.0332    3.4656   -0.0739 C   0  0  0  0  0  0  0  0  0  0  0  0
   -3.8911    2.6962   -0.0424 C   0  0  0  0  0  0  0  0  0  0  0  0
   -3.7373    1.7174    0.9437 C   0  0  0  0  0  0  0  0  0  0  0  0
   -2.5163    0.8916    0.9818 C   0  0  0  0  0  0  0  0  0  0  0  0
   -2.6425   -0.4648    1.0165 C   0  0  0  0  0  0  0  0  0  0  0  0
   -1.4775   -1.2735    1.0534 C   0  0  0  0  0  0  0  0  0  0  0  0
   -1.5519   -2.4916    1.0847 O   0  0  0  0  0  0  0  0  0  0  0  0
   -0.1758   -0.5869    1.0520 C   0  0  0  0  0  0  0  0  0  0  0  0
    1.0247   -1.3069    1.0865 C   0  0  0  0  0  0  0  0  0  0  0  0
    2.2300   -0.6237    1.0835 C   0  0  0  0  0  0  0  0  0  0  0  0
    2.2433    0.7694    1.0469 C   0  0  0  0  0  0  0  0  0  0  0  0
    1.0577    1.4858    1.0127 C   0  0  0  0  0  0  0  0  0  0  0  0
   -0.1578    0.8189    1.0146 C   0  0  0  0  0  0  0  0  0  0  0  0
   -1.3204    1.5044    0.9756 O   0  0  0  0  0  0  0  0  0  0  0  0
    3.4297    1.4312    1.0451 O   0  0  0  0  0  0  0  0  0  0  0  0
    3.3762    2.8586    1.0067 C   0  0  0  0  0  0  0  0  0  0  0  0
    4.7921    3.4263    1.1363 C   0  0  0  0  0  0  0  0  0  0  0  0
    5.6318    2.9603   -0.0570 C   0  0  0  0  0  0  0  0  0  0  0  0
    4.9453    3.4009   -1.3535 C   0  0  0  0  0  0  0  0  0  0  0  0
    3.5235    2.8343   -1.3870 C   0  0  0  0  0  0  0  0  0  0  0  0
    2.8069    3.2810   -0.2341 O   0  0  0  0  0  0  0  0  0  0  0  0
    2.8104    3.3195   -2.6507 C   0  0  0  0  0  0  0  0  0  0  0  0
    1.5265    2.6988   -2.7413 O   0  0  0  0  0  0  0  0  0  0  0  0
    4.8919    4.8280   -1.4044 O   0  0  0  0  0  0  0  0  0  0  0  0
    6.9336    3.5449    0.0171 O   0  0  0  0  0  0  0  0  0  0  0  0
    4.7347    4.8540    1.1513 O   0  0  0  0  0  0  0  0  0  0  0  0
    3.4030   -1.3142    1.1168 O   0  0  0  0  0  0  0  0  0  0  0  0
    4.0693   -1.5217   -0.1302 C   0  0  0  0  0  0  0  0  0  0  0  0
    5.5416   -1.8536    0.1267 C   0  0  0  0  0  0  0  0  0  0  0  0
    5.6311   -3.1583    0.9243 C   0  0  0  0  0  0  0  0  0  0  0  0
    4.9116   -4.2673    0.1505 C   0  0  0  0  0  0  0  0  0  0  0  0
    3.4636   -3.8421   -0.1073 C   0  0  0  0  0  0  0  0  0  0  0  0
    3.4520   -2.6068   -0.8256 O   0  0  0  0  0  0  0  0  0  0  0  0
    2.7549   -4.9185   -0.9320 C   0  0  0  0  0  0  0  0  0  0  0  0
    1.3799   -4.5651   -1.0953 O   0  0  0  0  0  0  0  0  0  0  0  0
    5.5741   -4.4866   -1.0965 O   0  0  0  0  0  0  0  0  0  0  0  0
    7.0030   -3.5146    1.1055 O   0  0  0  0  0  0  0  0  0  0  0  0
    6.2208   -2.0091   -1.1209 O   0  0  0  0  0  0  0  0  0  0  0  0
    1.0076   -2.6647    1.1230 O   0  0  0  0  0  0  0  0  0  0  0  0
   -3.8764   -1.0391    1.0162 O   0  0  0  0  0  0  0  0  0  0  0  0
   -4.2045   -1.8709   -0.0984 C   0  0  0  0  0  0  0  0  0  0  0  0
   -5.4749   -2.6660    0.2144 C   0  0  0  0  0  0  0  0  0  0  0  0
   -6.6382   -1.6921    0.4260 C   0  0  0  0  0  0  0  0  0  0  0  0
   -6.7919   -0.8185   -0.8228 C   0  0  0  0  0  0  0  0  0  0  0  0
   -5.4706   -0.0948   -1.0955 C   0  0  0  0  0  0  0  0  0  0  0  0
   -4.4256   -1.0568   -1.2519 O   0  0  0  0  0  0  0  0  0  0  0  0
   -5.5974    0.7336   -2.3756 C   0  0  0  0  0  0  0  0  0  0  0  0
   -4.4061    1.4992   -2.5674 O   0  0  0  0  0  0  0  0  0  0  0  0
   -7.1260   -1.6407   -1.9427 O   0  0  0  0  0  0  0  0  0  0  0  0
   -7.8434   -2.4278    0.6460 O   0  0  0  0  0  0  0  0  0  0  0  0
   -5.7741   -3.5372   -0.8781 O   0  0  0  0  0  0  0  0  0  0  0  0
   -7.1564    4.0299    0.8369 O   0  0  0  0  0  0  0  0  0  0  0  0
   -4.6281    0.7716    2.6596 H   0  0  0  0  0  0  0  0  0  0  0  0
   -6.6619    2.1491    2.5877 H   0  0  0  0  0  0  0  0  0  0  0  0
   -5.1529    4.2221   -0.8354 H   0  0  0  0  0  0  0  0  0  0  0  0
   -3.1158    2.8487   -0.7787 H   0  0  0  0  0  0  0  0  0  0  0  0
    1.0804    2.5652    0.9848 H   0  0  0  0  0  0  0  0  0  0  0  0
    2.7622    3.2217    1.8308 H   0  0  0  0  0  0  0  0  0  0  0  0
    5.2444    3.0692    2.0615 H   0  0  0  0  0  0  0  0  0  0  0  0
    5.7172    1.8737   -0.0407 H   0  0  0  0  0  0  0  0  0  0  0  0
    5.5071    3.0258   -2.2089 H   0  0  0  0  0  0  0  0  0  0  0  0
    3.5662    1.7451   -1.3890 H   0  0  0  0  0  0  0  0  0  0  0  0
    2.6885    4.4018   -2.6062 H   0  0  0  0  0  0  0  0  0  0  0  0
    3.4038    3.0564   -3.5264 H   0  0  0  0  0  0  0  0  0  0  0  0
    1.0170    2.9608   -3.5203 H   0  0  0  0  0  0  0  0  0  0  0  0
    5.7592    5.2551   -1.3819 H   0  0  0  0  0  0  0  0  0  0  0  0
    7.4238    3.3133    0.8179 H   0  0  0  0  0  0  0  0  0  0  0  0
    4.2136    5.2191    1.8796 H   0  0  0  0  0  0  0  0  0  0  0  0
    4.0007   -0.6168   -0.7339 H   0  0  0  0  0  0  0  0  0  0  0  0
    6.0031   -1.0465    0.6956 H   0  0  0  0  0  0  0  0  0  0  0  0
    5.1562   -3.0248    1.8963 H   0  0  0  0  0  0  0  0  0  0  0  0
    4.9225   -5.1864    0.7364 H   0  0  0  0  0  0  0  0  0  0  0  0
    2.9474   -3.7142    0.8441 H   0  0  0  0  0  0  0  0  0  0  0  0
    3.2285   -4.9971   -1.9105 H   0  0  0  0  0  0  0  0  0  0  0  0
    2.8251   -5.8762   -0.4163 H   0  0  0  0  0  0  0  0  0  0  0  0
    0.8680   -5.2043   -1.6095 H   0  0  0  0  0  0  0  0  0  0  0  0
    6.4991   -4.7546   -1.0087 H   0  0  0  0  0  0  0  0  0  0  0  0
    7.5215   -2.8528    1.5832 H   0  0  0  0  0  0  0  0  0  0  0  0
    6.2000   -1.2210   -1.6809 H   0  0  0  0  0  0  0  0  0  0  0  0
    1.0190   -3.0818    0.2507 H   0  0  0  0  0  0  0  0  0  0  0  0
   -3.3827   -2.5603   -0.2919 H   0  0  0  0  0  0  0  0  0  0  0  0
   -5.3229   -3.2541    1.1194 H   0  0  0  0  0  0  0  0  0  0  0  0
   -6.4322   -1.0603    1.2900 H   0  0  0  0  0  0  0  0  0  0  0  0
   -7.5818   -0.0853   -0.6594 H   0  0  0  0  0  0  0  0  0  0  0  0
   -5.2369    0.5630   -0.2583 H   0  0  0  0  0  0  0  0  0  0  0  0
   -5.7423    0.0678   -3.2263 H   0  0  0  0  0  0  0  0  0  0  0  0
   -6.4514    1.4055   -2.2905 H   0  0  0  0  0  0  0  0  0  0  0  0
   -4.4162    2.0498   -3.3623 H   0  0  0  0  0  0  0  0  0  0  0  0
   -7.9512   -2.1336   -1.8365 H   0  0  0  0  0  0  0  0  0  0  0  0
   -7.8142   -3.0086    1.4186 H   0  0  0  0  0  0  0  0  0  0  0  0
   -5.1150   -4.2303   -1.0204 H   0  0  0  0  0  0  0  0  0  0  0  0
   -7.0976    4.8437    1.3559 H   0  0  0  0  0  0  0  0  0  0  0  0
  1  2  2  0  0  0  0
  2  3  1  0  0  0  0
  3  4  2  0  0  0  0
  4  5  1  0  0  0  0
  5  6  2  0  0  0  0
  1  6  1  0  0  0  0
  6  7  1  0  0  0  0
  7  8  2  0  0  0  0
  8  9  1  0  0  0  0
  9 10  2  0  0  0  0
  9 11  1  0  0  0  0
 11 12  2  0  0  0  0
 12 13  1  0  0  0  0
 13 14  2  0  0  0  0
 14 15  1  0  0  0  0
 15 16  2  0  0  0  0
 11 16  1  0  0  0  0
 16 17  1  0  0  0  0
  7 17  1  0  0  0  0
 14 18  1  0  0  0  0
 18 19  1  0  0  0  0
 19 20  1  0  0  0  0
 20 21  1  0  0  0  0
 21 22  1  0  0  0  0
 22 23  1  0  0  0  0
 23 24  1  0  0  0  0
 19 24  1  0  0  0  0
 23 25  1  0  0  0  0
 25 26  1  0  0  0  0
 22 27  1  0  0  0  0
 21 28  1  0  0  0  0
 20 29  1  0  0  0  0
 13 30  1  0  0  0  0
 30 31  1  0  0  0  0
 31 32  1  0  0  0  0
 32 33  1  0  0  0  0
 33 34  1  0  0  0  0
 34 35  1  0  0  0  0
 35 36  1  0  0  0  0
 31 36  1  0  0  0  0
 35 37  1  0  0  0  0
 37 38  1  0  0  0  0
 34 39  1  0  0  0  0
 33 40  1  0  0  0  0
 32 41  1  0  0  0  0
 12 42  1  0  0  0  0
  8 43  1  0  0  0  0
 43 44  1  0  0  0  0
 44 45  1  0  0  0  0
 45 46  1  0  0  0  0
 46 47  1  0  0  0  0
 47 48  1  0  0  0  0
 48 49  1  0  0  0  0
 44 49  1  0  0  0  0
 48 50  1  0  0  0  0
 50 51  1  0  0  0  0
 47 52  1  0  0  0  0
 46 53  1  0  0  0  0
 45 54  1  0  0  0  0
  3 55  1  0  0  0  0
  1 56  1  0  0  0  0
  2 57  1  0  0  0  0
  4 58  1  0  0  0  0
  5 59  1  0  0  0  0
 15 60  1  0  0  0  0
 19 61  1  0  0  0  0
 20 62  1  0  0  0  0
 21 63  1  0  0  0  0
 22 64  1  0  0  0  0
 23 65  1  0  0  0  0
 25 66  1  0  0  0  0
 25 67  1  0  0  0  0
 26 68  1  0  0  0  0
 27 69  1  0  0  0  0
 28 70  1  0  0  0  0
 29 71  1  0  0  0  0
 31 72  1  0  0  0  0
 32 73  1  0  0  0  0
 33 74  1  0  0  0  0
 34 75  1  0  0  0  0
 35 76  1  0  0  0  0
 37 77  1  0  0  0  0
 37 78  1  0  0  0  0
 38 79  1  0  0  0  0
 39 80  1  0  0  0  0
 40 81  1  0  0  0  0
 41 82  1  0  0  0  0
 42 83  1  0  0  0  0
 44 84  1  0  0  0  0
 45 85  1  0  0  0  0
 46 86  1  0  0  0  0
 47 87  1  0  0  0  0
 48 88  1  0  0  0  0
 50 89  1  0  0  0  0
 50 90  1  0  0  0  0
 51 91  1  0  0  0  0
 52 92  1  0  0  0  0
 53 93  1  0  0  0  0
 54 94  1  0  0  0  0
 55 95  1  0  0  0  0
M  END
$$$$
