C23H20O13
APtclcactv06291802583D 0   0.00000     0.00000
 
 56 59  0  0  0  0  0  0  0  0999 V2000
    4.4311    4.4728    0.0411 C   0  0  0  0  0  0  0  0  0  0  0  0
    4.4483    3.0531   -0.4642 C   0  0  0  0  0  0  0  0  0  0  0  0
    4.7308    2.8255   -1.6167 O   0  0  0  0  0  0  0  0  0  0  0  0
    4.1499    2.0415    0.3661 O   0  0  0  0  0  0  0  0  0  0  0  0
    4.1865    0.7004   -0.1891 C   0  0  0  0  0  0  0  0  0  0  0  0
    4.5677   -0.2978    0.9085 C   0  0  0  0  0  0  0  0  0  0  0  0
    3.4863   -0.2846    1.9933 C   0  0  0  0  0  0  0  0  0  0  0  0
    2.1323   -0.6097    1.3571 C   0  0  0  0  0  0  0  0  0  0  0  0
    1.8530    0.3377    0.3244 O   0  0  0  0  0  0  0  0  0  0  0  0
    2.8054    0.3373   -0.7410 C   0  0  0  0  0  0  0  0  0  0  0  0
    2.3975    1.3495   -1.7803 C   0  0  0  0  0  0  0  0  0  0  0  0
    1.4457    2.0673   -1.5836 O   0  0  0  0  0  0  0  0  0  0  0  0
    3.0916    1.4536   -2.9245 O   0  0  0  0  0  0  0  0  0  0  0  0
    2.1712   -1.9248    0.7995 O   0  0  0  0  0  0  0  0  0  0  0  0
    1.0103   -2.4118    0.2850 C   0  0  0  0  0  0  0  0  0  0  0  0
    0.9774   -3.6880   -0.2746 C   0  0  0  0  0  0  0  0  0  0  0  0
   -0.2057   -4.1884   -0.8007 C   0  0  0  0  0  0  0  0  0  0  0  0
   -1.3533   -3.4259   -0.7719 C   0  0  0  0  0  0  0  0  0  0  0  0
   -1.3277   -2.1457   -0.2119 C   0  0  0  0  0  0  0  0  0  0  0  0
   -0.1375   -1.6439    0.3221 C   0  0  0  0  0  0  0  0  0  0  0  0
   -2.5548   -1.3278   -0.1806 C   0  0  0  0  0  0  0  0  0  0  0  0
   -3.6989   -1.8446   -0.7042 C   0  0  0  0  0  0  0  0  0  0  0  0
   -4.8860   -1.0747   -0.6829 C   0  0  0  0  0  0  0  0  0  0  0  0
   -5.9303   -1.5068   -1.1434 O   0  0  0  0  0  0  0  0  0  0  0  0
   -4.8120    0.2684   -0.0831 C   0  0  0  0  0  0  0  0  0  0  0  0
   -5.9376    1.0988   -0.0184 C   0  0  0  0  0  0  0  0  0  0  0  0
   -5.8266    2.3529    0.5538 C   0  0  0  0  0  0  0  0  0  0  0  0
   -4.6057    2.7840    1.0604 C   0  0  0  0  0  0  0  0  0  0  0  0
   -3.4871    1.9669    0.9991 C   0  0  0  0  0  0  0  0  0  0  0  0
   -3.5788    0.7067    0.4299 C   0  0  0  0  0  0  0  0  0  0  0  0
   -2.5010   -0.1039    0.3685 O   0  0  0  0  0  0  0  0  0  0  0  0
   -4.5077    4.0169    1.6200 O   0  0  0  0  0  0  0  0  0  0  0  0
   -7.1283    0.6763   -0.5139 O   0  0  0  0  0  0  0  0  0  0  0  0
    2.1058   -4.4437   -0.3055 O   0  0  0  0  0  0  0  0  0  0  0  0
    3.7946   -1.2643    2.9868 O   0  0  0  0  0  0  0  0  0  0  0  0
    4.6674   -1.6088    0.3488 O   0  0  0  0  0  0  0  0  0  0  0  0
    4.6976    5.1504   -0.7700 H   0  0  0  0  0  0  0  0  0  0  0  0
    3.4331    4.7167    0.4053 H   0  0  0  0  0  0  0  0  0  0  0  0
    5.1502    4.5780    0.8535 H   0  0  0  0  0  0  0  0  0  0  0  0
    4.9230    0.6583   -0.9915 H   0  0  0  0  0  0  0  0  0  0  0  0
    5.5250   -0.0123    1.3445 H   0  0  0  0  0  0  0  0  0  0  0  0
    3.4447    0.7023    2.4541 H   0  0  0  0  0  0  0  0  0  0  0  0
    1.3523   -0.5597    2.1169 H   0  0  0  0  0  0  0  0  0  0  0  0
    2.8439   -0.6535   -1.1937 H   0  0  0  0  0  0  0  0  0  0  0  0
    2.7920    2.1173   -3.5607 H   0  0  0  0  0  0  0  0  0  0  0  0
   -0.2268   -5.1774   -1.2340 H   0  0  0  0  0  0  0  0  0  0  0  0
   -2.2724   -3.8175   -1.1822 H   0  0  0  0  0  0  0  0  0  0  0  0
   -0.1135   -0.6552    0.7561 H   0  0  0  0  0  0  0  0  0  0  0  0
   -3.7013   -2.8356   -1.1334 H   0  0  0  0  0  0  0  0  0  0  0  0
   -6.6903    2.9991    0.6069 H   0  0  0  0  0  0  0  0  0  0  0  0
   -2.5439    2.3127    1.3956 H   0  0  0  0  0  0  0  0  0  0  0  0
   -4.6859    4.0328    2.5703 H   0  0  0  0  0  0  0  0  0  0  0  0
   -7.6801    0.2123    0.1305 H   0  0  0  0  0  0  0  0  0  0  0  0
    2.2262   -5.0030    0.4741 H   0  0  0  0  0  0  0  0  0  0  0  0
    3.1502   -1.3112    3.7063 H   0  0  0  0  0  0  0  0  0  0  0  0
    4.9062   -2.2928    0.9892 H   0  0  0  0  0  0  0  0  0  0  0  0
  1  2  1  0  0  0  0
  2  3  2  0  0  0  0
  2  4  1  0  0  0  0
  4  5  1  0  0  0  0
  5  6  1  0  0  0  0
  6  7  1  0  0  0  0
  7  8  1  0  0  0  0
  8  9  1  0  0  0  0
  9 10  1  0  0  0  0
  5 10  1  0  0  0  0
 10 11  1  0  0  0  0
 11 12  2  0  0  0  0
 11 13  1  0  0  0  0
  8 14  1  0  0  0  0
 14 15  1  0  0  0  0
 15 16  2  0  0  0  0
 16 17  1  0  0  0  0
 17 18  2  0  0  0  0
 18 19  1  0  0  0  0
 19 20  2  0  0  0  0
 15 20  1  0  0  0  0
 19 21  1  0  0  0  0
 21 22  2  0  0  0  0
 22 23  1  0  0  0  0
 23 24  2  0  0  0  0
 23 25  1  0  0  0  0
 25 26  2  0  0  0  0
 26 27  1  0  0  0  0
 27 28  2  0  0  0  0
 28 29  1  0  0  0  0
 29 30  2  0  0  0  0
 25 30  1  0  0  0  0
 30 31  1  0  0  0  0
 21 31  1  0  0  0  0
 28 32  1  0  0  0  0
 26 33  1  0  0  0  0
 16 34  1  0  0  0  0
  7 35  1  0  0  0  0
  6 36  1  0  0  0  0
  1 37  1  0  0  0  0
  1 38  1  0  0  0  0
  1 39  1  0  0  0  0
  5 40  1  0  0  0  0
  6 41  1  0  0  0  0
  7 42  1  0  0  0  0
  8 43  1  0  0  0  0
 10 44  1  0  0  0  0
 13 45  1  0  0  0  0
 17 46  1  0  0  0  0
 18 47  1  0  0  0  0
 20 48  1  0  0  0  0
 22 49  1  0  0  0  0
 27 50  1  0  0  0  0
 29 51  1  0  0  0  0
 32 52  1  0  0  0  0
 33 53  1  0  0  0  0
 34 54  1  0  0  0  0
 35 55  1  0  0  0  0
 36 56  1  0  0  0  0
M  END
$$$$
