C32H39O19
APtclcactv06291802573D 0   0.00000     0.00000
 
 90 95  0  0  0  0  0  0  0  0999 V2000
    6.2586   -3.3030   -2.2986 C   0  0  0  0  0  0  0  0  0  0  0  0
    5.8669   -3.2030   -0.8230 C   0  0  0  0  0  0  0  0  0  0  0  0
    6.8139   -2.2357   -0.1078 C   0  0  0  0  0  0  0  0  0  0  0  0
    6.6668   -0.8408   -0.7233 C   0  0  0  0  0  0  0  0  0  0  0  0
    5.2027   -0.4020   -0.6225 C   0  0  0  0  0  0  0  0  0  0  0  0
    4.3179   -1.4401   -1.3178 C   0  0  0  0  0  0  0  0  0  0  0  0
    4.5261   -2.7201   -0.7175 O   0  0  0  0  0  0  0  0  0  0  0  0
    2.9457   -1.0662   -1.1792 O   0  0  0  0  0  0  0  0  0  0  0  0
    2.0385   -1.9105   -1.8908 C   0  0  0  0  0  0  0  0  0  0  0  0
    0.6062   -1.4192   -1.6719 C   0  0  0  0  0  0  0  0  0  0  0  0
   -0.3539   -2.2451   -2.5319 C   0  0  0  0  0  0  0  0  0  0  0  0
   -1.7907   -1.7879   -2.2621 C   0  0  0  0  0  0  0  0  0  0  0  0
   -2.0861   -1.9255   -0.7654 C   0  0  0  0  0  0  0  0  0  0  0  0
   -1.0591   -1.1119    0.0264 C   0  0  0  0  0  0  0  0  0  0  0  0
    0.2569   -1.5674   -0.2941 O   0  0  0  0  0  0  0  0  0  0  0  0
   -1.1811    0.2705   -0.3143 O   0  0  0  0  0  0  0  0  0  0  0  0
   -0.4090    1.1477    0.3800 C   0  0  0  0  0  0  0  0  0  0  0  0
   -0.4610    2.5281    0.1147 C   0  0  0  0  0  0  0  0  0  0  0  0
    0.2121    3.3349    0.7136 O   0  3  0  0  0  0  0  0  0  0  0  0
    1.0016    3.0655    1.6007 C   0  0  0  0  0  0  0  0  0  0  0  0
    1.7369    4.0779    2.2358 C   0  0  0  0  0  0  0  0  0  0  0  0
    2.6256    3.7550    3.2380 C   0  0  0  0  0  0  0  0  0  0  0  0
    2.8098    2.4296    3.6364 C   0  0  0  0  0  0  0  0  0  0  0  0
    2.1090    1.4202    3.0372 C   0  0  0  0  0  0  0  0  0  0  0  0
    1.1947    1.7222    2.0115 C   0  0  0  0  0  0  0  0  0  0  0  0
    0.4455    0.7137    1.3703 C   0  0  0  0  0  0  0  0  0  0  0  0
    2.2937    0.1340    3.4303 O   0  0  0  0  0  0  0  0  0  0  0  0
    3.3336    4.7409    3.8471 O   0  0  0  0  0  0  0  0  0  0  0  0
   -1.3766    3.0131   -0.9410 C   0  0  0  0  0  0  0  0  0  0  0  0
   -2.0963    4.1945   -0.7540 C   0  0  0  0  0  0  0  0  0  0  0  0
   -2.9507    4.6438   -1.7432 C   0  0  0  0  0  0  0  0  0  0  0  0
   -3.0921    3.9176   -2.9241 C   0  0  0  0  0  0  0  0  0  0  0  0
   -2.3764    2.7433   -3.1095 C   0  0  0  0  0  0  0  0  0  0  0  0
   -1.5183    2.2933   -2.1285 C   0  0  0  0  0  0  0  0  0  0  0  0
   -3.9327    4.3600   -3.8957 O   0  0  0  0  0  0  0  0  0  0  0  0
   -3.6536    5.7941   -1.5639 O   0  0  0  0  0  0  0  0  0  0  0  0
   -3.3994   -1.4337   -0.4906 O   0  0  0  0  0  0  0  0  0  0  0  0
   -4.0413   -2.0757    0.6130 C   0  0  0  0  0  0  0  0  0  0  0  0
   -5.3810   -1.3900    0.8936 C   0  0  0  0  0  0  0  0  0  0  0  0
   -6.0900   -2.1209    2.0380 C   0  0  0  0  0  0  0  0  0  0  0  0
   -6.2596   -3.5955    1.6597 C   0  0  0  0  0  0  0  0  0  0  0  0
   -4.8860   -4.1960    1.3495 C   0  0  0  0  0  0  0  0  0  0  0  0
   -4.2684   -3.4510    0.2980 O   0  0  0  0  0  0  0  0  0  0  0  0
   -6.8548   -4.3027    2.7496 O   0  0  0  0  0  0  0  0  0  0  0  0
   -5.3057   -2.0199    3.2283 O   0  0  0  0  0  0  0  0  0  0  0  0
   -5.1524   -0.0292    1.2652 O   0  0  0  0  0  0  0  0  0  0  0  0
   -1.9395   -0.4220   -2.6551 O   0  0  0  0  0  0  0  0  0  0  0  0
   -0.0431   -2.0530   -3.9134 O   0  0  0  0  0  0  0  0  0  0  0  0
    4.8284   -0.3000    0.7528 O   0  0  0  0  0  0  0  0  0  0  0  0
    7.4930    0.0843   -0.0137 O   0  0  0  0  0  0  0  0  0  0  0  0
    6.4822   -2.1822    1.2811 O   0  0  0  0  0  0  0  0  0  0  0  0
    7.2817   -3.6703   -2.3789 H   0  0  0  0  0  0  0  0  0  0  0  0
    5.5843   -3.9916   -2.8077 H   0  0  0  0  0  0  0  0  0  0  0  0
    6.1888   -2.3182   -2.7606 H   0  0  0  0  0  0  0  0  0  0  0  0
    5.9362   -4.1878   -0.3610 H   0  0  0  0  0  0  0  0  0  0  0  0
    7.8418   -2.5790   -0.2249 H   0  0  0  0  0  0  0  0  0  0  0  0
    6.9671   -0.8709   -1.7707 H   0  0  0  0  0  0  0  0  0  0  0  0
    5.0783    0.5661   -1.1076 H   0  0  0  0  0  0  0  0  0  0  0  0
    4.5767   -1.4883   -2.3755 H   0  0  0  0  0  0  0  0  0  0  0  0
    2.2739   -1.8816   -2.9547 H   0  0  0  0  0  0  0  0  0  0  0  0
    2.1317   -2.9333   -1.5257 H   0  0  0  0  0  0  0  0  0  0  0  0
    0.5350   -0.3688   -1.9541 H   0  0  0  0  0  0  0  0  0  0  0  0
   -0.2539   -3.3005   -2.2784 H   0  0  0  0  0  0  0  0  0  0  0  0
   -2.4837   -2.4094   -2.8292 H   0  0  0  0  0  0  0  0  0  0  0  0
   -2.0211   -2.9745   -0.4762 H   0  0  0  0  0  0  0  0  0  0  0  0
   -1.2383   -1.2406    1.0939 H   0  0  0  0  0  0  0  0  0  0  0  0
    1.6067    5.1083    1.9395 H   0  0  0  0  0  0  0  0  0  0  0  0
    3.5119    2.1998    4.4242 H   0  0  0  0  0  0  0  0  0  0  0  0
    0.5383   -0.3293    1.6350 H   0  0  0  0  0  0  0  0  0  0  0  0
    1.7043   -0.1479    4.1432 H   0  0  0  0  0  0  0  0  0  0  0  0
    2.8961    5.1177    4.6228 H   0  0  0  0  0  0  0  0  0  0  0  0
   -1.9860    4.7561    0.1619 H   0  0  0  0  0  0  0  0  0  0  0  0
   -2.4884    2.1830   -4.0260 H   0  0  0  0  0  0  0  0  0  0  0  0
   -0.9624    1.3790   -2.2753 H   0  0  0  0  0  0  0  0  0  0  0  0
   -3.5148    4.9486   -4.5392 H   0  0  0  0  0  0  0  0  0  0  0  0
   -3.1957    6.5873   -1.8741 H   0  0  0  0  0  0  0  0  0  0  0  0
   -3.4049   -2.0049    1.4950 H   0  0  0  0  0  0  0  0  0  0  0  0
   -6.0025   -1.4247   -0.0012 H   0  0  0  0  0  0  0  0  0  0  0  0
   -7.0692   -1.6725    2.2058 H   0  0  0  0  0  0  0  0  0  0  0  0
   -6.8989   -3.6748    0.7804 H   0  0  0  0  0  0  0  0  0  0  0  0
   -4.2607   -4.1531    2.2412 H   0  0  0  0  0  0  0  0  0  0  0  0
   -5.0049   -5.2339    1.0382 H   0  0  0  0  0  0  0  0  0  0  0  0
   -6.9920   -5.2446    2.5792 H   0  0  0  0  0  0  0  0  0  0  0  0
   -5.6958   -2.4616    3.9950 H   0  0  0  0  0  0  0  0  0  0  0  0
   -4.7015    0.4931    0.5878 H   0  0  0  0  0  0  0  0  0  0  0  0
   -1.7604   -0.2605   -3.5915 H   0  0  0  0  0  0  0  0  0  0  0  0
   -0.6135   -2.5479   -4.5174 H   0  0  0  0  0  0  0  0  0  0  0  0
    3.9115   -0.0258    0.8916 H   0  0  0  0  0  0  0  0  0  0  0  0
    7.4491    0.9896   -0.3508 H   0  0  0  0  0  0  0  0  0  0  0  0
    6.5490   -3.0337    1.7345 H   0  0  0  0  0  0  0  0  0  0  0  0
  1  2  1  0  0  0  0
  2  3  1  0  0  0  0
  3  4  1  0  0  0  0
  4  5  1  0  0  0  0
  5  6  1  0  0  0  0
  6  7  1  0  0  0  0
  2  7  1  0  0  0  0
  6  8  1  0  0  0  0
  8  9  1  0  0  0  0
  9 10  1  0  0  0  0
 10 11  1  0  0  0  0
 11 12  1  0  0  0  0
 12 13  1  0  0  0  0
 13 14  1  0  0  0  0
 14 15  1  0  0  0  0
 10 15  1  0  0  0  0
 14 16  1  0  0  0  0
 16 17  1  0  0  0  0
 17 18  2  0  0  0  0
 18 19  1  0  0  0  0
 19 20  2  0  0  0  0
 20 21  1  0  0  0  0
 21 22  2  0  0  0  0
 22 23  1  0  0  0  0
 23 24  2  0  0  0  0
 24 25  1  0  0  0  0
 20 25  1  0  0  0  0
 25 26  2  0  0  0  0
 17 26  1  0  0  0  0
 24 27  1  0  0  0  0
 22 28  1  0  0  0  0
 18 29  1  0  0  0  0
 29 30  2  0  0  0  0
 30 31  1  0  0  0  0
 31 32  2  0  0  0  0
 32 33  1  0  0  0  0
 33 34  2  0  0  0  0
 29 34  1  0  0  0  0
 32 35  1  0  0  0  0
 31 36  1  0  0  0  0
 13 37  1  0  0  0  0
 37 38  1  0  0  0  0
 38 39  1  0  0  0  0
 39 40  1  0  0  0  0
 40 41  1  0  0  0  0
 41 42  1  0  0  0  0
 42 43  1  0  0  0  0
 38 43  1  0  0  0  0
 41 44  1  0  0  0  0
 40 45  1  0  0  0  0
 39 46  1  0  0  0  0
 12 47  1  0  0  0  0
 11 48  1  0  0  0  0
  5 49  1  0  0  0  0
  4 50  1  0  0  0  0
  3 51  1  0  0  0  0
  1 52  1  0  0  0  0
  1 53  1  0  0  0  0
  1 54  1  0  0  0  0
  2 55  1  0  0  0  0
  3 56  1  0  0  0  0
  4 57  1  0  0  0  0
  5 58  1  0  0  0  0
  6 59  1  0  0  0  0
  9 60  1  0  0  0  0
  9 61  1  0  0  0  0
 10 62  1  0  0  0  0
 11 63  1  0  0  0  0
 12 64  1  0  0  0  0
 13 65  1  0  0  0  0
 14 66  1  0  0  0  0
 21 67  1  0  0  0  0
 23 68  1  0  0  0  0
 26 69  1  0  0  0  0
 27 70  1  0  0  0  0
 28 71  1  0  0  0  0
 30 72  1  0  0  0  0
 33 73  1  0  0  0  0
 34 74  1  0  0  0  0
 35 75  1  0  0  0  0
 36 76  1  0  0  0  0
 38 77  1  0  0  0  0
 39 78  1  0  0  0  0
 40 79  1  0  0  0  0
 41 80  1  0  0  0  0
 42 81  1  0  0  0  0
 42 82  1  0  0  0  0
 44 83  1  0  0  0  0
 45 84  1  0  0  0  0
 46 85  1  0  0  0  0
 47 86  1  0  0  0  0
 48 87  1  0  0  0  0
 49 88  1  0  0  0  0
 50 89  1  0  0  0  0
 51 90  1  0  0  0  0
M  CHG  1  19   1
M  END
$$$$
