C27H30O15
APtclcactv06291802583D 0   0.00000     0.00000
 
 72 76  0  0  0  0  0  0  0  0999 V2000
    5.4865   -2.8080   -0.4679 C   0  0  0  0  0  0  0  0  0  0  0  0
    5.3733   -1.8626    0.7297 C   0  0  0  0  0  0  0  0  0  0  0  0
    6.4438   -0.7734    0.6233 C   0  0  0  0  0  0  0  0  0  0  0  0
    6.1984    0.0508   -0.6443 C   0  0  0  0  0  0  0  0  0  0  0  0
    4.7816    0.6309   -0.5966 C   0  0  0  0  0  0  0  0  0  0  0  0
    3.7752   -0.5125   -0.4430 C   0  0  0  0  0  0  0  0  0  0  0  0
    4.0789   -1.2572    0.7382 O   0  0  0  0  0  0  0  0  0  0  0  0
    2.4551    0.0250   -0.3414 O   0  0  0  0  0  0  0  0  0  0  0  0
    1.4292   -0.8633   -0.3045 C   0  0  0  0  0  0  0  0  0  0  0  0
    0.1255   -0.4025   -0.2064 C   0  0  0  0  0  0  0  0  0  0  0  0
   -0.9277   -1.3030   -0.1676 C   0  0  0  0  0  0  0  0  0  0  0  0
   -0.6605   -2.6814   -0.2292 C   0  0  0  0  0  0  0  0  0  0  0  0
    0.6591   -3.1401   -0.3283 C   0  0  0  0  0  0  0  0  0  0  0  0
    1.6960   -2.2266   -0.3713 C   0  0  0  0  0  0  0  0  0  0  0  0
    0.9176   -4.4711   -0.3878 O   0  0  0  0  0  0  0  0  0  0  0  0
   -1.7949   -3.6197   -0.1864 C   0  0  0  0  0  0  0  0  0  0  0  0
   -1.6216   -4.8267   -0.2360 O   0  0  0  0  0  0  0  0  0  0  0  0
   -3.0936   -3.0671   -0.0850 C   0  0  0  0  0  0  0  0  0  0  0  0
   -3.2453   -1.7163   -0.0319 C   0  0  0  0  0  0  0  0  0  0  0  0
   -2.2030   -0.8711   -0.0714 O   0  0  0  0  0  0  0  0  0  0  0  0
   -4.6070   -1.1591    0.0732 C   0  0  0  0  0  0  0  0  0  0  0  0
   -4.7951    0.2247    0.1297 C   0  0  0  0  0  0  0  0  0  0  0  0
   -6.0726    0.7415    0.2281 C   0  0  0  0  0  0  0  0  0  0  0  0
   -7.1702   -0.1166    0.2712 C   0  0  0  0  0  0  0  0  0  0  0  0
   -6.9835   -1.4910    0.2155 C   0  0  0  0  0  0  0  0  0  0  0  0
   -5.7124   -2.0133    0.1106 C   0  0  0  0  0  0  0  0  0  0  0  0
   -8.4256    0.3933    0.3684 O   0  0  0  0  0  0  0  0  0  0  0  0
   -6.2593    2.0875    0.2833 O   0  0  0  0  0  0  0  0  0  0  0  0
   -0.1469    1.0782   -0.1412 C   0  0  0  0  0  0  0  0  0  0  0  0
    0.2162    1.6034    1.2502 C   0  0  0  0  0  0  0  0  0  0  0  0
   -0.0064    3.1184    1.2897 C   0  0  0  0  0  0  0  0  0  0  0  0
    0.8271    3.7748    0.1848 C   0  0  0  0  0  0  0  0  0  0  0  0
    0.4403    3.1658   -1.1655 C   0  0  0  0  0  0  0  0  0  0  0  0
    0.6422    1.7517   -1.1240 O   0  0  0  0  0  0  0  0  0  0  0  0
   -1.0322    3.4627   -1.4562 C   0  0  0  0  0  0  0  0  0  0  0  0
   -1.3532    3.0296   -2.7796 O   0  0  0  0  0  0  0  0  0  0  0  0
    0.5716    5.1807    0.1652 O   0  0  0  0  0  0  0  0  0  0  0  0
   -1.3905    3.4039    1.0780 O   0  0  0  0  0  0  0  0  0  0  0  0
   -0.6120    0.9734    2.2296 O   0  0  0  0  0  0  0  0  0  0  0  0
    4.6670    1.5205    0.5160 O   0  0  0  0  0  0  0  0  0  0  0  0
    7.1489    1.1156   -0.7137 O   0  0  0  0  0  0  0  0  0  0  0  0
    6.3733    0.0790    1.7681 O   0  0  0  0  0  0  0  0  0  0  0  0
    6.4743   -3.2689   -0.4749 H   0  0  0  0  0  0  0  0  0  0  0  0
    4.7243   -3.5834   -0.3920 H   0  0  0  0  0  0  0  0  0  0  0  0
    5.3417   -2.2452   -1.3901 H   0  0  0  0  0  0  0  0  0  0  0  0
    5.5177   -2.4253    1.6519 H   0  0  0  0  0  0  0  0  0  0  0  0
    7.4298   -1.2354    0.5722 H   0  0  0  0  0  0  0  0  0  0  0  0
    6.3011   -0.5890   -1.5208 H   0  0  0  0  0  0  0  0  0  0  0  0
    4.5786    1.1732   -1.5201 H   0  0  0  0  0  0  0  0  0  0  0  0
    3.8350   -1.1684   -1.3116 H   0  0  0  0  0  0  0  0  0  0  0  0
    2.7161   -2.5728   -0.4480 H   0  0  0  0  0  0  0  0  0  0  0  0
    0.9362   -4.8284   -1.2862 H   0  0  0  0  0  0  0  0  0  0  0  0
   -3.9583   -3.7132   -0.0505 H   0  0  0  0  0  0  0  0  0  0  0  0
   -3.9438    0.8885    0.0969 H   0  0  0  0  0  0  0  0  0  0  0  0
   -7.8366   -2.1524    0.2496 H   0  0  0  0  0  0  0  0  0  0  0  0
   -5.5700   -3.0830    0.0671 H   0  0  0  0  0  0  0  0  0  0  0  0
   -8.8458    0.5692   -0.4845 H   0  0  0  0  0  0  0  0  0  0  0  0
   -6.3696    2.5051   -0.5818 H   0  0  0  0  0  0  0  0  0  0  0  0
   -1.2037    1.2622   -0.3348 H   0  0  0  0  0  0  0  0  0  0  0  0
    1.2628    1.3834    1.4609 H   0  0  0  0  0  0  0  0  0  0  0  0
    0.3032    3.5073    2.2597 H   0  0  0  0  0  0  0  0  0  0  0  0
    1.8860    3.5987    0.3739 H   0  0  0  0  0  0  0  0  0  0  0  0
    1.0604    3.5986   -1.9505 H   0  0  0  0  0  0  0  0  0  0  0  0
   -1.6583    2.9325   -0.7385 H   0  0  0  0  0  0  0  0  0  0  0  0
   -1.2103    4.5347   -1.3715 H   0  0  0  0  0  0  0  0  0  0  0  0
   -2.2732    3.1868   -3.0326 H   0  0  0  0  0  0  0  0  0  0  0  0
    0.7896    5.6316    0.9924 H   0  0  0  0  0  0  0  0  0  0  0  0
   -1.6039    4.3469    1.0903 H   0  0  0  0  0  0  0  0  0  0  0  0
   -0.4360    1.2596    3.1363 H   0  0  0  0  0  0  0  0  0  0  0  0
    3.7936    1.9253    0.6076 H   0  0  0  0  0  0  0  0  0  0  0  0
    7.0517    1.6794   -1.4934 H   0  0  0  0  0  0  0  0  0  0  0  0
    6.5148   -0.3784    2.6083 H   0  0  0  0  0  0  0  0  0  0  0  0
  1  2  1  0  0  0  0
  2  3  1  0  0  0  0
  3  4  1  0  0  0  0
  4  5  1  0  0  0  0
  5  6  1  0  0  0  0
  6  7  1  0  0  0  0
  2  7  1  0  0  0  0
  6  8  1  0  0  0  0
  8  9  1  0  0  0  0
  9 10  2  0  0  0  0
 10 11  1  0  0  0  0
 11 12  2  0  0  0  0
 12 13  1  0  0  0  0
 13 14  2  0  0  0  0
  9 14  1  0  0  0  0
 13 15  1  0  0  0  0
 12 16  1  0  0  0  0
 16 17  2  0  0  0  0
 16 18  1  0  0  0  0
 18 19  2  0  0  0  0
 19 20  1  0  0  0  0
 11 20  1  0  0  0  0
 19 21  1  0  0  0  0
 21 22  2  0  0  0  0
 22 23  1  0  0  0  0
 23 24  2  0  0  0  0
 24 25  1  0  0  0  0
 25 26  2  0  0  0  0
 21 26  1  0  0  0  0
 24 27  1  0  0  0  0
 23 28  1  0  0  0  0
 10 29  1  0  0  0  0
 29 30  1  0  0  0  0
 30 31  1  0  0  0  0
 31 32  1  0  0  0  0
 32 33  1  0  0  0  0
 33 34  1  0  0  0  0
 29 34  1  0  0  0  0
 33 35  1  0  0  0  0
 35 36  1  0  0  0  0
 32 37  1  0  0  0  0
 31 38  1  0  0  0  0
 30 39  1  0  0  0  0
  5 40  1  0  0  0  0
  4 41  1  0  0  0  0
  3 42  1  0  0  0  0
  1 43  1  0  0  0  0
  1 44  1  0  0  0  0
  1 45  1  0  0  0  0
  2 46  1  0  0  0  0
  3 47  1  0  0  0  0
  4 48  1  0  0  0  0
  5 49  1  0  0  0  0
  6 50  1  0  0  0  0
 14 51  1  0  0  0  0
 15 52  1  0  0  0  0
 18 53  1  0  0  0  0
 22 54  1  0  0  0  0
 25 55  1  0  0  0  0
 26 56  1  0  0  0  0
 27 57  1  0  0  0  0
 28 58  1  0  0  0  0
 29 59  1  0  0  0  0
 30 60  1  0  0  0  0
 31 61  1  0  0  0  0
 32 62  1  0  0  0  0
 33 63  1  0  0  0  0
 35 64  1  0  0  0  0
 35 65  1  0  0  0  0
 36 66  1  0  0  0  0
 37 67  1  0  0  0  0
 38 68  1  0  0  0  0
 39 69  1  0  0  0  0
 40 70  1  0  0  0  0
 41 71  1  0  0  0  0
 42 72  1  0  0  0  0
M  END
$$$$
