C22H20O12
APtclcactv06291802583D 0   0.00000     0.00000
 
 54 57  0  0  0  0  0  0  0  0999 V2000
    9.3626   -0.8060    0.6794 C   0  0  0  0  0  0  0  0  0  0  0  0
    8.2555   -1.6850    0.4697 O   0  0  0  0  0  0  0  0  0  0  0  0
    7.0340   -1.1117    0.3125 C   0  0  0  0  0  0  0  0  0  0  0  0
    5.9120   -1.9120    0.1043 C   0  0  0  0  0  0  0  0  0  0  0  0
    4.6688   -1.3308   -0.0553 C   0  0  0  0  0  0  0  0  0  0  0  0
    4.5400    0.0601   -0.0074 C   0  0  0  0  0  0  0  0  0  0  0  0
    5.6692    0.8564    0.2017 C   0  0  0  0  0  0  0  0  0  0  0  0
    6.9054    0.2694    0.3654 C   0  0  0  0  0  0  0  0  0  0  0  0
    3.2152    0.6861   -0.1777 C   0  0  0  0  0  0  0  0  0  0  0  0
    3.1210    2.0421   -0.1262 C   0  0  0  0  0  0  0  0  0  0  0  0
    1.8586    2.6605   -0.2879 C   0  0  0  0  0  0  0  0  0  0  0  0
    1.7373    3.8742   -0.2478 O   0  0  0  0  0  0  0  0  0  0  0  0
    0.6968    1.7823   -0.5069 C   0  0  0  0  0  0  0  0  0  0  0  0
   -0.5899    2.3076   -0.6774 C   0  0  0  0  0  0  0  0  0  0  0  0
   -1.6546    1.4488   -0.8812 C   0  0  0  0  0  0  0  0  0  0  0  0
   -1.4467    0.0746   -0.9162 C   0  0  0  0  0  0  0  0  0  0  0  0
   -0.1752   -0.4523   -0.7477 C   0  0  0  0  0  0  0  0  0  0  0  0
    0.9042    0.3924   -0.5428 C   0  0  0  0  0  0  0  0  0  0  0  0
    2.1494   -0.1040   -0.3830 O   0  0  0  0  0  0  0  0  0  0  0  0
   -2.4987   -0.7595   -1.1169 O   0  0  0  0  0  0  0  0  0  0  0  0
   -3.7831   -0.1554   -1.2832 C   0  0  0  0  0  0  0  0  0  0  0  0
   -4.8152   -1.2347   -1.6201 C   0  0  0  0  0  0  0  0  0  0  0  0
   -4.9126   -2.2197   -0.4511 C   0  0  0  0  0  0  0  0  0  0  0  0
   -5.2722   -1.4490    0.8229 C   0  0  0  0  0  0  0  0  0  0  0  0
   -4.2224   -0.3615    1.0655 C   0  0  0  0  0  0  0  0  0  0  0  0
   -4.1610    0.5016   -0.0718 O   0  0  0  0  0  0  0  0  0  0  0  0
   -4.6011    0.4396    2.2845 C   0  0  0  0  0  0  0  0  0  0  0  0
   -4.8853    1.6088    2.1747 O   0  0  0  0  0  0  0  0  0  0  0  0
   -4.6227   -0.1458    3.4922 O   0  0  0  0  0  0  0  0  0  0  0  0
   -6.5583   -0.8455    0.6690 O   0  0  0  0  0  0  0  0  0  0  0  0
   -5.9263   -3.1888   -0.7257 O   0  0  0  0  0  0  0  0  0  0  0  0
   -6.0892   -0.6255   -1.8387 O   0  0  0  0  0  0  0  0  0  0  0  0
   -0.7908    3.6493   -0.6424 O   0  0  0  0  0  0  0  0  0  0  0  0
    6.0410   -3.2651    0.0577 O   0  0  0  0  0  0  0  0  0  0  0  0
    9.1953   -0.2205    1.5835 H   0  0  0  0  0  0  0  0  0  0  0  0
   10.2755   -1.3914    0.7893 H   0  0  0  0  0  0  0  0  0  0  0  0
    9.4613   -0.1358   -0.1745 H   0  0  0  0  0  0  0  0  0  0  0  0
    3.7987   -1.9497   -0.2171 H   0  0  0  0  0  0  0  0  0  0  0  0
    5.5727    1.9314    0.2389 H   0  0  0  0  0  0  0  0  0  0  0  0
    7.7773    0.8859    0.5273 H   0  0  0  0  0  0  0  0  0  0  0  0
    4.0037    2.6426    0.0374 H   0  0  0  0  0  0  0  0  0  0  0  0
   -2.6499    1.8466   -1.0131 H   0  0  0  0  0  0  0  0  0  0  0  0
   -0.0259   -1.5216   -0.7765 H   0  0  0  0  0  0  0  0  0  0  0  0
   -3.7403    0.5723   -2.0936 H   0  0  0  0  0  0  0  0  0  0  0  0
   -4.5056   -1.7666   -2.5197 H   0  0  0  0  0  0  0  0  0  0  0  0
   -3.9542   -2.7210   -0.3158 H   0  0  0  0  0  0  0  0  0  0  0  0
   -5.2894   -2.1342    1.6705 H   0  0  0  0  0  0  0  0  0  0  0  0
   -3.2485   -0.8249    1.2231 H   0  0  0  0  0  0  0  0  0  0  0  0
   -4.8717    0.4085    4.2444 H   0  0  0  0  0  0  0  0  0  0  0  0
   -6.8504   -0.3401    1.4400 H   0  0  0  0  0  0  0  0  0  0  0  0
   -5.7662   -3.7099   -1.5244 H   0  0  0  0  0  0  0  0  0  0  0  0
   -6.0998    0.0149   -2.5632 H   0  0  0  0  0  0  0  0  0  0  0  0
   -0.7160    4.0808   -1.5045 H   0  0  0  0  0  0  0  0  0  0  0  0
    5.9467   -3.6989    0.9168 H   0  0  0  0  0  0  0  0  0  0  0  0
  1  2  1  0  0  0  0
  2  3  1  0  0  0  0
  3  4  2  0  0  0  0
  4  5  1  0  0  0  0
  5  6  2  0  0  0  0
  6  7  1  0  0  0  0
  7  8  2  0  0  0  0
  3  8  1  0  0  0  0
  6  9  1  0  0  0  0
  9 10  2  0  0  0  0
 10 11  1  0  0  0  0
 11 12  2  0  0  0  0
 11 13  1  0  0  0  0
 13 14  2  0  0  0  0
 14 15  1  0  0  0  0
 15 16  2  0  0  0  0
 16 17  1  0  0  0  0
 17 18  2  0  0  0  0
 13 18  1  0  0  0  0
 18 19  1  0  0  0  0
  9 19  1  0  0  0  0
 16 20  1  0  0  0  0
 20 21  1  0  0  0  0
 21 22  1  0  0  0  0
 22 23  1  0  0  0  0
 23 24  1  0  0  0  0
 24 25  1  0  0  0  0
 25 26  1  0  0  0  0
 21 26  1  0  0  0  0
 25 27  1  0  0  0  0
 27 28  2  0  0  0  0
 27 29  1  0  0  0  0
 24 30  1  0  0  0  0
 23 31  1  0  0  0  0
 22 32  1  0  0  0  0
 14 33  1  0  0  0  0
  4 34  1  0  0  0  0
  1 35  1  0  0  0  0
  1 36  1  0  0  0  0
  1 37  1  0  0  0  0
  5 38  1  0  0  0  0
  7 39  1  0  0  0  0
  8 40  1  0  0  0  0
 10 41  1  0  0  0  0
 15 42  1  0  0  0  0
 17 43  1  0  0  0  0
 21 44  1  0  0  0  0
 22 45  1  0  0  0  0
 23 46  1  0  0  0  0
 24 47  1  0  0  0  0
 25 48  1  0  0  0  0
 29 49  1  0  0  0  0
 30 50  1  0  0  0  0
 31 51  1  0  0  0  0
 32 52  1  0  0  0  0
 33 53  1  0  0  0  0
 34 54  1  0  0  0  0
M  END
$$$$
