C23H24O12
APtclcactv06291802593D 0   0.00000     0.00000
 
 59 62  0  0  0  0  0  0  0  0999 V2000
   -0.2665    5.3149   -0.4405 C   0  0  0  0  0  0  0  0  0  0  0  0
   -1.2521    4.2956   -0.6190 O   0  0  0  0  0  0  0  0  0  0  0  0
   -0.8252    3.0083   -0.5587 C   0  0  0  0  0  0  0  0  0  0  0  0
   -1.7375    1.9720   -0.7249 C   0  0  0  0  0  0  0  0  0  0  0  0
   -1.3138    0.6573   -0.6659 C   0  0  0  0  0  0  0  0  0  0  0  0
    0.0399    0.3783   -0.4378 C   0  0  0  0  0  0  0  0  0  0  0  0
    0.9602    1.4281   -0.2702 C   0  0  0  0  0  0  0  0  0  0  0  0
    0.5167    2.7398   -0.3380 C   0  0  0  0  0  0  0  0  0  0  0  0
    2.2625    1.1507   -0.0500 O   0  0  0  0  0  0  0  0  0  0  0  0
    2.7275   -0.1086    0.0176 C   0  0  0  0  0  0  0  0  0  0  0  0
    1.9191   -1.1952   -0.1317 C   0  0  0  0  0  0  0  0  0  0  0  0
    0.5326   -1.0066   -0.3673 C   0  0  0  0  0  0  0  0  0  0  0  0
   -0.2221   -1.9561   -0.5056 O   0  0  0  0  0  0  0  0  0  0  0  0
    2.4373   -2.4513   -0.0554 O   0  0  0  0  0  0  0  0  0  0  0  0
    2.4104   -3.2377   -1.2482 C   0  0  0  0  0  0  0  0  0  0  0  0
    4.1659   -0.3220    0.2618 C   0  0  0  0  0  0  0  0  0  0  0  0
    5.1152    0.3935   -0.4737 C   0  0  0  0  0  0  0  0  0  0  0  0
    6.4618    0.1899   -0.2404 C   0  0  0  0  0  0  0  0  0  0  0  0
    6.8710   -0.7273    0.7259 C   0  0  0  0  0  0  0  0  0  0  0  0
    5.9287   -1.4382    1.4560 C   0  0  0  0  0  0  0  0  0  0  0  0
    4.5836   -1.2360    1.2333 C   0  0  0  0  0  0  0  0  0  0  0  0
    8.1957   -0.9263    0.9535 O   0  0  0  0  0  0  0  0  0  0  0  0
    7.3880    0.8843   -0.9541 O   0  0  0  0  0  0  0  0  0  0  0  0
   -2.2028   -0.3554   -0.8273 O   0  0  0  0  0  0  0  0  0  0  0  0
   -3.5658    0.0081   -1.0557 C   0  0  0  0  0  0  0  0  0  0  0  0
   -4.3899   -1.2512   -1.3362 C   0  0  0  0  0  0  0  0  0  0  0  0
   -4.3517   -2.1618   -0.1050 C   0  0  0  0  0  0  0  0  0  0  0  0
   -4.8725   -1.3843    1.1077 C   0  0  0  0  0  0  0  0  0  0  0  0
   -4.0297   -0.1199    1.2938 C   0  0  0  0  0  0  0  0  0  0  0  0
   -4.0838    0.6667    0.1019 O   0  0  0  0  0  0  0  0  0  0  0  0
   -4.5813    0.6929    2.4669 C   0  0  0  0  0  0  0  0  0  0  0  0
   -3.7273    1.8116    2.7147 O   0  0  0  0  0  0  0  0  0  0  0  0
   -6.2375   -1.0209    0.8917 O   0  0  0  0  0  0  0  0  0  0  0  0
   -5.1781   -3.3056   -0.3304 O   0  0  0  0  0  0  0  0  0  0  0  0
   -5.7422   -0.8843   -1.6169 O   0  0  0  0  0  0  0  0  0  0  0  0
    0.1960    5.2053    0.5404 H   0  0  0  0  0  0  0  0  0  0  0  0
    0.4958    5.2226   -1.2141 H   0  0  0  0  0  0  0  0  0  0  0  0
   -0.7397    6.2942   -0.5117 H   0  0  0  0  0  0  0  0  0  0  0  0
   -2.7797    2.1947   -0.9000 H   0  0  0  0  0  0  0  0  0  0  0  0
    1.2159    3.5531   -0.2105 H   0  0  0  0  0  0  0  0  0  0  0  0
    1.3886   -3.2935   -1.6236 H   0  0  0  0  0  0  0  0  0  0  0  0
    3.0496   -2.7772   -2.0016 H   0  0  0  0  0  0  0  0  0  0  0  0
    2.7725   -4.2422   -1.0294 H   0  0  0  0  0  0  0  0  0  0  0  0
    4.7968    1.1034   -1.2227 H   0  0  0  0  0  0  0  0  0  0  0  0
    6.2502   -2.1485    2.2033 H   0  0  0  0  0  0  0  0  0  0  0  0
    3.8525   -1.7902    1.8031 H   0  0  0  0  0  0  0  0  0  0  0  0
    8.5703   -0.3451    1.6294 H   0  0  0  0  0  0  0  0  0  0  0  0
    7.6468    1.7241   -0.5506 H   0  0  0  0  0  0  0  0  0  0  0  0
   -3.6244    0.6792   -1.9126 H   0  0  0  0  0  0  0  0  0  0  0  0
   -3.9693   -1.7786   -2.1924 H   0  0  0  0  0  0  0  0  0  0  0  0
   -3.3263   -2.4819    0.0801 H   0  0  0  0  0  0  0  0  0  0  0  0
   -4.7970   -2.0068    1.9993 H   0  0  0  0  0  0  0  0  0  0  0  0
   -2.9961   -0.3988    1.4987 H   0  0  0  0  0  0  0  0  0  0  0  0
   -5.5831    1.0473    2.2242 H   0  0  0  0  0  0  0  0  0  0  0  0
   -4.6238    0.0642    3.3563 H   0  0  0  0  0  0  0  0  0  0  0  0
   -4.0167    2.3727    3.4471 H   0  0  0  0  0  0  0  0  0  0  0  0
   -6.8292   -1.7745    0.7609 H   0  0  0  0  0  0  0  0  0  0  0  0
   -4.9095   -3.8414   -1.0892 H   0  0  0  0  0  0  0  0  0  0  0  0
   -5.8409   -0.3027   -2.3831 H   0  0  0  0  0  0  0  0  0  0  0  0
  1  2  1  0  0  0  0
  2  3  1  0  0  0  0
  3  4  2  0  0  0  0
  4  5  1  0  0  0  0
  5  6  2  0  0  0  0
  6  7  1  0  0  0  0
  7  8  2  0  0  0  0
  3  8  1  0  0  0  0
  7  9  1  0  0  0  0
  9 10  1  0  0  0  0
 10 11  2  0  0  0  0
 11 12  1  0  0  0  0
  6 12  1  0  0  0  0
 12 13  2  0  0  0  0
 11 14  1  0  0  0  0
 14 15  1  0  0  0  0
 10 16  1  0  0  0  0
 16 17  2  0  0  0  0
 17 18  1  0  0  0  0
 18 19  2  0  0  0  0
 19 20  1  0  0  0  0
 20 21  2  0  0  0  0
 16 21  1  0  0  0  0
 19 22  1  0  0  0  0
 18 23  1  0  0  0  0
  5 24  1  0  0  0  0
 24 25  1  0  0  0  0
 25 26  1  0  0  0  0
 26 27  1  0  0  0  0
 27 28  1  0  0  0  0
 28 29  1  0  0  0  0
 29 30  1  0  0  0  0
 25 30  1  0  0  0  0
 29 31  1  0  0  0  0
 31 32  1  0  0  0  0
 28 33  1  0  0  0  0
 27 34  1  0  0  0  0
 26 35  1  0  0  0  0
  1 36  1  0  0  0  0
  1 37  1  0  0  0  0
  1 38  1  0  0  0  0
  4 39  1  0  0  0  0
  8 40  1  0  0  0  0
 15 41  1  0  0  0  0
 15 42  1  0  0  0  0
 15 43  1  0  0  0  0
 17 44  1  0  0  0  0
 20 45  1  0  0  0  0
 21 46  1  0  0  0  0
 22 47  1  0  0  0  0
 23 48  1  0  0  0  0
 25 49  1  0  0  0  0
 26 50  1  0  0  0  0
 27 51  1  0  0  0  0
 28 52  1  0  0  0  0
 29 53  1  0  0  0  0
 31 54  1  0  0  0  0
 31 55  1  0  0  0  0
 32 56  1  0  0  0  0
 33 57  1  0  0  0  0
 34 58  1  0  0  0  0
 35 59  1  0  0  0  0
M  END
$$$$
