C28H33O17
APtclcactv06291802583D 0   0.00000     0.00000
 
 78 82  0  0  0  0  0  0  0  0999 V2000
   -6.9127    2.7630    0.1865 C   0  0  0  0  0  0  0  0  0  0  0  0
   -6.9805    1.4913   -0.4618 O   0  0  0  0  0  0  0  0  0  0  0  0
   -5.8161    0.8004   -0.5893 C   0  0  0  0  0  0  0  0  0  0  0  0
   -4.6380    1.3357   -0.1013 C   0  0  0  0  0  0  0  0  0  0  0  0
   -3.4431    0.6259   -0.2320 C   0  0  0  0  0  0  0  0  0  0  0  0
   -3.4403   -0.6229   -0.8551 C   0  0  0  0  0  0  0  0  0  0  0  0
   -4.6210   -1.1546   -1.3417 C   0  0  0  0  0  0  0  0  0  0  0  0
   -5.8118   -0.4476   -1.2056 C   0  0  0  0  0  0  0  0  0  0  0  0
   -6.9713   -0.9723   -1.6844 O   0  0  0  0  0  0  0  0  0  0  0  0
   -4.6188   -2.3712   -1.9495 O   0  0  0  0  0  0  0  0  0  0  0  0
   -2.1817    1.1967    0.2888 C   0  0  0  0  0  0  0  0  0  0  0  0
   -1.2667    0.3396    0.9265 C   0  0  0  0  0  0  0  0  0  0  0  0
   -0.0967    0.8879    1.4056 C   0  0  0  0  0  0  0  0  0  0  0  0
    0.0541    2.2749    1.1981 C   0  0  0  0  0  0  0  0  0  0  0  0
    1.1998    2.9641    1.6356 C   0  0  0  0  0  0  0  0  0  0  0  0
    1.3053    4.3089    1.4134 C   0  0  0  0  0  0  0  0  0  0  0  0
    0.2860    5.0017    0.7572 C   0  0  0  0  0  0  0  0  0  0  0  0
   -0.8466    4.3509    0.3190 C   0  0  0  0  0  0  0  0  0  0  0  0
   -0.9856    2.9706    0.5305 C   0  0  0  0  0  0  0  0  0  0  0  0
   -1.9779    2.3800    0.1442 O   0  3  0  0  0  0  0  0  0  0  0  0
    0.4127    6.3376    0.5481 O   0  0  0  0  0  0  0  0  0  0  0  0
    2.1948    2.2977    2.2751 O   0  0  0  0  0  0  0  0  0  0  0  0
   -1.5284   -0.9870    1.0661 O   0  0  0  0  0  0  0  0  0  0  0  0
   -0.5386   -1.7773    1.7279 C   0  0  0  0  0  0  0  0  0  0  0  0
   -1.0588   -3.2067    1.9012 C   0  0  0  0  0  0  0  0  0  0  0  0
   -1.3004   -3.8248    0.5207 C   0  0  0  0  0  0  0  0  0  0  0  0
    0.0017   -3.7737   -0.2844 C   0  0  0  0  0  0  0  0  0  0  0  0
    0.4809   -2.3224   -0.3734 C   0  0  0  0  0  0  0  0  0  0  0  0
    0.6564   -1.7985    0.9445 O   0  0  0  0  0  0  0  0  0  0  0  0
    1.8127   -2.2700   -1.1248 C   0  0  0  0  0  0  0  0  0  0  0  0
    2.2019   -0.9075   -1.3097 O   0  0  0  0  0  0  0  0  0  0  0  0
    3.4397   -0.7459   -2.0052 C   0  0  0  0  0  0  0  0  0  0  0  0
    3.6943    0.7428   -2.2553 C   0  0  0  0  0  0  0  0  0  0  0  0
    3.8194    1.4645   -0.9100 C   0  0  0  0  0  0  0  0  0  0  0  0
    4.9404    0.8119   -0.0953 C   0  0  0  0  0  0  0  0  0  0  0  0
    4.6377   -0.6796    0.0714 C   0  0  0  0  0  0  0  0  0  0  0  0
    4.5032   -1.2838   -1.2166 O   0  0  0  0  0  0  0  0  0  0  0  0
    5.7827   -1.3506    0.8327 C   0  0  0  0  0  0  0  0  0  0  0  0
    5.4479   -2.7158    1.0900 O   0  0  0  0  0  0  0  0  0  0  0  0
    6.1843    0.9731   -0.7799 O   0  0  0  0  0  0  0  0  0  0  0  0
    4.1300    2.8414   -1.1331 O   0  0  0  0  0  0  0  0  0  0  0  0
    4.9052    0.9022   -2.9971 O   0  0  0  0  0  0  0  0  0  0  0  0
    0.9969   -4.5662    0.3663 O   0  0  0  0  0  0  0  0  0  0  0  0
   -1.7162   -5.1836    0.6714 O   0  0  0  0  0  0  0  0  0  0  0  0
   -0.0917   -3.9842    2.6099 O   0  0  0  0  0  0  0  0  0  0  0  0
   -6.2423    3.4187   -0.3691 H   0  0  0  0  0  0  0  0  0  0  0  0
   -7.9078    3.2063    0.2219 H   0  0  0  0  0  0  0  0  0  0  0  0
   -6.5362    2.6339    1.2012 H   0  0  0  0  0  0  0  0  0  0  0  0
   -4.6424    2.3024    0.3803 H   0  0  0  0  0  0  0  0  0  0  0  0
   -2.5169   -1.1736   -0.9576 H   0  0  0  0  0  0  0  0  0  0  0  0
   -7.4506   -1.5163   -1.0445 H   0  0  0  0  0  0  0  0  0  0  0  0
   -4.7639   -3.1126   -1.3458 H   0  0  0  0  0  0  0  0  0  0  0  0
    0.6544    0.2954    1.9068 H   0  0  0  0  0  0  0  0  0  0  0  0
    2.1841    4.8398    1.7485 H   0  0  0  0  0  0  0  0  0  0  0  0
   -1.6259    4.9019   -0.1862 H   0  0  0  0  0  0  0  0  0  0  0  0
    0.8410    6.5659   -0.2883 H   0  0  0  0  0  0  0  0  0  0  0  0
    2.8750    1.9455    1.6848 H   0  0  0  0  0  0  0  0  0  0  0  0
   -0.3246   -1.3472    2.7063 H   0  0  0  0  0  0  0  0  0  0  0  0
   -1.9940   -3.1886    2.4609 H   0  0  0  0  0  0  0  0  0  0  0  0
   -2.0740   -3.2611   -0.0009 H   0  0  0  0  0  0  0  0  0  0  0  0
   -0.1750   -4.1611   -1.2878 H   0  0  0  0  0  0  0  0  0  0  0  0
   -0.2607   -1.7267   -0.9056 H   0  0  0  0  0  0  0  0  0  0  0  0
    2.5764   -2.7909   -0.5473 H   0  0  0  0  0  0  0  0  0  0  0  0
    1.7007   -2.7509   -2.0965 H   0  0  0  0  0  0  0  0  0  0  0  0
    3.3922   -1.2718   -2.9588 H   0  0  0  0  0  0  0  0  0  0  0  0
    2.8624    1.1650   -2.8191 H   0  0  0  0  0  0  0  0  0  0  0  0
    2.8788    1.3852   -0.3648 H   0  0  0  0  0  0  0  0  0  0  0  0
    4.9997    1.2833    0.8857 H   0  0  0  0  0  0  0  0  0  0  0  0
    3.7092   -0.8019    0.6291 H   0  0  0  0  0  0  0  0  0  0  0  0
    6.6924   -1.3062    0.2339 H   0  0  0  0  0  0  0  0  0  0  0  0
    5.9440   -0.8318    1.7776 H   0  0  0  0  0  0  0  0  0  0  0  0
    6.1302   -3.2042    1.5709 H   0  0  0  0  0  0  0  0  0  0  0  0
    6.4370    1.8952   -0.9245 H   0  0  0  0  0  0  0  0  0  0  0  0
    3.4645    3.3159   -1.6499 H   0  0  0  0  0  0  0  0  0  0  0  0
    4.8983    0.4656   -3.8599 H   0  0  0  0  0  0  0  0  0  0  0  0
    0.7573   -5.4981    0.4616 H   0  0  0  0  0  0  0  0  0  0  0  0
   -2.5327   -5.2912    1.1783 H   0  0  0  0  0  0  0  0  0  0  0  0
    0.1139   -3.6468    3.4925 H   0  0  0  0  0  0  0  0  0  0  0  0
  1  2  1  0  0  0  0
  2  3  1  0  0  0  0
  3  4  2  0  0  0  0
  4  5  1  0  0  0  0
  5  6  2  0  0  0  0
  6  7  1  0  0  0  0
  7  8  2  0  0  0  0
  3  8  1  0  0  0  0
  8  9  1  0  0  0  0
  7 10  1  0  0  0  0
  5 11  1  0  0  0  0
 11 12  2  0  0  0  0
 12 13  1  0  0  0  0
 13 14  2  0  0  0  0
 14 15  1  0  0  0  0
 15 16  2  0  0  0  0
 16 17  1  0  0  0  0
 17 18  2  0  0  0  0
 18 19  1  0  0  0  0
 14 19  1  0  0  0  0
 19 20  2  0  0  0  0
 11 20  1  0  0  0  0
 17 21  1  0  0  0  0
 15 22  1  0  0  0  0
 12 23  1  0  0  0  0
 23 24  1  0  0  0  0
 24 25  1  0  0  0  0
 25 26  1  0  0  0  0
 26 27  1  0  0  0  0
 27 28  1  0  0  0  0
 28 29  1  0  0  0  0
 24 29  1  0  0  0  0
 28 30  1  0  0  0  0
 30 31  1  0  0  0  0
 31 32  1  0  0  0  0
 32 33  1  0  0  0  0
 33 34  1  0  0  0  0
 34 35  1  0  0  0  0
 35 36  1  0  0  0  0
 36 37  1  0  0  0  0
 32 37  1  0  0  0  0
 36 38  1  0  0  0  0
 38 39  1  0  0  0  0
 35 40  1  0  0  0  0
 34 41  1  0  0  0  0
 33 42  1  0  0  0  0
 27 43  1  0  0  0  0
 26 44  1  0  0  0  0
 25 45  1  0  0  0  0
  1 46  1  0  0  0  0
  1 47  1  0  0  0  0
  1 48  1  0  0  0  0
  4 49  1  0  0  0  0
  6 50  1  0  0  0  0
  9 51  1  0  0  0  0
 10 52  1  0  0  0  0
 13 53  1  0  0  0  0
 16 54  1  0  0  0  0
 18 55  1  0  0  0  0
 21 56  1  0  0  0  0
 22 57  1  0  0  0  0
 24 58  1  0  0  0  0
 25 59  1  0  0  0  0
 26 60  1  0  0  0  0
 27 61  1  0  0  0  0
 28 62  1  0  0  0  0
 30 63  1  0  0  0  0
 30 64  1  0  0  0  0
 32 65  1  0  0  0  0
 33 66  1  0  0  0  0
 34 67  1  0  0  0  0
 35 68  1  0  0  0  0
 36 69  1  0  0  0  0
 38 70  1  0  0  0  0
 38 71  1  0  0  0  0
 39 72  1  0  0  0  0
 40 73  1  0  0  0  0
 41 74  1  0  0  0  0
 42 75  1  0  0  0  0
 43 76  1  0  0  0  0
 44 77  1  0  0  0  0
 45 78  1  0  0  0  0
M  CHG  1  20   1
M  END
$$$$
