C27H31O14
APtclcactv06291802573D 0   0.00000     0.00000
 
 72 76  0  0  0  0  0  0  0  0999 V2000
   -0.5266    3.3583    0.8373 C   0  0  0  0  0  0  0  0  0  0  0  0
    0.3113    3.3663   -0.4429 C   0  0  0  0  0  0  0  0  0  0  0  0
    1.2999    4.5344   -0.3986 C   0  0  0  0  0  0  0  0  0  0  0  0
    2.2564    4.3392    0.7817 C   0  0  0  0  0  0  0  0  0  0  0  0
    2.9607    2.9867    0.6357 C   0  0  0  0  0  0  0  0  0  0  0  0
    1.9079    1.8784    0.5515 C   0  0  0  0  0  0  0  0  0  0  0  0
    1.0326    2.1372   -0.5481 O   0  0  0  0  0  0  0  0  0  0  0  0
    2.5558    0.6194    0.3588 O   0  0  0  0  0  0  0  0  0  0  0  0
    1.7675   -0.4880    0.3674 C   0  0  0  0  0  0  0  0  0  0  0  0
    2.3157   -1.7706    0.1857 C   0  0  0  0  0  0  0  0  0  0  0  0
    1.6429   -2.7756    0.1879 O   0  3  0  0  0  0  0  0  0  0  0  0
    0.4357   -2.8083    0.3438 C   0  0  0  0  0  0  0  0  0  0  0  0
   -0.2547   -4.0299    0.3303 C   0  0  0  0  0  0  0  0  0  0  0  0
   -1.6208   -4.0482    0.5087 C   0  0  0  0  0  0  0  0  0  0  0  0
   -2.3366   -2.8653    0.7036 C   0  0  0  0  0  0  0  0  0  0  0  0
   -1.6935   -1.6591    0.7216 C   0  0  0  0  0  0  0  0  0  0  0  0
   -0.2989   -1.6119    0.5429 C   0  0  0  0  0  0  0  0  0  0  0  0
    0.4063   -0.3905    0.5600 C   0  0  0  0  0  0  0  0  0  0  0  0
   -2.3967   -0.5133    0.9109 O   0  0  0  0  0  0  0  0  0  0  0  0
   -3.8094   -0.6404    1.0852 C   0  0  0  0  0  0  0  0  0  0  0  0
   -4.4094    0.7307    1.4073 C   0  0  0  0  0  0  0  0  0  0  0  0
   -4.1700    1.6747    0.2250 C   0  0  0  0  0  0  0  0  0  0  0  0
   -4.7768    1.0569   -1.0385 C   0  0  0  0  0  0  0  0  0  0  0  0
   -4.1626   -0.3268   -1.2662 C   0  0  0  0  0  0  0  0  0  0  0  0
   -4.3945   -1.1444   -0.1173 O   0  0  0  0  0  0  0  0  0  0  0  0
   -4.8072   -0.9757   -2.4926 C   0  0  0  0  0  0  0  0  0  0  0  0
   -4.1543   -2.2152   -2.7742 O   0  0  0  0  0  0  0  0  0  0  0  0
   -6.1910    0.9308   -0.8765 O   0  0  0  0  0  0  0  0  0  0  0  0
   -4.7906    2.9351    0.4863 O   0  0  0  0  0  0  0  0  0  0  0  0
   -5.8138    0.5960    1.6340 O   0  0  0  0  0  0  0  0  0  0  0  0
   -2.2812   -5.2348    0.4942 O   0  0  0  0  0  0  0  0  0  0  0  0
    3.7756   -1.8953   -0.0169 C   0  0  0  0  0  0  0  0  0  0  0  0
    4.4784   -2.9420    0.5828 C   0  0  0  0  0  0  0  0  0  0  0  0
    5.8382   -3.0552    0.3914 C   0  0  0  0  0  0  0  0  0  0  0  0
    6.5099   -2.1294   -0.3971 C   0  0  0  0  0  0  0  0  0  0  0  0
    5.8139   -1.0866   -0.9955 C   0  0  0  0  0  0  0  0  0  0  0  0
    4.4531   -0.9700   -0.8129 C   0  0  0  0  0  0  0  0  0  0  0  0
    7.8502   -2.2439   -0.5831 O   0  0  0  0  0  0  0  0  0  0  0  0
    3.7511    2.9860   -0.5548 O   0  0  0  0  0  0  0  0  0  0  0  0
    3.2288    5.3863    0.7874 O   0  0  0  0  0  0  0  0  0  0  0  0
    2.0463    4.5747   -1.6165 O   0  0  0  0  0  0  0  0  0  0  0  0
   -1.0760    4.2963    0.9178 H   0  0  0  0  0  0  0  0  0  0  0  0
   -1.2304    2.5266    0.8056 H   0  0  0  0  0  0  0  0  0  0  0  0
    0.1296    3.2462    1.7003 H   0  0  0  0  0  0  0  0  0  0  0  0
   -0.3449    3.4780   -1.3061 H   0  0  0  0  0  0  0  0  0  0  0  0
    0.7537    5.4694   -0.2740 H   0  0  0  0  0  0  0  0  0  0  0  0
    1.6930    4.3580    1.7146 H   0  0  0  0  0  0  0  0  0  0  0  0
    3.6021    2.8149    1.5000 H   0  0  0  0  0  0  0  0  0  0  0  0
    1.3319    1.8532    1.4765 H   0  0  0  0  0  0  0  0  0  0  0  0
    0.2837   -4.9539    0.1800 H   0  0  0  0  0  0  0  0  0  0  0  0
   -3.4071   -2.9036    0.8410 H   0  0  0  0  0  0  0  0  0  0  0  0
   -0.0879    0.5581    0.7096 H   0  0  0  0  0  0  0  0  0  0  0  0
   -4.0140   -1.3285    1.9053 H   0  0  0  0  0  0  0  0  0  0  0  0
   -3.9327    1.1364    2.2997 H   0  0  0  0  0  0  0  0  0  0  0  0
   -3.0986    1.8168    0.0830 H   0  0  0  0  0  0  0  0  0  0  0  0
   -4.5629    1.6958   -1.8953 H   0  0  0  0  0  0  0  0  0  0  0  0
   -3.0897   -0.2258   -1.4299 H   0  0  0  0  0  0  0  0  0  0  0  0
   -5.8634   -1.1582   -2.2942 H   0  0  0  0  0  0  0  0  0  0  0  0
   -4.7084   -0.3100   -3.3501 H   0  0  0  0  0  0  0  0  0  0  0  0
   -4.5121   -2.6829   -3.5413 H   0  0  0  0  0  0  0  0  0  0  0  0
   -6.6457    1.7704   -0.7233 H   0  0  0  0  0  0  0  0  0  0  0  0
   -4.4586    3.3804    1.2779 H   0  0  0  0  0  0  0  0  0  0  0  0
   -6.0392    0.0070    2.3671 H   0  0  0  0  0  0  0  0  0  0  0  0
   -2.3575   -5.6531    1.3627 H   0  0  0  0  0  0  0  0  0  0  0  0
    3.9569   -3.6618    1.1962 H   0  0  0  0  0  0  0  0  0  0  0  0
    6.3826   -3.8644    0.8553 H   0  0  0  0  0  0  0  0  0  0  0  0
    6.3395   -0.3685   -1.6075 H   0  0  0  0  0  0  0  0  0  0  0  0
    3.9127   -0.1590   -1.2783 H   0  0  0  0  0  0  0  0  0  0  0  0
    8.0966   -2.7806   -1.3489 H   0  0  0  0  0  0  0  0  0  0  0  0
    4.2263    2.1584   -0.7109 H   0  0  0  0  0  0  0  0  0  0  0  0
    3.8684    5.3253    1.5100 H   0  0  0  0  0  0  0  0  0  0  0  0
    1.5024    4.6916   -2.4075 H   0  0  0  0  0  0  0  0  0  0  0  0
  1  2  1  0  0  0  0
  2  3  1  0  0  0  0
  3  4  1  0  0  0  0
  4  5  1  0  0  0  0
  5  6  1  0  0  0  0
  6  7  1  0  0  0  0
  2  7  1  0  0  0  0
  6  8  1  0  0  0  0
  8  9  1  0  0  0  0
  9 10  2  0  0  0  0
 10 11  1  0  0  0  0
 11 12  2  0  0  0  0
 12 13  1  0  0  0  0
 13 14  2  0  0  0  0
 14 15  1  0  0  0  0
 15 16  2  0  0  0  0
 16 17  1  0  0  0  0
 12 17  1  0  0  0  0
 17 18  2  0  0  0  0
  9 18  1  0  0  0  0
 16 19  1  0  0  0  0
 19 20  1  0  0  0  0
 20 21  1  0  0  0  0
 21 22  1  0  0  0  0
 22 23  1  0  0  0  0
 23 24  1  0  0  0  0
 24 25  1  0  0  0  0
 20 25  1  0  0  0  0
 24 26  1  0  0  0  0
 26 27  1  0  0  0  0
 23 28  1  0  0  0  0
 22 29  1  0  0  0  0
 21 30  1  0  0  0  0
 14 31  1  0  0  0  0
 10 32  1  0  0  0  0
 32 33  2  0  0  0  0
 33 34  1  0  0  0  0
 34 35  2  0  0  0  0
 35 36  1  0  0  0  0
 36 37  2  0  0  0  0
 32 37  1  0  0  0  0
 35 38  1  0  0  0  0
  5 39  1  0  0  0  0
  4 40  1  0  0  0  0
  3 41  1  0  0  0  0
  1 42  1  0  0  0  0
  1 43  1  0  0  0  0
  1 44  1  0  0  0  0
  2 45  1  0  0  0  0
  3 46  1  0  0  0  0
  4 47  1  0  0  0  0
  5 48  1  0  0  0  0
  6 49  1  0  0  0  0
 13 50  1  0  0  0  0
 15 51  1  0  0  0  0
 18 52  1  0  0  0  0
 20 53  1  0  0  0  0
 21 54  1  0  0  0  0
 22 55  1  0  0  0  0
 23 56  1  0  0  0  0
 24 57  1  0  0  0  0
 26 58  1  0  0  0  0
 26 59  1  0  0  0  0
 27 60  1  0  0  0  0
 28 61  1  0  0  0  0
 29 62  1  0  0  0  0
 30 63  1  0  0  0  0
 31 64  1  0  0  0  0
 33 65  1  0  0  0  0
 34 66  1  0  0  0  0
 36 67  1  0  0  0  0
 37 68  1  0  0  0  0
 38 69  1  0  0  0  0
 39 70  1  0  0  0  0
 40 71  1  0  0  0  0
 41 72  1  0  0  0  0
M  CHG  1  11   1
M  END
$$$$
