C23H23O12
APtclcactv06291802583D 0   0.00000     0.00000
 
 58 61  0  0  0  0  0  0  0  0999 V2000
    7.8350    0.0318   -0.2458 C   0  0  0  0  0  0  0  0  0  0  0  0
    6.4177    0.5305   -0.3623 C   0  0  0  0  0  0  0  0  0  0  0  0
    6.2019    1.6486   -0.7662 O   0  0  0  0  0  0  0  0  0  0  0  0
    5.3950   -0.2675   -0.0172 O   0  0  0  0  0  0  0  0  0  0  0  0
    4.0568    0.2790   -0.1553 C   0  0  0  0  0  0  0  0  0  0  0  0
    3.0710   -0.8522   -0.4586 C   0  0  0  0  0  0  0  0  0  0  0  0
    1.7469   -0.3203   -0.5367 O   0  0  0  0  0  0  0  0  0  0  0  0
    1.2922    0.2927    0.6714 C   0  0  0  0  0  0  0  0  0  0  0  0
    2.2066    1.4699    1.0202 C   0  0  0  0  0  0  0  0  0  0  0  0
    3.6472    0.9661    1.1511 C   0  0  0  0  0  0  0  0  0  0  0  0
    3.7309    0.0319    2.2292 O   0  0  0  0  0  0  0  0  0  0  0  0
    2.1365    2.4522   -0.0153 O   0  0  0  0  0  0  0  0  0  0  0  0
   -0.0448    0.7644    0.4926 O   0  0  0  0  0  0  0  0  0  0  0  0
   -1.0212   -0.1750    0.3832 C   0  0  0  0  0  0  0  0  0  0  0  0
   -2.3668    0.1941    0.2049 C   0  0  0  0  0  0  0  0  0  0  0  0
   -3.2592   -0.6159    0.1041 O   0  3  0  0  0  0  0  0  0  0  0  0
   -3.1140   -1.8243    0.1427 C   0  0  0  0  0  0  0  0  0  0  0  0
   -4.2173   -2.6819    0.0152 C   0  0  0  0  0  0  0  0  0  0  0  0
   -4.0346   -4.0468    0.0607 C   0  0  0  0  0  0  0  0  0  0  0  0
   -2.7628   -4.5968    0.2327 C   0  0  0  0  0  0  0  0  0  0  0  0
   -1.6677   -3.7884    0.3604 C   0  0  0  0  0  0  0  0  0  0  0  0
   -1.8261   -2.3912    0.3169 C   0  0  0  0  0  0  0  0  0  0  0  0
   -0.7237   -1.5196    0.4377 C   0  0  0  0  0  0  0  0  0  0  0  0
   -0.4345   -4.3309    0.5272 O   0  0  0  0  0  0  0  0  0  0  0  0
   -5.1079   -4.8696   -0.0630 O   0  0  0  0  0  0  0  0  0  0  0  0
   -2.7044    1.6327    0.1385 C   0  0  0  0  0  0  0  0  0  0  0  0
   -3.6628    2.0849   -0.7701 C   0  0  0  0  0  0  0  0  0  0  0  0
   -3.9750    3.4301   -0.8287 C   0  0  0  0  0  0  0  0  0  0  0  0
   -3.3333    4.3315    0.0182 C   0  0  0  0  0  0  0  0  0  0  0  0
   -2.3806    3.8815    0.9212 C   0  0  0  0  0  0  0  0  0  0  0  0
   -2.0693    2.5400    0.9881 C   0  0  0  0  0  0  0  0  0  0  0  0
   -3.6407    5.6538   -0.0406 O   0  0  0  0  0  0  0  0  0  0  0  0
   -4.9080    3.8739   -1.7130 O   0  0  0  0  0  0  0  0  0  0  0  0
    3.4381   -1.5049   -1.7929 C   0  0  0  0  0  0  0  0  0  0  0  0
    2.5915   -2.6334   -2.0201 O   0  0  0  0  0  0  0  0  0  0  0  0
    8.5228    0.8133   -0.5686 H   0  0  0  0  0  0  0  0  0  0  0  0
    8.0438   -0.2303    0.7914 H   0  0  0  0  0  0  0  0  0  0  0  0
    7.9635   -0.8483   -0.8759 H   0  0  0  0  0  0  0  0  0  0  0  0
    4.0415    1.0037   -0.9694 H   0  0  0  0  0  0  0  0  0  0  0  0
    3.1171   -1.5974    0.3356 H   0  0  0  0  0  0  0  0  0  0  0  0
    1.3151   -0.4375    1.4804 H   0  0  0  0  0  0  0  0  0  0  0  0
    1.8879    1.9114    1.9645 H   0  0  0  0  0  0  0  0  0  0  0  0
    4.3119    1.8081    1.3442 H   0  0  0  0  0  0  0  0  0  0  0  0
    3.4784    0.3984    3.0877 H   0  0  0  0  0  0  0  0  0  0  0  0
    1.2501    2.8121   -0.1566 H   0  0  0  0  0  0  0  0  0  0  0  0
   -5.2079   -2.2728   -0.1181 H   0  0  0  0  0  0  0  0  0  0  0  0
   -2.6432   -5.6697    0.2654 H   0  0  0  0  0  0  0  0  0  0  0  0
    0.2854   -1.8816    0.5681 H   0  0  0  0  0  0  0  0  0  0  0  0
    0.0353   -4.5020   -0.3005 H   0  0  0  0  0  0  0  0  0  0  0  0
   -5.3067   -5.1222   -0.9750 H   0  0  0  0  0  0  0  0  0  0  0  0
   -4.1592    1.3851   -1.4262 H   0  0  0  0  0  0  0  0  0  0  0  0
   -1.8852    4.5830    1.5761 H   0  0  0  0  0  0  0  0  0  0  0  0
   -1.3274    2.1923    1.6918 H   0  0  0  0  0  0  0  0  0  0  0  0
   -4.3612    5.9167    0.5484 H   0  0  0  0  0  0  0  0  0  0  0  0
   -5.8094    3.8820   -1.3629 H   0  0  0  0  0  0  0  0  0  0  0  0
    3.3058   -0.7832   -2.5990 H   0  0  0  0  0  0  0  0  0  0  0  0
    4.4779   -1.8307   -1.7640 H   0  0  0  0  0  0  0  0  0  0  0  0
    2.7683   -3.0970   -2.8500 H   0  0  0  0  0  0  0  0  0  0  0  0
  1  2  1  0  0  0  0
  2  3  2  0  0  0  0
  2  4  1  0  0  0  0
  4  5  1  0  0  0  0
  5  6  1  0  0  0  0
  6  7  1  0  0  0  0
  7  8  1  0  0  0  0
  8  9  1  0  0  0  0
  9 10  1  0  0  0  0
  5 10  1  0  0  0  0
 10 11  1  0  0  0  0
  9 12  1  0  0  0  0
  8 13  1  0  0  0  0
 13 14  1  0  0  0  0
 14 15  2  0  0  0  0
 15 16  1  0  0  0  0
 16 17  2  0  0  0  0
 17 18  1  0  0  0  0
 18 19  2  0  0  0  0
 19 20  1  0  0  0  0
 20 21  2  0  0  0  0
 21 22  1  0  0  0  0
 17 22  1  0  0  0  0
 22 23  2  0  0  0  0
 14 23  1  0  0  0  0
 21 24  1  0  0  0  0
 19 25  1  0  0  0  0
 15 26  1  0  0  0  0
 26 27  2  0  0  0  0
 27 28  1  0  0  0  0
 28 29  2  0  0  0  0
 29 30  1  0  0  0  0
 30 31  2  0  0  0  0
 26 31  1  0  0  0  0
 29 32  1  0  0  0  0
 28 33  1  0  0  0  0
  6 34  1  0  0  0  0
 34 35  1  0  0  0  0
  1 36  1  0  0  0  0
  1 37  1  0  0  0  0
  1 38  1  0  0  0  0
  5 39  1  0  0  0  0
  6 40  1  0  0  0  0
  8 41  1  0  0  0  0
  9 42  1  0  0  0  0
 10 43  1  0  0  0  0
 11 44  1  0  0  0  0
 12 45  1  0  0  0  0
 18 46  1  0  0  0  0
 20 47  1  0  0  0  0
 23 48  1  0  0  0  0
 24 49  1  0  0  0  0
 25 50  1  0  0  0  0
 27 51  1  0  0  0  0
 30 52  1  0  0  0  0
 31 53  1  0  0  0  0
 32 54  1  0  0  0  0
 33 55  1  0  0  0  0
 34 56  1  0  0  0  0
 34 57  1  0  0  0  0
 35 58  1  0  0  0  0
M  CHG  1  16   1
M  END
$$$$
