C28H32O16
APtclcactv06291802583D 0   0.00000     0.00000
 
 76 80  0  0  0  0  0  0  0  0999 V2000
    3.4812   -5.4451   -1.2615 C   0  0  0  0  0  0  0  0  0  0  0  0
    2.5992   -5.1304   -0.1821 O   0  0  0  0  0  0  0  0  0  0  0  0
    2.0924   -3.8705   -0.1470 C   0  0  0  0  0  0  0  0  0  0  0  0
    1.2258   -3.4980    0.8792 C   0  0  0  0  0  0  0  0  0  0  0  0
    0.7094   -2.2171    0.9166 C   0  0  0  0  0  0  0  0  0  0  0  0
    1.0581   -1.2974   -0.0764 C   0  0  0  0  0  0  0  0  0  0  0  0
    1.9275   -1.6777   -1.1023 C   0  0  0  0  0  0  0  0  0  0  0  0
    2.4432   -2.9554   -1.1301 C   0  0  0  0  0  0  0  0  0  0  0  0
    0.5094    0.0714   -0.0417 C   0  0  0  0  0  0  0  0  0  0  0  0
    1.3731    1.1219   -0.0161 C   0  0  0  0  0  0  0  0  0  0  0  0
    0.8649    2.4421    0.0168 C   0  0  0  0  0  0  0  0  0  0  0  0
    1.6105    3.4081    0.0399 O   0  0  0  0  0  0  0  0  0  0  0  0
   -0.5988    2.6051    0.0216 C   0  0  0  0  0  0  0  0  0  0  0  0
   -1.4019    1.4521   -0.0066 C   0  0  0  0  0  0  0  0  0  0  0  0
   -0.8234    0.2329   -0.0423 O   0  0  0  0  0  0  0  0  0  0  0  0
   -2.7820    1.5828   -0.0026 C   0  0  0  0  0  0  0  0  0  0  0  0
   -3.3595    2.8425    0.0290 C   0  0  0  0  0  0  0  0  0  0  0  0
   -2.5671    3.9851    0.0564 C   0  0  0  0  0  0  0  0  0  0  0  0
   -1.1890    3.8748    0.0538 C   0  0  0  0  0  0  0  0  0  0  0  0
   -0.4139    4.9885    0.0805 O   0  0  0  0  0  0  0  0  0  0  0  0
   -4.7118    2.9621    0.0327 O   0  0  0  0  0  0  0  0  0  0  0  0
   -3.6548    0.3547   -0.0331 C   0  0  0  0  0  0  0  0  0  0  0  0
   -4.2543    0.1198    1.3558 C   0  0  0  0  0  0  0  0  0  0  0  0
   -5.1870   -1.0941    1.3022 C   0  0  0  0  0  0  0  0  0  0  0  0
   -6.2621   -0.8515    0.2384 C   0  0  0  0  0  0  0  0  0  0  0  0
   -5.5851   -0.5791   -1.1074 C   0  0  0  0  0  0  0  0  0  0  0  0
   -4.7087    0.5425   -0.9798 O   0  0  0  0  0  0  0  0  0  0  0  0
   -4.7808   -1.8093   -1.5322 C   0  0  0  0  0  0  0  0  0  0  0  0
   -4.2726   -1.6133   -2.8533 O   0  0  0  0  0  0  0  0  0  0  0  0
   -7.0948   -2.0076    0.1287 O   0  0  0  0  0  0  0  0  0  0  0  0
   -4.4343   -2.2607    0.9638 O   0  0  0  0  0  0  0  0  0  0  0  0
   -3.2045   -0.1256    2.2938 O   0  0  0  0  0  0  0  0  0  0  0  0
    2.8608    0.8815   -0.0223 C   0  0  0  0  0  0  0  0  0  0  0  0
    3.4735    1.5049   -1.2790 C   0  0  0  0  0  0  0  0  0  0  0  0
    4.9924    1.3089   -1.2482 C   0  0  0  0  0  0  0  0  0  0  0  0
    5.5498    1.9264    0.0380 C   0  0  0  0  0  0  0  0  0  0  0  0
    4.8569    1.2866    1.2439 C   0  0  0  0  0  0  0  0  0  0  0  0
    3.4448    1.4785    1.1373 O   0  0  0  0  0  0  0  0  0  0  0  0
    5.1673   -0.2112    1.2755 C   0  0  0  0  0  0  0  0  0  0  0  0
    4.6598   -0.7775    2.4853 O   0  0  0  0  0  0  0  0  0  0  0  0
    6.9565    1.6859    0.1125 O   0  0  0  0  0  0  0  0  0  0  0  0
    5.2949   -0.0873   -1.2783 O   0  0  0  0  0  0  0  0  0  0  0  0
    2.9335    0.8693   -2.4394 O   0  0  0  0  0  0  0  0  0  0  0  0
    0.8883   -4.3956    1.8436 O   0  0  0  0  0  0  0  0  0  0  0  0
    4.3459   -4.7824   -1.2291 H   0  0  0  0  0  0  0  0  0  0  0  0
    3.8125   -6.4795   -1.1703 H   0  0  0  0  0  0  0  0  0  0  0  0
    2.9578   -5.3134   -2.2086 H   0  0  0  0  0  0  0  0  0  0  0  0
    0.0376   -1.9273    1.7110 H   0  0  0  0  0  0  0  0  0  0  0  0
    2.1984   -0.9692   -1.8711 H   0  0  0  0  0  0  0  0  0  0  0  0
    3.1150   -3.2481   -1.9235 H   0  0  0  0  0  0  0  0  0  0  0  0
   -3.0294    4.9609    0.0805 H   0  0  0  0  0  0  0  0  0  0  0  0
   -0.1893    5.2901    0.9714 H   0  0  0  0  0  0  0  0  0  0  0  0
   -5.1030    2.9748    0.9169 H   0  0  0  0  0  0  0  0  0  0  0  0
   -3.0564   -0.5095   -0.3216 H   0  0  0  0  0  0  0  0  0  0  0  0
   -4.8194    1.0001    1.6623 H   0  0  0  0  0  0  0  0  0  0  0  0
   -5.6605   -1.2333    2.2740 H   0  0  0  0  0  0  0  0  0  0  0  0
   -6.8678    0.0092    0.5223 H   0  0  0  0  0  0  0  0  0  0  0  0
   -6.3443   -0.3635   -1.8592 H   0  0  0  0  0  0  0  0  0  0  0  0
   -3.9505   -1.9569   -0.8416 H   0  0  0  0  0  0  0  0  0  0  0  0
   -5.4259   -2.6879   -1.5177 H   0  0  0  0  0  0  0  0  0  0  0  0
   -3.7513   -2.3556   -3.1884 H   0  0  0  0  0  0  0  0  0  0  0  0
   -7.5523   -2.2420    0.9478 H   0  0  0  0  0  0  0  0  0  0  0  0
   -4.9631   -3.0686    0.9120 H   0  0  0  0  0  0  0  0  0  0  0  0
   -3.5127   -0.2832    3.1967 H   0  0  0  0  0  0  0  0  0  0  0  0
    3.0557   -0.1909   -0.0164 H   0  0  0  0  0  0  0  0  0  0  0  0
    3.2442    2.5702   -1.3061 H   0  0  0  0  0  0  0  0  0  0  0  0
    5.4409    1.7993   -2.1122 H   0  0  0  0  0  0  0  0  0  0  0  0
    5.3624    3.0002    0.0376 H   0  0  0  0  0  0  0  0  0  0  0  0
    5.2188    1.7525    2.1605 H   0  0  0  0  0  0  0  0  0  0  0  0
    4.6968   -0.6979    0.4212 H   0  0  0  0  0  0  0  0  0  0  0  0
    6.2462   -0.3597    1.2294 H   0  0  0  0  0  0  0  0  0  0  0  0
    4.8212   -1.7269    2.5732 H   0  0  0  0  0  0  0  0  0  0  0  0
    7.4590    2.0600   -0.6241 H   0  0  0  0  0  0  0  0  0  0  0  0
    6.2413   -0.2852   -1.2611 H   0  0  0  0  0  0  0  0  0  0  0  0
    3.2784    1.2154   -3.2739 H   0  0  0  0  0  0  0  0  0  0  0  0
    1.4796   -4.3920    2.6087 H   0  0  0  0  0  0  0  0  0  0  0  0
  1  2  1  0  0  0  0
  2  3  1  0  0  0  0
  3  4  2  0  0  0  0
  4  5  1  0  0  0  0
  5  6  2  0  0  0  0
  6  7  1  0  0  0  0
  7  8  2  0  0  0  0
  3  8  1  0  0  0  0
  6  9  1  0  0  0  0
  9 10  2  0  0  0  0
 10 11  1  0  0  0  0
 11 12  2  0  0  0  0
 11 13  1  0  0  0  0
 13 14  2  0  0  0  0
 14 15  1  0  0  0  0
  9 15  1  0  0  0  0
 14 16  1  0  0  0  0
 16 17  2  0  0  0  0
 17 18  1  0  0  0  0
 18 19  2  0  0  0  0
 13 19  1  0  0  0  0
 19 20  1  0  0  0  0
 17 21  1  0  0  0  0
 16 22  1  0  0  0  0
 22 23  1  0  0  0  0
 23 24  1  0  0  0  0
 24 25  1  0  0  0  0
 25 26  1  0  0  0  0
 26 27  1  0  0  0  0
 22 27  1  0  0  0  0
 26 28  1  0  0  0  0
 28 29  1  0  0  0  0
 25 30  1  0  0  0  0
 24 31  1  0  0  0  0
 23 32  1  0  0  0  0
 10 33  1  0  0  0  0
 33 34  1  0  0  0  0
 34 35  1  0  0  0  0
 35 36  1  0  0  0  0
 36 37  1  0  0  0  0
 37 38  1  0  0  0  0
 33 38  1  0  0  0  0
 37 39  1  0  0  0  0
 39 40  1  0  0  0  0
 36 41  1  0  0  0  0
 35 42  1  0  0  0  0
 34 43  1  0  0  0  0
  4 44  1  0  0  0  0
  1 45  1  0  0  0  0
  1 46  1  0  0  0  0
  1 47  1  0  0  0  0
  5 48  1  0  0  0  0
  7 49  1  0  0  0  0
  8 50  1  0  0  0  0
 18 51  1  0  0  0  0
 20 52  1  0  0  0  0
 21 53  1  0  0  0  0
 22 54  1  0  0  0  0
 23 55  1  0  0  0  0
 24 56  1  0  0  0  0
 25 57  1  0  0  0  0
 26 58  1  0  0  0  0
 28 59  1  0  0  0  0
 28 60  1  0  0  0  0
 29 61  1  0  0  0  0
 30 62  1  0  0  0  0
 31 63  1  0  0  0  0
 32 64  1  0  0  0  0
 33 65  1  0  0  0  0
 34 66  1  0  0  0  0
 35 67  1  0  0  0  0
 36 68  1  0  0  0  0
 37 69  1  0  0  0  0
 39 70  1  0  0  0  0
 39 71  1  0  0  0  0
 40 72  1  0  0  0  0
 41 73  1  0  0  0  0
 42 74  1  0  0  0  0
 43 75  1  0  0  0  0
 44 76  1  0  0  0  0
M  END
$$$$
