C20H18O10
APtclcactv06291802593D 0   0.00000     0.00000
 
 48 51  0  0  0  0  0  0  0  0999 V2000
   -5.3157   -1.0626   -0.7704 C   0  0  0  0  0  0  0  0  0  0  0  0
   -6.4830   -0.0957   -0.5555 C   0  0  0  0  0  0  0  0  0  0  0  0
   -6.3058    0.6153    0.7896 C   0  0  0  0  0  0  0  0  0  0  0  0
   -4.9502    1.3285    0.8031 C   0  0  0  0  0  0  0  0  0  0  0  0
   -3.8421    0.3065    0.5357 C   0  0  0  0  0  0  0  0  0  0  0  0
   -4.0840   -0.3400   -0.7155 O   0  0  0  0  0  0  0  0  0  0  0  0
   -2.5792    0.9737    0.4911 O   0  0  0  0  0  0  0  0  0  0  0  0
   -1.4746    0.1945    0.3657 C   0  0  0  0  0  0  0  0  0  0  0  0
   -1.6120   -1.1871    0.2876 C   0  0  0  0  0  0  0  0  0  0  0  0
   -0.4940   -1.9902    0.1593 C   0  0  0  0  0  0  0  0  0  0  0  0
    0.7762   -1.4016    0.1087 C   0  0  0  0  0  0  0  0  0  0  0  0
    0.9122   -0.0043    0.1879 C   0  0  0  0  0  0  0  0  0  0  0  0
   -0.2213    0.7843    0.3111 C   0  0  0  0  0  0  0  0  0  0  0  0
    2.1395    0.5547    0.1389 O   0  0  0  0  0  0  0  0  0  0  0  0
    3.2589   -0.1788    0.0154 C   0  0  0  0  0  0  0  0  0  0  0  0
    3.2360   -1.5385   -0.0697 C   0  0  0  0  0  0  0  0  0  0  0  0
    1.9919   -2.2197   -0.0268 C   0  0  0  0  0  0  0  0  0  0  0  0
    1.9325   -3.4368   -0.0998 O   0  0  0  0  0  0  0  0  0  0  0  0
    4.3969   -2.2376   -0.1948 O   0  0  0  0  0  0  0  0  0  0  0  0
    4.5600    0.5135   -0.0303 C   0  0  0  0  0  0  0  0  0  0  0  0
    4.7368    1.6192   -0.8671 C   0  0  0  0  0  0  0  0  0  0  0  0
    5.9538    2.2632   -0.9061 C   0  0  0  0  0  0  0  0  0  0  0  0
    7.0050    1.8150   -0.1156 C   0  0  0  0  0  0  0  0  0  0  0  0
    6.8339    0.7163    0.7177 C   0  0  0  0  0  0  0  0  0  0  0  0
    5.6186    0.0697    0.7675 C   0  0  0  0  0  0  0  0  0  0  0  0
    8.2033    2.4523   -0.1579 O   0  0  0  0  0  0  0  0  0  0  0  0
   -0.6260   -3.3388    0.0833 O   0  0  0  0  0  0  0  0  0  0  0  0
   -4.9289    2.3329   -0.2132 O   0  0  0  0  0  0  0  0  0  0  0  0
   -7.3516    1.5732    0.9654 O   0  0  0  0  0  0  0  0  0  0  0  0
   -6.5022    0.8710   -1.6078 O   0  0  0  0  0  0  0  0  0  0  0  0
   -5.3257   -1.8236    0.0098 H   0  0  0  0  0  0  0  0  0  0  0  0
   -5.4139   -1.5400   -1.7454 H   0  0  0  0  0  0  0  0  0  0  0  0
   -7.4206   -0.6515   -0.5531 H   0  0  0  0  0  0  0  0  0  0  0  0
   -6.3407   -0.1168    1.5964 H   0  0  0  0  0  0  0  0  0  0  0  0
   -4.7917    1.7911    1.7772 H   0  0  0  0  0  0  0  0  0  0  0  0
   -3.8329   -0.4366    1.3331 H   0  0  0  0  0  0  0  0  0  0  0  0
   -2.5944   -1.6339    0.3276 H   0  0  0  0  0  0  0  0  0  0  0  0
   -0.1273    1.8585    0.3723 H   0  0  0  0  0  0  0  0  0  0  0  0
    4.2754   -3.1955   -0.2474 H   0  0  0  0  0  0  0  0  0  0  0  0
    3.9205    1.9679   -1.4823 H   0  0  0  0  0  0  0  0  0  0  0  0
    6.0913    3.1175   -1.5523 H   0  0  0  0  0  0  0  0  0  0  0  0
    7.6538    0.3711    1.3301 H   0  0  0  0  0  0  0  0  0  0  0  0
    5.4864   -0.7840    1.4157 H   0  0  0  0  0  0  0  0  0  0  0  0
    8.2886    3.1725    0.4817 H   0  0  0  0  0  0  0  0  0  0  0  0
   -0.7253   -3.6741   -0.8183 H   0  0  0  0  0  0  0  0  0  0  0  0
   -4.0982    2.8255   -0.2619 H   0  0  0  0  0  0  0  0  0  0  0  0
   -8.2399    1.1911    0.9602 H   0  0  0  0  0  0  0  0  0  0  0  0
   -6.6069    0.4898   -2.4902 H   0  0  0  0  0  0  0  0  0  0  0  0
  1  2  1  0  0  0  0
  2  3  1  0  0  0  0
  3  4  1  0  0  0  0
  4  5  1  0  0  0  0
  5  6  1  0  0  0  0
  1  6  1  0  0  0  0
  5  7  1  0  0  0  0
  7  8  1  0  0  0  0
  8  9  2  0  0  0  0
  9 10  1  0  0  0  0
 10 11  2  0  0  0  0
 11 12  1  0  0  0  0
 12 13  2  0  0  0  0
  8 13  1  0  0  0  0
 12 14  1  0  0  0  0
 14 15  1  0  0  0  0
 15 16  2  0  0  0  0
 16 17  1  0  0  0  0
 11 17  1  0  0  0  0
 17 18  2  0  0  0  0
 16 19  1  0  0  0  0
 15 20  1  0  0  0  0
 20 21  2  0  0  0  0
 21 22  1  0  0  0  0
 22 23  2  0  0  0  0
 23 24  1  0  0  0  0
 24 25  2  0  0  0  0
 20 25  1  0  0  0  0
 23 26  1  0  0  0  0
 10 27  1  0  0  0  0
  4 28  1  0  0  0  0
  3 29  1  0  0  0  0
  2 30  1  0  0  0  0
  1 31  1  0  0  0  0
  1 32  1  0  0  0  0
  2 33  1  0  0  0  0
  3 34  1  0  0  0  0
  4 35  1  0  0  0  0
  5 36  1  0  0  0  0
  9 37  1  0  0  0  0
 13 38  1  0  0  0  0
 19 39  1  0  0  0  0
 21 40  1  0  0  0  0
 22 41  1  0  0  0  0
 24 42  1  0  0  0  0
 25 43  1  0  0  0  0
 26 44  1  0  0  0  0
 27 45  1  0  0  0  0
 28 46  1  0  0  0  0
 29 47  1  0  0  0  0
 30 48  1  0  0  0  0
M  END
$$$$
