C33H41O20
APtclcactv06291802573D 0   0.00000     0.00000
 
 94 99  0  0  0  0  0  0  0  0999 V2000
   -3.7081    3.0714   -0.5519 C   0  0  0  0  0  0  0  0  0  0  0  0
   -4.9982    3.5414   -0.6678 C   0  0  0  0  0  0  0  0  0  0  0  0
   -5.4565    4.5358    0.1873 C   0  0  0  0  0  0  0  0  0  0  0  0
   -4.6168    5.0596    1.1623 C   0  0  0  0  0  0  0  0  0  0  0  0
   -3.3255    4.5946    1.2841 C   0  0  0  0  0  0  0  0  0  0  0  0
   -2.8614    3.5954    0.4266 C   0  0  0  0  0  0  0  0  0  0  0  0
   -1.4760    3.0932    0.5545 C   0  0  0  0  0  0  0  0  0  0  0  0
   -1.2417    1.7149    0.3997 C   0  0  0  0  0  0  0  0  0  0  0  0
    0.0549    1.2641    0.5215 C   0  0  0  0  0  0  0  0  0  0  0  0
    1.0201    2.2562    0.7932 C   0  0  0  0  0  0  0  0  0  0  0  0
    2.3821    1.9365    0.9416 C   0  0  0  0  0  0  0  0  0  0  0  0
    3.2844    2.9294    1.2042 C   0  0  0  0  0  0  0  0  0  0  0  0
    2.8647    4.2555    1.3258 C   0  0  0  0  0  0  0  0  0  0  0  0
    1.5369    4.5955    1.1854 C   0  0  0  0  0  0  0  0  0  0  0  0
    0.5853    3.6002    0.9151 C   0  0  0  0  0  0  0  0  0  0  0  0
   -0.5911    3.8853    0.7830 O   0  3  0  0  0  0  0  0  0  0  0  0
    3.7791    5.2251    1.5870 O   0  0  0  0  0  0  0  0  0  0  0  0
    2.7980    0.6494    0.8252 O   0  0  0  0  0  0  0  0  0  0  0  0
    4.1959    0.4020    0.9885 C   0  0  0  0  0  0  0  0  0  0  0  0
    4.4556   -1.1062    0.9483 C   0  0  0  0  0  0  0  0  0  0  0  0
    4.0442   -1.6508   -0.4231 C   0  0  0  0  0  0  0  0  0  0  0  0
    4.8163   -0.8987   -1.5114 C   0  0  0  0  0  0  0  0  0  0  0  0
    4.5427    0.6015   -1.3761 C   0  0  0  0  0  0  0  0  0  0  0  0
    4.9189    1.0369   -0.0681 O   0  0  0  0  0  0  0  0  0  0  0  0
    5.3576    1.3651   -2.4220 C   0  0  0  0  0  0  0  0  0  0  0  0
    5.0150    2.7516   -2.3734 O   0  0  0  0  0  0  0  0  0  0  0  0
    6.2159   -1.1444   -1.3604 O   0  0  0  0  0  0  0  0  0  0  0  0
    4.3512   -3.0445   -0.4956 O   0  0  0  0  0  0  0  0  0  0  0  0
    5.8456   -1.3574    1.1644 O   0  0  0  0  0  0  0  0  0  0  0  0
   -2.2616    0.8549    0.1387 O   0  0  0  0  0  0  0  0  0  0  0  0
   -1.9253   -0.5267   -0.0022 C   0  0  0  0  0  0  0  0  0  0  0  0
   -3.2057   -1.3497   -0.1667 C   0  0  0  0  0  0  0  0  0  0  0  0
   -3.9230   -0.9129   -1.4477 C   0  0  0  0  0  0  0  0  0  0  0  0
   -2.9696   -1.0776   -2.6352 C   0  0  0  0  0  0  0  0  0  0  0  0
   -1.6983   -0.2652   -2.3754 C   0  0  0  0  0  0  0  0  0  0  0  0
   -1.0976   -0.7007   -1.1541 O   0  0  0  0  0  0  0  0  0  0  0  0
   -0.7156   -0.4723   -3.5296 C   0  0  0  0  0  0  0  0  0  0  0  0
    0.4206    0.3746   -3.3457 O   0  0  0  0  0  0  0  0  0  0  0  0
   -2.6315   -2.4575   -2.7884 O   0  0  0  0  0  0  0  0  0  0  0  0
   -5.0810   -1.7259   -1.6481 O   0  0  0  0  0  0  0  0  0  0  0  0
   -2.8738   -2.7368   -0.2545 O   0  0  0  0  0  0  0  0  0  0  0  0
   -2.8376   -3.4068    1.0072 C   0  0  0  0  0  0  0  0  0  0  0  0
   -2.5973   -4.9022    0.7845 C   0  0  0  0  0  0  0  0  0  0  0  0
   -1.2337   -5.0982    0.1148 C   0  0  0  0  0  0  0  0  0  0  0  0
   -0.1509   -4.4595    0.9900 C   0  0  0  0  0  0  0  0  0  0  0  0
   -0.4856   -2.9811    1.2047 C   0  0  0  0  0  0  0  0  0  0  0  0
   -1.7789   -2.8688    1.8022 O   0  0  0  0  0  0  0  0  0  0  0  0
    0.5592   -2.3502    2.1274 C   0  0  0  0  0  0  0  0  0  0  0  0
    0.3143   -0.9465    2.2347 O   0  0  0  0  0  0  0  0  0  0  0  0
   -0.1026   -5.1265    2.2528 O   0  0  0  0  0  0  0  0  0  0  0  0
   -0.9688   -6.4949   -0.0304 O   0  0  0  0  0  0  0  0  0  0  0  0
   -2.6138   -5.5810    2.0419 O   0  0  0  0  0  0  0  0  0  0  0  0
   -6.7282    4.9972    0.0696 O   0  0  0  0  0  0  0  0  0  0  0  0
   -3.3538    2.2955   -1.2144 H   0  0  0  0  0  0  0  0  0  0  0  0
   -5.6538    3.1366   -1.4246 H   0  0  0  0  0  0  0  0  0  0  0  0
   -4.9765    5.8326    1.8253 H   0  0  0  0  0  0  0  0  0  0  0  0
   -2.6730    5.0028    2.0418 H   0  0  0  0  0  0  0  0  0  0  0  0
    0.3146    0.2211    0.4163 H   0  0  0  0  0  0  0  0  0  0  0  0
    4.3304    2.6860    1.3188 H   0  0  0  0  0  0  0  0  0  0  0  0
    1.2290    5.6260    1.2832 H   0  0  0  0  0  0  0  0  0  0  0  0
    4.1662    5.6240    0.7957 H   0  0  0  0  0  0  0  0  0  0  0  0
    4.5264    0.8023    1.9470 H   0  0  0  0  0  0  0  0  0  0  0  0
    3.8705   -1.5974    1.7257 H   0  0  0  0  0  0  0  0  0  0  0  0
    2.9739   -1.5038   -0.5677 H   0  0  0  0  0  0  0  0  0  0  0  0
    4.4892   -1.2415   -2.4931 H   0  0  0  0  0  0  0  0  0  0  0  0
    3.4810    0.7929   -1.5316 H   0  0  0  0  0  0  0  0  0  0  0  0
    6.4205    1.2459   -2.2124 H   0  0  0  0  0  0  0  0  0  0  0  0
    5.1363    0.9708   -3.4138 H   0  0  0  0  0  0  0  0  0  0  0  0
    5.4946    3.2978   -3.0111 H   0  0  0  0  0  0  0  0  0  0  0  0
    6.4613   -2.0771   -1.4300 H   0  0  0  0  0  0  0  0  0  0  0  0
    3.9010   -3.5816    0.1707 H   0  0  0  0  0  0  0  0  0  0  0  0
    6.1763   -1.0339    2.0136 H   0  0  0  0  0  0  0  0  0  0  0  0
   -1.3888   -0.8626    0.8852 H   0  0  0  0  0  0  0  0  0  0  0  0
   -3.8579   -1.1838    0.6907 H   0  0  0  0  0  0  0  0  0  0  0  0
   -4.2202    0.1322   -1.3610 H   0  0  0  0  0  0  0  0  0  0  0  0
   -3.4530   -0.7171   -3.5432 H   0  0  0  0  0  0  0  0  0  0  0  0
   -1.9519    0.7922   -2.2990 H   0  0  0  0  0  0  0  0  0  0  0  0
   -0.3933   -1.5133   -3.5500 H   0  0  0  0  0  0  0  0  0  0  0  0
   -1.2045   -0.2247   -4.4719 H   0  0  0  0  0  0  0  0  0  0  0  0
    1.0868    0.2958   -4.0421 H   0  0  0  0  0  0  0  0  0  0  0  0
   -2.0291   -2.6356   -3.5236 H   0  0  0  0  0  0  0  0  0  0  0  0
   -5.5846   -1.5040   -2.4432 H   0  0  0  0  0  0  0  0  0  0  0  0
   -3.7876   -3.2639    1.5220 H   0  0  0  0  0  0  0  0  0  0  0  0
   -3.3801   -5.3051    0.1418 H   0  0  0  0  0  0  0  0  0  0  0  0
   -1.2374   -4.6226   -0.8659 H   0  0  0  0  0  0  0  0  0  0  0  0
    0.8160   -4.5457    0.4942 H   0  0  0  0  0  0  0  0  0  0  0  0
   -0.4825   -2.4645    0.2449 H   0  0  0  0  0  0  0  0  0  0  0  0
    0.4948   -2.8068    3.1150 H   0  0  0  0  0  0  0  0  0  0  0  0
    1.5547   -2.5149    1.7152 H   0  0  0  0  0  0  0  0  0  0  0  0
    0.9403   -0.4805    2.8058 H   0  0  0  0  0  0  0  0  0  0  0  0
    0.1003   -6.0700    2.1917 H   0  0  0  0  0  0  0  0  0  0  0  0
   -1.6204   -6.9650   -0.5684 H   0  0  0  0  0  0  0  0  0  0  0  0
   -3.4474   -5.4951    2.5243 H   0  0  0  0  0  0  0  0  0  0  0  0
   -7.3730    4.5142    0.6044 H   0  0  0  0  0  0  0  0  0  0  0  0
  1  2  2  0  0  0  0
  2  3  1  0  0  0  0
  3  4  2  0  0  0  0
  4  5  1  0  0  0  0
  5  6  2  0  0  0  0
  1  6  1  0  0  0  0
  6  7  1  0  0  0  0
  7  8  2  0  0  0  0
  8  9  1  0  0  0  0
  9 10  2  0  0  0  0
 10 11  1  0  0  0  0
 11 12  2  0  0  0  0
 12 13  1  0  0  0  0
 13 14  2  0  0  0  0
 14 15  1  0  0  0  0
 10 15  1  0  0  0  0
 15 16  2  0  0  0  0
  7 16  1  0  0  0  0
 13 17  1  0  0  0  0
 11 18  1  0  0  0  0
 18 19  1  0  0  0  0
 19 20  1  0  0  0  0
 20 21  1  0  0  0  0
 21 22  1  0  0  0  0
 22 23  1  0  0  0  0
 23 24  1  0  0  0  0
 19 24  1  0  0  0  0
 23 25  1  0  0  0  0
 25 26  1  0  0  0  0
 22 27  1  0  0  0  0
 21 28  1  0  0  0  0
 20 29  1  0  0  0  0
  8 30  1  0  0  0  0
 30 31  1  0  0  0  0
 31 32  1  0  0  0  0
 32 33  1  0  0  0  0
 33 34  1  0  0  0  0
 34 35  1  0  0  0  0
 35 36  1  0  0  0  0
 31 36  1  0  0  0  0
 35 37  1  0  0  0  0
 37 38  1  0  0  0  0
 34 39  1  0  0  0  0
 33 40  1  0  0  0  0
 32 41  1  0  0  0  0
 41 42  1  0  0  0  0
 42 43  1  0  0  0  0
 43 44  1  0  0  0  0
 44 45  1  0  0  0  0
 45 46  1  0  0  0  0
 46 47  1  0  0  0  0
 42 47  1  0  0  0  0
 46 48  1  0  0  0  0
 48 49  1  0  0  0  0
 45 50  1  0  0  0  0
 44 51  1  0  0  0  0
 43 52  1  0  0  0  0
  3 53  1  0  0  0  0
  1 54  1  0  0  0  0
  2 55  1  0  0  0  0
  4 56  1  0  0  0  0
  5 57  1  0  0  0  0
  9 58  1  0  0  0  0
 12 59  1  0  0  0  0
 14 60  1  0  0  0  0
 17 61  1  0  0  0  0
 19 62  1  0  0  0  0
 20 63  1  0  0  0  0
 21 64  1  0  0  0  0
 22 65  1  0  0  0  0
 23 66  1  0  0  0  0
 25 67  1  0  0  0  0
 25 68  1  0  0  0  0
 26 69  1  0  0  0  0
 27 70  1  0  0  0  0
 28 71  1  0  0  0  0
 29 72  1  0  0  0  0
 31 73  1  0  0  0  0
 32 74  1  0  0  0  0
 33 75  1  0  0  0  0
 34 76  1  0  0  0  0
 35 77  1  0  0  0  0
 37 78  1  0  0  0  0
 37 79  1  0  0  0  0
 38 80  1  0  0  0  0
 39 81  1  0  0  0  0
 40 82  1  0  0  0  0
 42 83  1  0  0  0  0
 43 84  1  0  0  0  0
 44 85  1  0  0  0  0
 45 86  1  0  0  0  0
 46 87  1  0  0  0  0
 48 88  1  0  0  0  0
 48 89  1  0  0  0  0
 49 90  1  0  0  0  0
 50 91  1  0  0  0  0
 51 92  1  0  0  0  0
 52 93  1  0  0  0  0
 53 94  1  0  0  0  0
M  CHG  1  16   1
M  END
$$$$
