C28H32O16
APtclcactv06291802583D 0   0.00000     0.00000
 
 76 80  0  0  0  0  0  0  0  0999 V2000
   -8.7134    3.0910    0.0694 C   0  0  0  0  0  0  0  0  0  0  0  0
   -8.0502    1.8253    0.0527 O   0  0  0  0  0  0  0  0  0  0  0  0
   -6.6918    1.8407    0.0523 C   0  0  0  0  0  0  0  0  0  0  0  0
   -5.9829    0.6407    0.0365 C   0  0  0  0  0  0  0  0  0  0  0  0
   -4.6014    0.6545    0.0361 C   0  0  0  0  0  0  0  0  0  0  0  0
   -3.9179    1.8735    0.0516 C   0  0  0  0  0  0  0  0  0  0  0  0
   -4.6351    3.0728    0.0674 C   0  0  0  0  0  0  0  0  0  0  0  0
   -6.0131    3.0516    0.0620 C   0  0  0  0  0  0  0  0  0  0  0  0
   -2.4429    1.8941    0.0517 C   0  0  0  0  0  0  0  0  0  0  0  0
   -1.8055    3.0957    0.0669 C   0  0  0  0  0  0  0  0  0  0  0  0
   -0.3911    3.1350    0.0677 C   0  0  0  0  0  0  0  0  0  0  0  0
    0.2137    4.1950    0.0816 O   0  0  0  0  0  0  0  0  0  0  0  0
    0.3228    1.8470    0.0516 C   0  0  0  0  0  0  0  0  0  0  0  0
   -0.4325    0.6619    0.0365 C   0  0  0  0  0  0  0  0  0  0  0  0
   -1.7809    0.7262    0.0423 O   0  0  0  0  0  0  0  0  0  0  0  0
    0.2194   -0.5614    0.0212 C   0  0  0  0  0  0  0  0  0  0  0  0
    1.6048   -0.6094    0.0207 C   0  0  0  0  0  0  0  0  0  0  0  0
    2.3546    0.5618    0.0361 C   0  0  0  0  0  0  0  0  0  0  0  0
    1.7223    1.7912    0.0507 C   0  0  0  0  0  0  0  0  0  0  0  0
    2.4521    2.9352    0.0657 O   0  0  0  0  0  0  0  0  0  0  0  0
    3.8599    0.4907    0.0359 C   0  0  0  0  0  0  0  0  0  0  0  0
    4.3882    0.8576   -1.3534 C   0  0  0  0  0  0  0  0  0  0  0  0
    5.9197    0.8417   -1.3293 C   0  0  0  0  0  0  0  0  0  0  0  0
    6.4124    1.8066   -0.2465 C   0  0  0  0  0  0  0  0  0  0  0  0
    5.8060    1.4031    1.1000 C   0  0  0  0  0  0  0  0  0  0  0  0
    4.3805    1.4085    0.9997 O   0  0  0  0  0  0  0  0  0  0  0  0
    6.2857   -0.0004    1.4756 C   0  0  0  0  0  0  0  0  0  0  0  0
    5.8463   -0.3159    2.7982 O   0  0  0  0  0  0  0  0  0  0  0  0
    7.8379    1.7460   -0.1656 O   0  0  0  0  0  0  0  0  0  0  0  0
    6.3795   -0.4795   -1.0375 O   0  0  0  0  0  0  0  0  0  0  0  0
    3.9157   -0.0928   -2.3102 O   0  0  0  0  0  0  0  0  0  0  0  0
    2.2357   -1.8113    0.0056 O   0  0  0  0  0  0  0  0  0  0  0  0
   -0.5784   -1.8398    0.0054 C   0  0  0  0  0  0  0  0  0  0  0  0
   -0.5320   -2.4533   -1.3965 C   0  0  0  0  0  0  0  0  0  0  0  0
   -1.2943   -3.7819   -1.3893 C   0  0  0  0  0  0  0  0  0  0  0  0
   -0.6813   -4.7039   -0.3308 C   0  0  0  0  0  0  0  0  0  0  0  0
   -0.7218   -4.0035    1.0299 C   0  0  0  0  0  0  0  0  0  0  0  0
   -0.0215   -2.7607    0.9456 O   0  0  0  0  0  0  0  0  0  0  0  0
   -2.1764   -3.7435    1.4268 C   0  0  0  0  0  0  0  0  0  0  0  0
   -2.2222   -3.2320    2.7604 O   0  0  0  0  0  0  0  0  0  0  0  0
   -1.4300   -5.9193   -0.2647 O   0  0  0  0  0  0  0  0  0  0  0  0
   -2.6682   -3.5432   -1.0775 O   0  0  0  0  0  0  0  0  0  0  0  0
   -1.1408   -1.5585   -2.3296 O   0  0  0  0  0  0  0  0  0  0  0  0
   -6.6511   -0.5437    0.0220 O   0  0  0  0  0  0  0  0  0  0  0  0
   -8.4272    3.6628   -0.8134 H   0  0  0  0  0  0  0  0  0  0  0  0
   -9.7923    2.9360    0.0678 H   0  0  0  0  0  0  0  0  0  0  0  0
   -8.4264    3.6398    0.9664 H   0  0  0  0  0  0  0  0  0  0  0  0
   -4.0508   -0.2746    0.0242 H   0  0  0  0  0  0  0  0  0  0  0  0
   -4.1096    4.0162    0.0797 H   0  0  0  0  0  0  0  0  0  0  0  0
   -6.5662    3.9791    0.0742 H   0  0  0  0  0  0  0  0  0  0  0  0
   -2.3750    4.0132    0.0780 H   0  0  0  0  0  0  0  0  0  0  0  0
    2.6646    3.2778   -0.8133 H   0  0  0  0  0  0  0  0  0  0  0  0
    4.1761   -0.5211    0.2895 H   0  0  0  0  0  0  0  0  0  0  0  0
    4.0385    1.8537   -1.6247 H   0  0  0  0  0  0  0  0  0  0  0  0
    6.3029    1.1564   -2.3000 H   0  0  0  0  0  0  0  0  0  0  0  0
    6.1036    2.8219   -0.4955 H   0  0  0  0  0  0  0  0  0  0  0  0
    6.1191    2.1117    1.8667 H   0  0  0  0  0  0  0  0  0  0  0  0
    5.8739   -0.7252    0.7733 H   0  0  0  0  0  0  0  0  0  0  0  0
    7.3745   -0.0348    1.4365 H   0  0  0  0  0  0  0  0  0  0  0  0
    6.1152   -1.1933    3.1032 H   0  0  0  0  0  0  0  0  0  0  0  0
    8.2889    1.9851   -0.9869 H   0  0  0  0  0  0  0  0  0  0  0  0
    7.3424   -0.5629   -1.0065 H   0  0  0  0  0  0  0  0  0  0  0  0
    4.2126    0.0786   -3.2144 H   0  0  0  0  0  0  0  0  0  0  0  0
    2.4186   -2.1484   -0.8821 H   0  0  0  0  0  0  0  0  0  0  0  0
   -1.6127   -1.6261    0.2747 H   0  0  0  0  0  0  0  0  0  0  0  0
    0.5048   -2.6297   -1.6828 H   0  0  0  0  0  0  0  0  0  0  0  0
   -1.2179   -4.2514   -2.3701 H   0  0  0  0  0  0  0  0  0  0  0  0
    0.3525   -4.9258   -0.5956 H   0  0  0  0  0  0  0  0  0  0  0  0
   -0.2481   -4.6375    1.7794 H   0  0  0  0  0  0  0  0  0  0  0  0
   -2.6151   -3.0164    0.7435 H   0  0  0  0  0  0  0  0  0  0  0  0
   -2.7391   -4.6756    1.3757 H   0  0  0  0  0  0  0  0  0  0  0  0
   -3.1156   -3.0438    3.0790 H   0  0  0  0  0  0  0  0  0  0  0  0
   -1.4511   -6.4138   -1.0955 H   0  0  0  0  0  0  0  0  0  0  0  0
   -3.2113   -4.3429   -1.0557 H   0  0  0  0  0  0  0  0  0  0  0  0
   -1.1466   -1.8839   -3.2402 H   0  0  0  0  0  0  0  0  0  0  0  0
   -6.8450   -0.8750   -0.8656 H   0  0  0  0  0  0  0  0  0  0  0  0
  1  2  1  0  0  0  0
  2  3  1  0  0  0  0
  3  4  2  0  0  0  0
  4  5  1  0  0  0  0
  5  6  2  0  0  0  0
  6  7  1  0  0  0  0
  7  8  2  0  0  0  0
  3  8  1  0  0  0  0
  6  9  1  0  0  0  0
  9 10  2  0  0  0  0
 10 11  1  0  0  0  0
 11 12  2  0  0  0  0
 11 13  1  0  0  0  0
 13 14  2  0  0  0  0
 14 15  1  0  0  0  0
  9 15  1  0  0  0  0
 14 16  1  0  0  0  0
 16 17  2  0  0  0  0
 17 18  1  0  0  0  0
 18 19  2  0  0  0  0
 13 19  1  0  0  0  0
 19 20  1  0  0  0  0
 18 21  1  0  0  0  0
 21 22  1  0  0  0  0
 22 23  1  0  0  0  0
 23 24  1  0  0  0  0
 24 25  1  0  0  0  0
 25 26  1  0  0  0  0
 21 26  1  0  0  0  0
 25 27  1  0  0  0  0
 27 28  1  0  0  0  0
 24 29  1  0  0  0  0
 23 30  1  0  0  0  0
 22 31  1  0  0  0  0
 17 32  1  0  0  0  0
 16 33  1  0  0  0  0
 33 34  1  0  0  0  0
 34 35  1  0  0  0  0
 35 36  1  0  0  0  0
 36 37  1  0  0  0  0
 37 38  1  0  0  0  0
 33 38  1  0  0  0  0
 37 39  1  0  0  0  0
 39 40  1  0  0  0  0
 36 41  1  0  0  0  0
 35 42  1  0  0  0  0
 34 43  1  0  0  0  0
  4 44  1  0  0  0  0
  1 45  1  0  0  0  0
  1 46  1  0  0  0  0
  1 47  1  0  0  0  0
  5 48  1  0  0  0  0
  7 49  1  0  0  0  0
  8 50  1  0  0  0  0
 10 51  1  0  0  0  0
 20 52  1  0  0  0  0
 21 53  1  0  0  0  0
 22 54  1  0  0  0  0
 23 55  1  0  0  0  0
 24 56  1  0  0  0  0
 25 57  1  0  0  0  0
 27 58  1  0  0  0  0
 27 59  1  0  0  0  0
 28 60  1  0  0  0  0
 29 61  1  0  0  0  0
 30 62  1  0  0  0  0
 31 63  1  0  0  0  0
 32 64  1  0  0  0  0
 33 65  1  0  0  0  0
 34 66  1  0  0  0  0
 35 67  1  0  0  0  0
 36 68  1  0  0  0  0
 37 69  1  0  0  0  0
 39 70  1  0  0  0  0
 39 71  1  0  0  0  0
 40 72  1  0  0  0  0
 41 73  1  0  0  0  0
 42 74  1  0  0  0  0
 43 75  1  0  0  0  0
 44 76  1  0  0  0  0
M  END
$$$$
