C29H34O17
APtclcactv06291802593D 0   0.00000     0.00000
 
 80 84  0  0  0  0  0  0  0  0999 V2000
    5.7549    1.8107    1.1810 C   0  0  0  0  0  0  0  0  0  0  0  0
    4.5943    2.3239    2.0358 C   0  0  0  0  0  0  0  0  0  0  0  0
    4.1368    3.6870    1.5101 C   0  0  0  0  0  0  0  0  0  0  0  0
    3.6224    3.5261    0.0763 C   0  0  0  0  0  0  0  0  0  0  0  0
    2.4945    2.4897    0.0635 C   0  0  0  0  0  0  0  0  0  0  0  0
    3.0155    1.1729    0.6450 C   0  0  0  0  0  0  0  0  0  0  0  0
    3.5070    1.3991    1.9676 O   0  0  0  0  0  0  0  0  0  0  0  0
    1.9534    0.2178    0.6882 O   0  0  0  0  0  0  0  0  0  0  0  0
    2.3681   -1.0958    1.0685 C   0  0  0  0  0  0  0  0  0  0  0  0
    1.1703   -2.0459    1.0092 C   0  0  0  0  0  0  0  0  0  0  0  0
    1.6310   -3.4691    1.3349 C   0  0  0  0  0  0  0  0  0  0  0  0
    0.4172   -4.4034    1.3327 C   0  0  0  0  0  0  0  0  0  0  0  0
   -0.6160   -3.8827    2.3366 C   0  0  0  0  0  0  0  0  0  0  0  0
   -0.9898   -2.4436    1.9722 C   0  0  0  0  0  0  0  0  0  0  0  0
    0.1882   -1.6347    1.9623 O   0  0  0  0  0  0  0  0  0  0  0  0
   -1.5940   -2.4214    0.6774 O   0  0  0  0  0  0  0  0  0  0  0  0
   -2.1143   -1.2357    0.2586 C   0  0  0  0  0  0  0  0  0  0  0  0
   -1.6761   -0.6636   -0.8980 C   0  0  0  0  0  0  0  0  0  0  0  0
   -2.1593    0.5053   -1.3521 O   0  0  0  0  0  0  0  0  0  0  0  0
   -3.1142    1.1962   -0.6933 C   0  0  0  0  0  0  0  0  0  0  0  0
   -3.6358    0.6938    0.5116 C   0  0  0  0  0  0  0  0  0  0  0  0
   -3.1216   -0.5883    1.0197 C   0  0  0  0  0  0  0  0  0  0  0  0
   -3.5389   -1.0712    2.0602 O   0  0  0  0  0  0  0  0  0  0  0  0
   -4.6261    1.4043    1.2021 C   0  0  0  0  0  0  0  0  0  0  0  0
   -5.0874    2.6028    0.6913 C   0  0  0  0  0  0  0  0  0  0  0  0
   -4.5719    3.1003   -0.5005 C   0  0  0  0  0  0  0  0  0  0  0  0
   -3.5904    2.4028   -1.1921 C   0  0  0  0  0  0  0  0  0  0  0  0
   -3.0938    2.9014   -2.3579 O   0  0  0  0  0  0  0  0  0  0  0  0
   -1.9567    3.7616   -2.2633 C   0  0  0  0  0  0  0  0  0  0  0  0
   -5.0331    4.2795   -0.9930 O   0  0  0  0  0  0  0  0  0  0  0  0
   -5.1299    0.9183    2.3658 O   0  0  0  0  0  0  0  0  0  0  0  0
   -0.6327   -1.3524   -1.6799 C   0  0  0  0  0  0  0  0  0  0  0  0
    0.4836   -0.6449   -2.1348 C   0  0  0  0  0  0  0  0  0  0  0  0
    1.4583   -1.2953   -2.8671 C   0  0  0  0  0  0  0  0  0  0  0  0
    1.3271   -2.6535   -3.1507 C   0  0  0  0  0  0  0  0  0  0  0  0
    0.2185   -3.3562   -2.6995 C   0  0  0  0  0  0  0  0  0  0  0  0
   -0.7548   -2.7157   -1.9631 C   0  0  0  0  0  0  0  0  0  0  0  0
    2.2866   -3.2913   -3.8710 O   0  0  0  0  0  0  0  0  0  0  0  0
    2.5455   -0.6099   -3.3117 O   0  0  0  0  0  0  0  0  0  0  0  0
    2.6683    0.7519   -2.8964 C   0  0  0  0  0  0  0  0  0  0  0  0
   -1.7834   -4.7056    2.2906 O   0  0  0  0  0  0  0  0  0  0  0  0
   -0.1598   -4.4344    0.0257 O   0  0  0  0  0  0  0  0  0  0  0  0
    2.5703   -3.9042    0.3498 O   0  0  0  0  0  0  0  0  0  0  0  0
    1.4026    2.9624    0.8549 O   0  0  0  0  0  0  0  0  0  0  0  0
    3.1252    4.7796   -0.3967 O   0  0  0  0  0  0  0  0  0  0  0  0
    3.0884    4.1914    2.3398 O   0  0  0  0  0  0  0  0  0  0  0  0
    6.5838    2.5167    1.2322 H   0  0  0  0  0  0  0  0  0  0  0  0
    6.0805    0.8402    1.5554 H   0  0  0  0  0  0  0  0  0  0  0  0
    5.4271    1.7097    0.1463 H   0  0  0  0  0  0  0  0  0  0  0  0
    4.9218    2.4246    3.0705 H   0  0  0  0  0  0  0  0  0  0  0  0
    4.9766    4.3818    1.5200 H   0  0  0  0  0  0  0  0  0  0  0  0
    4.4351    3.1886   -0.5670 H   0  0  0  0  0  0  0  0  0  0  0  0
    2.1598    2.3283   -0.9612 H   0  0  0  0  0  0  0  0  0  0  0  0
    3.8216    0.7922    0.0178 H   0  0  0  0  0  0  0  0  0  0  0  0
    3.1426   -1.4444    0.3853 H   0  0  0  0  0  0  0  0  0  0  0  0
    2.7633   -1.0722    2.0841 H   0  0  0  0  0  0  0  0  0  0  0  0
    0.7380   -2.0238    0.0089 H   0  0  0  0  0  0  0  0  0  0  0  0
    2.1002   -3.4839    2.3186 H   0  0  0  0  0  0  0  0  0  0  0  0
    0.7295   -5.4077    1.6187 H   0  0  0  0  0  0  0  0  0  0  0  0
   -0.1921   -3.9059    3.3405 H   0  0  0  0  0  0  0  0  0  0  0  0
   -1.6927   -2.0531    2.7082 H   0  0  0  0  0  0  0  0  0  0  0  0
   -5.8511    3.1546    1.2193 H   0  0  0  0  0  0  0  0  0  0  0  0
   -2.2085    4.6314   -1.6565 H   0  0  0  0  0  0  0  0  0  0  0  0
   -1.1306    3.2223   -1.8000 H   0  0  0  0  0  0  0  0  0  0  0  0
   -1.6636    4.0875   -3.2614 H   0  0  0  0  0  0  0  0  0  0  0  0
   -4.5419    5.0534   -0.6849 H   0  0  0  0  0  0  0  0  0  0  0  0
   -4.6513    1.2098    3.1538 H   0  0  0  0  0  0  0  0  0  0  0  0
    0.5840    0.4076   -1.9147 H   0  0  0  0  0  0  0  0  0  0  0  0
    0.1206   -4.4085   -2.9218 H   0  0  0  0  0  0  0  0  0  0  0  0
   -1.6165   -3.2649   -1.6133 H   0  0  0  0  0  0  0  0  0  0  0  0
    2.9936   -3.6732   -3.3330 H   0  0  0  0  0  0  0  0  0  0  0  0
    1.7648    1.2976   -3.1684 H   0  0  0  0  0  0  0  0  0  0  0  0
    2.8051    0.7913   -1.8157 H   0  0  0  0  0  0  0  0  0  0  0  0
    3.5287    1.2056   -3.3883 H   0  0  0  0  0  0  0  0  0  0  0  0
   -2.4810   -4.4331    2.9024 H   0  0  0  0  0  0  0  0  0  0  0  0
   -0.9348   -5.0079   -0.0487 H   0  0  0  0  0  0  0  0  0  0  0  0
    2.9050   -4.7999    0.4940 H   0  0  0  0  0  0  0  0  0  0  0  0
    0.6513    2.3547    0.8914 H   0  0  0  0  0  0  0  0  0  0  0  0
    2.7826    4.7511   -1.3005 H   0  0  0  0  0  0  0  0  0  0  0  0
    3.3430    4.3136    3.2647 H   0  0  0  0  0  0  0  0  0  0  0  0
  1  2  1  0  0  0  0
  2  3  1  0  0  0  0
  3  4  1  0  0  0  0
  4  5  1  0  0  0  0
  5  6  1  0  0  0  0
  6  7  1  0  0  0  0
  2  7  1  0  0  0  0
  6  8  1  0  0  0  0
  8  9  1  0  0  0  0
  9 10  1  0  0  0  0
 10 11  1  0  0  0  0
 11 12  1  0  0  0  0
 12 13  1  0  0  0  0
 13 14  1  0  0  0  0
 14 15  1  0  0  0  0
 10 15  1  0  0  0  0
 14 16  1  0  0  0  0
 16 17  1  0  0  0  0
 17 18  2  0  0  0  0
 18 19  1  0  0  0  0
 19 20  1  0  0  0  0
 20 21  2  0  0  0  0
 21 22  1  0  0  0  0
 17 22  1  0  0  0  0
 22 23  2  0  0  0  0
 21 24  1  0  0  0  0
 24 25  2  0  0  0  0
 25 26  1  0  0  0  0
 26 27  2  0  0  0  0
 20 27  1  0  0  0  0
 27 28  1  0  0  0  0
 28 29  1  0  0  0  0
 26 30  1  0  0  0  0
 24 31  1  0  0  0  0
 18 32  1  0  0  0  0
 32 33  2  0  0  0  0
 33 34  1  0  0  0  0
 34 35  2  0  0  0  0
 35 36  1  0  0  0  0
 36 37  2  0  0  0  0
 32 37  1  0  0  0  0
 35 38  1  0  0  0  0
 34 39  1  0  0  0  0
 39 40  1  0  0  0  0
 13 41  1  0  0  0  0
 12 42  1  0  0  0  0
 11 43  1  0  0  0  0
  5 44  1  0  0  0  0
  4 45  1  0  0  0  0
  3 46  1  0  0  0  0
  1 47  1  0  0  0  0
  1 48  1  0  0  0  0
  1 49  1  0  0  0  0
  2 50  1  0  0  0  0
  3 51  1  0  0  0  0
  4 52  1  0  0  0  0
  5 53  1  0  0  0  0
  6 54  1  0  0  0  0
  9 55  1  0  0  0  0
  9 56  1  0  0  0  0
 10 57  1  0  0  0  0
 11 58  1  0  0  0  0
 12 59  1  0  0  0  0
 13 60  1  0  0  0  0
 14 61  1  0  0  0  0
 25 62  1  0  0  0  0
 29 63  1  0  0  0  0
 29 64  1  0  0  0  0
 29 65  1  0  0  0  0
 30 66  1  0  0  0  0
 31 67  1  0  0  0  0
 33 68  1  0  0  0  0
 36 69  1  0  0  0  0
 37 70  1  0  0  0  0
 38 71  1  0  0  0  0
 40 72  1  0  0  0  0
 40 73  1  0  0  0  0
 40 74  1  0  0  0  0
 41 75  1  0  0  0  0
 42 76  1  0  0  0  0
 43 77  1  0  0  0  0
 44 78  1  0  0  0  0
 45 79  1  0  0  0  0
 46 80  1  0  0  0  0
M  END
$$$$
