C28H32O16
APtclcactv06291802583D 0   0.00000     0.00000
 
 76 80  0  0  0  0  0  0  0  0999 V2000
   -6.2757    2.6596    0.8984 C   0  0  0  0  0  0  0  0  0  0  0  0
   -7.2890    1.6900    0.6243 O   0  0  0  0  0  0  0  0  0  0  0  0
   -6.8732    0.4310    0.3220 C   0  0  0  0  0  0  0  0  0  0  0  0
   -7.8089   -0.5640    0.0439 C   0  0  0  0  0  0  0  0  0  0  0  0
   -7.3882   -1.8503   -0.2651 C   0  0  0  0  0  0  0  0  0  0  0  0
   -6.0433   -2.1494   -0.2988 C   0  0  0  0  0  0  0  0  0  0  0  0
   -5.0996   -1.1567   -0.0214 C   0  0  0  0  0  0  0  0  0  0  0  0
   -5.5232    0.1396    0.2849 C   0  0  0  0  0  0  0  0  0  0  0  0
   -3.6597   -1.4750   -0.0564 C   0  0  0  0  0  0  0  0  0  0  0  0
   -3.2776   -2.7442   -0.3618 C   0  0  0  0  0  0  0  0  0  0  0  0
   -1.9007   -3.0682   -0.4002 C   0  0  0  0  0  0  0  0  0  0  0  0
   -1.5221   -4.1964   -0.6708 O   0  0  0  0  0  0  0  0  0  0  0  0
   -0.9423   -1.9907   -0.1013 C   0  0  0  0  0  0  0  0  0  0  0  0
    0.4388   -2.2208   -0.1172 C   0  0  0  0  0  0  0  0  0  0  0  0
    1.3057   -1.1818    0.1682 C   0  0  0  0  0  0  0  0  0  0  0  0
    0.8075    0.0810    0.4685 C   0  0  0  0  0  0  0  0  0  0  0  0
   -0.5589    0.3157    0.4865 C   0  0  0  0  0  0  0  0  0  0  0  0
   -1.4433   -0.7128    0.2026 C   0  0  0  0  0  0  0  0  0  0  0  0
   -2.7763   -0.4996    0.2091 O   0  0  0  0  0  0  0  0  0  0  0  0
    1.6673    1.0939    0.7472 O   0  0  0  0  0  0  0  0  0  0  0  0
    1.0935    2.3677    1.0479 C   0  0  0  0  0  0  0  0  0  0  0  0
    2.2009    3.3434    1.4545 C   0  0  0  0  0  0  0  0  0  0  0  0
    3.1616    3.5327    0.2766 C   0  0  0  0  0  0  0  0  0  0  0  0
    2.3705    4.0251   -0.9392 C   0  0  0  0  0  0  0  0  0  0  0  0
    1.2565    3.0231   -1.2533 C   0  0  0  0  0  0  0  0  0  0  0  0
    0.4177    2.8704   -0.1065 O   0  0  0  0  0  0  0  0  0  0  0  0
    0.4242    3.5377   -2.4294 C   0  0  0  0  0  0  0  0  0  0  0  0
   -0.5414    2.5506   -2.7976 O   0  0  0  0  0  0  0  0  0  0  0  0
    1.7971    5.3018   -0.6506 O   0  0  0  0  0  0  0  0  0  0  0  0
    4.1571    4.4980    0.6220 O   0  0  0  0  0  0  0  0  0  0  0  0
    1.6230    4.6020    1.8065 O   0  0  0  0  0  0  0  0  0  0  0  0
    2.7938   -1.4191    0.1543 C   0  0  0  0  0  0  0  0  0  0  0  0
    3.1990   -2.1943    1.4107 C   0  0  0  0  0  0  0  0  0  0  0  0
    4.7023   -2.4838    1.3599 C   0  0  0  0  0  0  0  0  0  0  0  0
    5.0197   -3.2536    0.0743 C   0  0  0  0  0  0  0  0  0  0  0  0
    4.5442   -2.4375   -1.1305 C   0  0  0  0  0  0  0  0  0  0  0  0
    3.1447   -2.1769   -1.0053 O   0  0  0  0  0  0  0  0  0  0  0  0
    5.3073   -1.1124   -1.1824 C   0  0  0  0  0  0  0  0  0  0  0  0
    4.9764   -0.4191   -2.3874 O   0  0  0  0  0  0  0  0  0  0  0  0
    6.4297   -3.4661   -0.0194 O   0  0  0  0  0  0  0  0  0  0  0  0
    5.4270   -1.2522    1.3709 O   0  0  0  0  0  0  0  0  0  0  0  0
    2.9019   -1.4135    2.5701 O   0  0  0  0  0  0  0  0  0  0  0  0
    0.9230   -3.4543   -0.4101 O   0  0  0  0  0  0  0  0  0  0  0  0
   -9.1358   -0.2744    0.0757 O   0  0  0  0  0  0  0  0  0  0  0  0
   -5.6828    2.3338    1.7531 H   0  0  0  0  0  0  0  0  0  0  0  0
   -5.6293    2.7659    0.0272 H   0  0  0  0  0  0  0  0  0  0  0  0
   -6.7420    3.6186    1.1241 H   0  0  0  0  0  0  0  0  0  0  0  0
   -8.1165   -2.6185   -0.4793 H   0  0  0  0  0  0  0  0  0  0  0  0
   -5.7187   -3.1511   -0.5391 H   0  0  0  0  0  0  0  0  0  0  0  0
   -4.7972    0.9098    0.4995 H   0  0  0  0  0  0  0  0  0  0  0  0
   -4.0200   -3.4995   -0.5731 H   0  0  0  0  0  0  0  0  0  0  0  0
   -0.9343    1.3008    0.7214 H   0  0  0  0  0  0  0  0  0  0  0  0
    0.3831    2.2619    1.8679 H   0  0  0  0  0  0  0  0  0  0  0  0
    2.7461    2.9404    2.3080 H   0  0  0  0  0  0  0  0  0  0  0  0
    3.6400    2.5824    0.0398 H   0  0  0  0  0  0  0  0  0  0  0  0
    3.0370    4.1098   -1.7975 H   0  0  0  0  0  0  0  0  0  0  0  0
    1.6963    2.0601   -1.5128 H   0  0  0  0  0  0  0  0  0  0  0  0
   -0.0871    4.4554   -2.1388 H   0  0  0  0  0  0  0  0  0  0  0  0
    1.0789    3.7394   -3.2772 H   0  0  0  0  0  0  0  0  0  0  0  0
   -1.1058    2.8098   -3.5387 H   0  0  0  0  0  0  0  0  0  0  0  0
    2.4467    5.9857   -0.4374 H   0  0  0  0  0  0  0  0  0  0  0  0
    4.6923    4.2536    1.3895 H   0  0  0  0  0  0  0  0  0  0  0  0
    0.9991    4.5559    2.5438 H   0  0  0  0  0  0  0  0  0  0  0  0
    3.3144   -0.4616    0.1342 H   0  0  0  0  0  0  0  0  0  0  0  0
    2.6483   -3.1340    1.4523 H   0  0  0  0  0  0  0  0  0  0  0  0
    4.9875   -3.0839    2.2241 H   0  0  0  0  0  0  0  0  0  0  0  0
    4.5058   -4.2147    0.0889 H   0  0  0  0  0  0  0  0  0  0  0  0
    4.7288   -2.9995   -2.0460 H   0  0  0  0  0  0  0  0  0  0  0  0
    5.0314   -0.5004   -0.3237 H   0  0  0  0  0  0  0  0  0  0  0  0
    6.3791   -1.3092   -1.1591 H   0  0  0  0  0  0  0  0  0  0  0  0
    5.4250    0.4318   -2.4874 H   0  0  0  0  0  0  0  0  0  0  0  0
    6.8007   -3.9735    0.7155 H   0  0  0  0  0  0  0  0  0  0  0  0
    6.3874   -1.3607    1.3405 H   0  0  0  0  0  0  0  0  0  0  0  0
    3.1334   -1.8444    3.4043 H   0  0  0  0  0  0  0  0  0  0  0  0
    1.0890   -3.5983   -1.3518 H   0  0  0  0  0  0  0  0  0  0  0  0
   -9.4936    0.0241   -0.7716 H   0  0  0  0  0  0  0  0  0  0  0  0
  1  2  1  0  0  0  0
  2  3  1  0  0  0  0
  3  4  2  0  0  0  0
  4  5  1  0  0  0  0
  5  6  2  0  0  0  0
  6  7  1  0  0  0  0
  7  8  2  0  0  0  0
  3  8  1  0  0  0  0
  7  9  1  0  0  0  0
  9 10  2  0  0  0  0
 10 11  1  0  0  0  0
 11 12  2  0  0  0  0
 11 13  1  0  0  0  0
 13 14  2  0  0  0  0
 14 15  1  0  0  0  0
 15 16  2  0  0  0  0
 16 17  1  0  0  0  0
 17 18  2  0  0  0  0
 13 18  1  0  0  0  0
 18 19  1  0  0  0  0
  9 19  1  0  0  0  0
 16 20  1  0  0  0  0
 20 21  1  0  0  0  0
 21 22  1  0  0  0  0
 22 23  1  0  0  0  0
 23 24  1  0  0  0  0
 24 25  1  0  0  0  0
 25 26  1  0  0  0  0
 21 26  1  0  0  0  0
 25 27  1  0  0  0  0
 27 28  1  0  0  0  0
 24 29  1  0  0  0  0
 23 30  1  0  0  0  0
 22 31  1  0  0  0  0
 15 32  1  0  0  0  0
 32 33  1  0  0  0  0
 33 34  1  0  0  0  0
 34 35  1  0  0  0  0
 35 36  1  0  0  0  0
 36 37  1  0  0  0  0
 32 37  1  0  0  0  0
 36 38  1  0  0  0  0
 38 39  1  0  0  0  0
 35 40  1  0  0  0  0
 34 41  1  0  0  0  0
 33 42  1  0  0  0  0
 14 43  1  0  0  0  0
  4 44  1  0  0  0  0
  1 45  1  0  0  0  0
  1 46  1  0  0  0  0
  1 47  1  0  0  0  0
  5 48  1  0  0  0  0
  6 49  1  0  0  0  0
  8 50  1  0  0  0  0
 10 51  1  0  0  0  0
 17 52  1  0  0  0  0
 21 53  1  0  0  0  0
 22 54  1  0  0  0  0
 23 55  1  0  0  0  0
 24 56  1  0  0  0  0
 25 57  1  0  0  0  0
 27 58  1  0  0  0  0
 27 59  1  0  0  0  0
 28 60  1  0  0  0  0
 29 61  1  0  0  0  0
 30 62  1  0  0  0  0
 31 63  1  0  0  0  0
 32 64  1  0  0  0  0
 33 65  1  0  0  0  0
 34 66  1  0  0  0  0
 35 67  1  0  0  0  0
 36 68  1  0  0  0  0
 38 69  1  0  0  0  0
 38 70  1  0  0  0  0
 39 71  1  0  0  0  0
 40 72  1  0  0  0  0
 41 73  1  0  0  0  0
 42 74  1  0  0  0  0
 43 75  1  0  0  0  0
 44 76  1  0  0  0  0
M  END
$$$$
