C28H30O14
APtclcactv06291802583D 0   0.00000     0.00000
 
 72 76  0  0  0  0  0  0  0  0999 V2000
   -3.7646    2.3227    3.1036 C   0  0  0  0  0  0  0  0  0  0  0  0
   -4.7542    2.3398    1.9368 C   0  0  0  0  0  0  0  0  0  0  0  0
   -4.6324    3.6669    1.1835 C   0  0  0  0  0  0  0  0  0  0  0  0
   -3.2218    3.7853    0.5983 C   0  0  0  0  0  0  0  0  0  0  0  0
   -2.9524    2.5775   -0.3045 C   0  0  0  0  0  0  0  0  0  0  0  0
   -3.1391    1.2925    0.5064 C   0  0  0  0  0  0  0  0  0  0  0  0
   -4.4613    1.2602    1.0476 O   0  0  0  0  0  0  0  0  0  0  0  0
   -2.9443    0.1602   -0.3434 O   0  0  0  0  0  0  0  0  0  0  0  0
   -2.9851   -1.0938    0.3406 C   0  0  0  0  0  0  0  0  0  0  0  0
   -4.4260   -1.6206    0.3611 C   0  0  0  0  0  0  0  0  0  0  0  0
   -4.8123   -1.9800   -1.0590 C   0  0  0  0  0  0  0  0  0  0  0  0
   -5.8561   -1.6038   -1.5359 O   0  0  0  0  0  0  0  0  0  0  0  0
   -3.8460   -2.8259   -1.8605 C   0  0  0  0  0  0  0  0  0  0  0  0
   -2.5384   -2.2563   -1.7370 O   0  0  0  0  0  0  0  0  0  0  0  0
   -2.0948   -2.1036   -0.3878 C   0  0  0  0  0  0  0  0  0  0  0  0
   -0.6704   -1.6115   -0.3816 C   0  0  0  0  0  0  0  0  0  0  0  0
   -0.2900   -0.5782   -1.2304 C   0  0  0  0  0  0  0  0  0  0  0  0
    1.0166   -0.1140   -1.2373 C   0  0  0  0  0  0  0  0  0  0  0  0
    1.9584   -0.6803   -0.3930 C   0  0  0  0  0  0  0  0  0  0  0  0
    1.5764   -1.7250    0.4665 C   0  0  0  0  0  0  0  0  0  0  0  0
    0.2539   -2.1850    0.4724 C   0  0  0  0  0  0  0  0  0  0  0  0
   -0.1157   -3.1931    1.3024 O   0  0  0  0  0  0  0  0  0  0  0  0
    2.5940   -2.3117    1.3549 C   0  0  0  0  0  0  0  0  0  0  0  0
    2.3186   -3.2208    2.1212 O   0  0  0  0  0  0  0  0  0  0  0  0
    3.9037   -1.7805    1.2850 C   0  0  0  0  0  0  0  0  0  0  0  0
    4.1711   -0.7674    0.4175 C   0  0  0  0  0  0  0  0  0  0  0  0
    3.2348   -0.2409   -0.3878 O   0  0  0  0  0  0  0  0  0  0  0  0
    5.5423   -0.2267    0.3595 C   0  0  0  0  0  0  0  0  0  0  0  0
    5.8480    0.8142   -0.5216 C   0  0  0  0  0  0  0  0  0  0  0  0
    7.1338    1.3170   -0.5721 C   0  0  0  0  0  0  0  0  0  0  0  0
    8.1227    0.7862    0.2545 C   0  0  0  0  0  0  0  0  0  0  0  0
    7.8192   -0.2476    1.1297 C   0  0  0  0  0  0  0  0  0  0  0  0
    6.5373   -0.7502    1.1895 C   0  0  0  0  0  0  0  0  0  0  0  0
    9.3866    1.2816    0.2033 O   0  0  0  0  0  0  0  0  0  0  0  0
    7.4349    2.3296   -1.4286 O   0  0  0  0  0  0  0  0  0  0  0  0
    6.3729    2.8249   -2.2465 C   0  0  0  0  0  0  0  0  0  0  0  0
   -1.2065   -0.0185   -2.0608 O   0  0  0  0  0  0  0  0  0  0  0  0
   -3.8388   -4.2558   -1.3162 C   0  0  0  0  0  0  0  0  0  0  0  0
   -4.5045   -2.7810    1.1915 O   0  0  0  0  0  0  0  0  0  0  0  0
   -3.8683    2.5874   -1.4013 O   0  0  0  0  0  0  0  0  0  0  0  0
   -3.1216    4.9870   -0.1685 O   0  0  0  0  0  0  0  0  0  0  0  0
   -5.5929    3.7057    0.1260 O   0  0  0  0  0  0  0  0  0  0  0  0
   -3.9876    3.1469    3.7812 H   0  0  0  0  0  0  0  0  0  0  0  0
   -3.8515    1.3778    3.6399 H   0  0  0  0  0  0  0  0  0  0  0  0
   -2.7498    2.4314    2.7209 H   0  0  0  0  0  0  0  0  0  0  0  0
   -5.7691    2.2308    2.3193 H   0  0  0  0  0  0  0  0  0  0  0  0
   -4.8123    4.4937    1.8706 H   0  0  0  0  0  0  0  0  0  0  0  0
   -2.4918    3.8057    1.4075 H   0  0  0  0  0  0  0  0  0  0  0  0
   -1.9308    2.6252   -0.6815 H   0  0  0  0  0  0  0  0  0  0  0  0
   -2.4130    1.2666    1.3189 H   0  0  0  0  0  0  0  0  0  0  0  0
   -2.6299   -0.9633    1.3628 H   0  0  0  0  0  0  0  0  0  0  0  0
   -5.0953   -0.8488    0.7411 H   0  0  0  0  0  0  0  0  0  0  0  0
   -4.1461   -2.8329   -2.9084 H   0  0  0  0  0  0  0  0  0  0  0  0
   -2.1466   -3.0659    0.1216 H   0  0  0  0  0  0  0  0  0  0  0  0
    1.3006    0.6890   -1.9013 H   0  0  0  0  0  0  0  0  0  0  0  0
   -0.4250   -2.8958    2.1690 H   0  0  0  0  0  0  0  0  0  0  0  0
    4.6854   -2.1764    1.9162 H   0  0  0  0  0  0  0  0  0  0  0  0
    5.0810    1.2244   -1.1618 H   0  0  0  0  0  0  0  0  0  0  0  0
    8.5883   -0.6560    1.7684 H   0  0  0  0  0  0  0  0  0  0  0  0
    6.3038   -1.5543    1.8715 H   0  0  0  0  0  0  0  0  0  0  0  0
    9.5468    2.0147    0.8132 H   0  0  0  0  0  0  0  0  0  0  0  0
    6.7473    3.6280   -2.8811 H   0  0  0  0  0  0  0  0  0  0  0  0
    5.9882    2.0181   -2.8704 H   0  0  0  0  0  0  0  0  0  0  0  0
    5.5730    3.2062   -1.6117 H   0  0  0  0  0  0  0  0  0  0  0  0
   -1.6784    0.7330   -1.6765 H   0  0  0  0  0  0  0  0  0  0  0  0
   -4.8402   -4.6792   -1.3940 H   0  0  0  0  0  0  0  0  0  0  0  0
   -3.1422   -4.8617   -1.8957 H   0  0  0  0  0  0  0  0  0  0  0  0
   -3.5290   -4.2453   -0.2713 H   0  0  0  0  0  0  0  0  0  0  0  0
   -5.3902   -3.1649    1.2482 H   0  0  0  0  0  0  0  0  0  0  0  0
   -3.7549    1.8489   -2.0152 H   0  0  0  0  0  0  0  0  0  0  0  0
   -2.2527    5.1265   -0.5693 H   0  0  0  0  0  0  0  0  0  0  0  0
   -6.5096    3.6306    0.4244 H   0  0  0  0  0  0  0  0  0  0  0  0
  1  2  1  0  0  0  0
  2  3  1  0  0  0  0
  3  4  1  0  0  0  0
  4  5  1  0  0  0  0
  5  6  1  0  0  0  0
  6  7  1  0  0  0  0
  2  7  1  0  0  0  0
  6  8  1  0  0  0  0
  8  9  1  0  0  0  0
  9 10  1  0  0  0  0
 10 11  1  0  0  0  0
 11 12  2  0  0  0  0
 11 13  1  0  0  0  0
 13 14  1  0  0  0  0
 14 15  1  0  0  0  0
  9 15  1  0  0  0  0
 15 16  1  0  0  0  0
 16 17  2  0  0  0  0
 17 18  1  0  0  0  0
 18 19  2  0  0  0  0
 19 20  1  0  0  0  0
 20 21  2  0  0  0  0
 16 21  1  0  0  0  0
 21 22  1  0  0  0  0
 20 23  1  0  0  0  0
 23 24  2  0  0  0  0
 23 25  1  0  0  0  0
 25 26  2  0  0  0  0
 26 27  1  0  0  0  0
 19 27  1  0  0  0  0
 26 28  1  0  0  0  0
 28 29  2  0  0  0  0
 29 30  1  0  0  0  0
 30 31  2  0  0  0  0
 31 32  1  0  0  0  0
 32 33  2  0  0  0  0
 28 33  1  0  0  0  0
 31 34  1  0  0  0  0
 30 35  1  0  0  0  0
 35 36  1  0  0  0  0
 17 37  1  0  0  0  0
 13 38  1  0  0  0  0
 10 39  1  0  0  0  0
  5 40  1  0  0  0  0
  4 41  1  0  0  0  0
  3 42  1  0  0  0  0
  1 43  1  0  0  0  0
  1 44  1  0  0  0  0
  1 45  1  0  0  0  0
  2 46  1  0  0  0  0
  3 47  1  0  0  0  0
  4 48  1  0  0  0  0
  5 49  1  0  0  0  0
  6 50  1  0  0  0  0
  9 51  1  0  0  0  0
 10 52  1  0  0  0  0
 13 53  1  0  0  0  0
 15 54  1  0  0  0  0
 18 55  1  0  0  0  0
 22 56  1  0  0  0  0
 25 57  1  0  0  0  0
 29 58  1  0  0  0  0
 32 59  1  0  0  0  0
 33 60  1  0  0  0  0
 34 61  1  0  0  0  0
 36 62  1  0  0  0  0
 36 63  1  0  0  0  0
 36 64  1  0  0  0  0
 37 65  1  0  0  0  0
 38 66  1  0  0  0  0
 38 67  1  0  0  0  0
 38 68  1  0  0  0  0
 39 69  1  0  0  0  0
 40 70  1  0  0  0  0
 41 71  1  0  0  0  0
 42 72  1  0  0  0  0
M  END
$$$$
