C20H18O10
APtclcactv06291802583D 0   0.00000     0.00000
 
 48 51  0  0  0  0  0  0  0  0999 V2000
   -5.4464   -0.9887   -0.7405 C   0  0  0  0  0  0  0  0  0  0  0  0
   -6.5505    0.0574   -0.5662 C   0  0  0  0  0  0  0  0  0  0  0  0
   -6.3276    0.8092    0.7497 C   0  0  0  0  0  0  0  0  0  0  0  0
   -4.9299    1.4357    0.7366 C   0  0  0  0  0  0  0  0  0  0  0  0
   -3.8884    0.3364    0.5119 C   0  0  0  0  0  0  0  0  0  0  0  0
   -4.1717   -0.3432   -0.7128 O   0  0  0  0  0  0  0  0  0  0  0  0
   -2.5862    0.9207    0.4425 O   0  0  0  0  0  0  0  0  0  0  0  0
   -1.5328    0.0693    0.3500 C   0  0  0  0  0  0  0  0  0  0  0  0
   -1.7566   -1.3027    0.3270 C   0  0  0  0  0  0  0  0  0  0  0  0
   -0.6908   -2.1790    0.2325 C   0  0  0  0  0  0  0  0  0  0  0  0
    0.6130   -1.6736    0.1603 C   0  0  0  0  0  0  0  0  0  0  0  0
    0.8364   -0.2859    0.1838 C   0  0  0  0  0  0  0  0  0  0  0  0
   -0.2447    0.5766    0.2736 C   0  0  0  0  0  0  0  0  0  0  0  0
    2.0973    0.1913    0.1150 O   0  0  0  0  0  0  0  0  0  0  0  0
    3.1657   -0.6164    0.0238 C   0  0  0  0  0  0  0  0  0  0  0  0
    3.0569   -1.9720   -0.0062 C   0  0  0  0  0  0  0  0  0  0  0  0
    1.7765   -2.5709    0.0594 C   0  0  0  0  0  0  0  0  0  0  0  0
    1.6418   -3.7836    0.0349 O   0  0  0  0  0  0  0  0  0  0  0  0
    4.5088   -0.0108   -0.0471 C   0  0  0  0  0  0  0  0  0  0  0  0
    4.6529    1.3791   -0.0189 C   0  0  0  0  0  0  0  0  0  0  0  0
    5.9132    1.9412   -0.0852 C   0  0  0  0  0  0  0  0  0  0  0  0
    7.0374    1.1225   -0.1803 C   0  0  0  0  0  0  0  0  0  0  0  0
    6.8944   -0.2579   -0.2083 C   0  0  0  0  0  0  0  0  0  0  0  0
    5.6407   -0.8257   -0.1368 C   0  0  0  0  0  0  0  0  0  0  0  0
    8.2758    1.6770   -0.2463 O   0  0  0  0  0  0  0  0  0  0  0  0
    6.0570    3.2932   -0.0580 O   0  0  0  0  0  0  0  0  0  0  0  0
   -0.9071   -3.5186    0.2103 O   0  0  0  0  0  0  0  0  0  0  0  0
   -4.8466    2.3954   -0.3189 O   0  0  0  0  0  0  0  0  0  0  0  0
   -7.3110    1.8370    0.8855 O   0  0  0  0  0  0  0  0  0  0  0  0
   -6.5101    0.9806   -1.6562 O   0  0  0  0  0  0  0  0  0  0  0  0
   -5.5033   -1.7158    0.0695 H   0  0  0  0  0  0  0  0  0  0  0  0
   -5.5754   -1.4976   -1.6958 H   0  0  0  0  0  0  0  0  0  0  0  0
   -7.5211   -0.4379   -0.5428 H   0  0  0  0  0  0  0  0  0  0  0  0
   -6.4075    0.1136    1.5851 H   0  0  0  0  0  0  0  0  0  0  0  0
   -4.7416    1.9262    1.6917 H   0  0  0  0  0  0  0  0  0  0  0  0
   -3.9250   -0.3734    1.3384 H   0  0  0  0  0  0  0  0  0  0  0  0
   -2.7650   -1.6852    0.3833 H   0  0  0  0  0  0  0  0  0  0  0  0
   -0.0831    1.6443    0.2923 H   0  0  0  0  0  0  0  0  0  0  0  0
    3.9416   -2.5869   -0.0808 H   0  0  0  0  0  0  0  0  0  0  0  0
    3.7810    2.0122    0.0541 H   0  0  0  0  0  0  0  0  0  0  0  0
    7.7680   -0.8886   -0.2825 H   0  0  0  0  0  0  0  0  0  0  0  0
    5.5323   -1.9000   -0.1588 H   0  0  0  0  0  0  0  0  0  0  0  0
    8.6918    1.8140    0.6159 H   0  0  0  0  0  0  0  0  0  0  0  0
    6.1555    3.6605    0.8311 H   0  0  0  0  0  0  0  0  0  0  0  0
   -1.0281   -3.8828   -0.6773 H   0  0  0  0  0  0  0  0  0  0  0  0
   -3.9867    2.8326   -0.3861 H   0  0  0  0  0  0  0  0  0  0  0  0
   -8.2215    1.5115    0.8943 H   0  0  0  0  0  0  0  0  0  0  0  0
   -6.6394    0.5716   -2.5229 H   0  0  0  0  0  0  0  0  0  0  0  0
  1  2  1  0  0  0  0
  2  3  1  0  0  0  0
  3  4  1  0  0  0  0
  4  5  1  0  0  0  0
  5  6  1  0  0  0  0
  1  6  1  0  0  0  0
  5  7  1  0  0  0  0
  7  8  1  0  0  0  0
  8  9  2  0  0  0  0
  9 10  1  0  0  0  0
 10 11  2  0  0  0  0
 11 12  1  0  0  0  0
 12 13  2  0  0  0  0
  8 13  1  0  0  0  0
 12 14  1  0  0  0  0
 14 15  1  0  0  0  0
 15 16  2  0  0  0  0
 16 17  1  0  0  0  0
 11 17  1  0  0  0  0
 17 18  2  0  0  0  0
 15 19  1  0  0  0  0
 19 20  2  0  0  0  0
 20 21  1  0  0  0  0
 21 22  2  0  0  0  0
 22 23  1  0  0  0  0
 23 24  2  0  0  0  0
 19 24  1  0  0  0  0
 22 25  1  0  0  0  0
 21 26  1  0  0  0  0
 10 27  1  0  0  0  0
  4 28  1  0  0  0  0
  3 29  1  0  0  0  0
  2 30  1  0  0  0  0
  1 31  1  0  0  0  0
  1 32  1  0  0  0  0
  2 33  1  0  0  0  0
  3 34  1  0  0  0  0
  4 35  1  0  0  0  0
  5 36  1  0  0  0  0
  9 37  1  0  0  0  0
 13 38  1  0  0  0  0
 16 39  1  0  0  0  0
 20 40  1  0  0  0  0
 23 41  1  0  0  0  0
 24 42  1  0  0  0  0
 25 43  1  0  0  0  0
 26 44  1  0  0  0  0
 27 45  1  0  0  0  0
 28 46  1  0  0  0  0
 29 47  1  0  0  0  0
 30 48  1  0  0  0  0
M  END
$$$$
