C33H41O22
APtclcactv06291802583D 0   0.00000     0.00000
 
 96101  0  0  0  0  0  0  0  0999 V2000
    4.5121    2.9892   -1.1906 C   0  0  0  0  0  0  0  0  0  0  0  0
    3.7089    2.2145   -0.3522 C   0  0  0  0  0  0  0  0  0  0  0  0
    4.2968    1.3996    0.6165 C   0  0  0  0  0  0  0  0  0  0  0  0
    5.6736    1.3612    0.7437 C   0  0  0  0  0  0  0  0  0  0  0  0
    6.4725    2.1348   -0.0930 C   0  0  0  0  0  0  0  0  0  0  0  0
    5.8885    2.9477   -1.0599 C   0  0  0  0  0  0  0  0  0  0  0  0
    6.6715    3.7030   -1.8759 O   0  0  0  0  0  0  0  0  0  0  0  0
    7.8258    2.0959    0.0340 O   0  0  0  0  0  0  0  0  0  0  0  0
    6.2469    0.5673    1.6874 O   0  0  0  0  0  0  0  0  0  0  0  0
    2.2367    2.2575   -0.4898 C   0  0  0  0  0  0  0  0  0  0  0  0
    1.5124    1.0586   -0.3614 C   0  0  0  0  0  0  0  0  0  0  0  0
    0.1417    1.1168   -0.4918 C   0  0  0  0  0  0  0  0  0  0  0  0
   -0.3907    2.3983   -0.7446 C   0  0  0  0  0  0  0  0  0  0  0  0
   -1.7740    2.6030   -0.8992 C   0  0  0  0  0  0  0  0  0  0  0  0
   -2.2476    3.8620   -1.1427 C   0  0  0  0  0  0  0  0  0  0  0  0
   -1.3701    4.9438   -1.2394 C   0  0  0  0  0  0  0  0  0  0  0  0
   -0.0112    4.7707   -1.0924 C   0  0  0  0  0  0  0  0  0  0  0  0
    0.5074    3.4913   -0.8407 C   0  0  0  0  0  0  0  0  0  0  0  0
    1.7055    3.3229   -0.7031 O   0  3  0  0  0  0  0  0  0  0  0  0
   -1.8637    6.1855   -1.4824 O   0  0  0  0  0  0  0  0  0  0  0  0
   -2.6335    1.5561   -0.8074 O   0  0  0  0  0  0  0  0  0  0  0  0
   -4.0236    1.8414   -0.9755 C   0  0  0  0  0  0  0  0  0  0  0  0
   -4.8183    0.5330   -0.9641 C   0  0  0  0  0  0  0  0  0  0  0  0
   -4.6449   -0.1488    0.3966 C   0  0  0  0  0  0  0  0  0  0  0  0
   -5.0952    0.8145    1.4991 C   0  0  0  0  0  0  0  0  0  0  0  0
   -4.2898    2.1120    1.3926 C   0  0  0  0  0  0  0  0  0  0  0  0
   -4.4710    2.6782    0.0930 O   0  0  0  0  0  0  0  0  0  0  0  0
   -4.7754    3.1025    2.4528 C   0  0  0  0  0  0  0  0  0  0  0  0
   -3.9482    4.2675    2.4307 O   0  0  0  0  0  0  0  0  0  0  0  0
   -6.4864    1.1017    1.3433 O   0  0  0  0  0  0  0  0  0  0  0  0
   -5.4419   -1.3340    0.4424 O   0  0  0  0  0  0  0  0  0  0  0  0
   -6.2021    0.8128   -1.1851 O   0  0  0  0  0  0  0  0  0  0  0  0
    2.1443   -0.1199   -0.1168 O   0  0  0  0  0  0  0  0  0  0  0  0
    1.3239   -1.2843   -0.0024 C   0  0  0  0  0  0  0  0  0  0  0  0
    2.2124   -2.5222    0.1464 C   0  0  0  0  0  0  0  0  0  0  0  0
    3.0308   -2.4017    1.4355 C   0  0  0  0  0  0  0  0  0  0  0  0
    2.0750   -2.2264    2.6196 C   0  0  0  0  0  0  0  0  0  0  0  0
    1.1919   -1.0000    2.3753 C   0  0  0  0  0  0  0  0  0  0  0  0
    0.4820   -1.1631    1.1459 O   0  0  0  0  0  0  0  0  0  0  0  0
    0.1935   -0.8529    3.5254 C   0  0  0  0  0  0  0  0  0  0  0  0
   -0.5518    0.3547    3.3576 O   0  0  0  0  0  0  0  0  0  0  0  0
    1.2536   -3.3888    2.7463 O   0  0  0  0  0  0  0  0  0  0  0  0
    3.8087   -3.5860    1.6204 O   0  0  0  0  0  0  0  0  0  0  0  0
    1.3945   -3.6924    0.2076 O   0  0  0  0  0  0  0  0  0  0  0  0
    1.1242   -4.2798   -1.0667 C   0  0  0  0  0  0  0  0  0  0  0  0
    0.3509   -5.5868   -0.8727 C   0  0  0  0  0  0  0  0  0  0  0  0
   -0.9943   -5.2811   -0.2069 C   0  0  0  0  0  0  0  0  0  0  0  0
   -1.7614   -4.2744   -1.0698 C   0  0  0  0  0  0  0  0  0  0  0  0
   -0.9066   -3.0181   -1.2562 C   0  0  0  0  0  0  0  0  0  0  0  0
    0.3420   -3.3772   -1.8513 O   0  0  0  0  0  0  0  0  0  0  0  0
   -1.6409   -2.0318   -2.1666 C   0  0  0  0  0  0  0  0  0  0  0  0
   -0.8978   -0.8139   -2.2470 O   0  0  0  0  0  0  0  0  0  0  0  0
   -2.0420   -4.8547   -2.3451 O   0  0  0  0  0  0  0  0  0  0  0  0
   -1.7538   -6.4857   -0.0885 O   0  0  0  0  0  0  0  0  0  0  0  0
    0.1263   -6.2018   -2.1429 O   0  0  0  0  0  0  0  0  0  0  0  0
    4.0595    3.6171   -1.9437 H   0  0  0  0  0  0  0  0  0  0  0  0
    3.6772    0.7996    1.2664 H   0  0  0  0  0  0  0  0  0  0  0  0
    6.9340    3.2567   -2.6926 H   0  0  0  0  0  0  0  0  0  0  0  0
    8.2527    1.4200   -0.5100 H   0  0  0  0  0  0  0  0  0  0  0  0
    6.4479   -0.3271    1.3796 H   0  0  0  0  0  0  0  0  0  0  0  0
   -0.4829    0.2399   -0.4066 H   0  0  0  0  0  0  0  0  0  0  0  0
   -3.3092    4.0212   -1.2617 H   0  0  0  0  0  0  0  0  0  0  0  0
    0.6537    5.6182   -1.1709 H   0  0  0  0  0  0  0  0  0  0  0  0
   -2.0831    6.6848   -0.6838 H   0  0  0  0  0  0  0  0  0  0  0  0
   -4.1776    2.3519   -1.9262 H   0  0  0  0  0  0  0  0  0  0  0  0
   -4.4485   -0.1247   -1.7508 H   0  0  0  0  0  0  0  0  0  0  0  0
   -3.5962   -0.4071    0.5440 H   0  0  0  0  0  0  0  0  0  0  0  0
   -4.9235    0.3582    2.4740 H   0  0  0  0  0  0  0  0  0  0  0  0
   -3.2330    1.8980    1.5517 H   0  0  0  0  0  0  0  0  0  0  0  0
   -5.8066    3.3850    2.2409 H   0  0  0  0  0  0  0  0  0  0  0  0
   -4.7211    2.6369    3.4369 H   0  0  0  0  0  0  0  0  0  0  0  0
   -4.1987    4.9401    3.0788 H   0  0  0  0  0  0  0  0  0  0  0  0
   -7.0570    0.3228    1.3950 H   0  0  0  0  0  0  0  0  0  0  0  0
   -5.2153   -1.9868   -0.2340 H   0  0  0  0  0  0  0  0  0  0  0  0
   -6.3852    1.2500   -2.0280 H   0  0  0  0  0  0  0  0  0  0  0  0
    0.7079   -1.3843   -0.8961 H   0  0  0  0  0  0  0  0  0  0  0  0
    2.8861   -2.5917   -0.7077 H   0  0  0  0  0  0  0  0  0  0  0  0
    3.6911   -1.5369    1.3688 H   0  0  0  0  0  0  0  0  0  0  0  0
    2.6505   -2.0845    3.5344 H   0  0  0  0  0  0  0  0  0  0  0  0
    1.8159   -0.1081    2.3191 H   0  0  0  0  0  0  0  0  0  0  0  0
   -0.4881   -1.7035    3.5258 H   0  0  0  0  0  0  0  0  0  0  0  0
    0.7325   -0.8186    4.4722 H   0  0  0  0  0  0  0  0  0  0  0  0
   -1.2055    0.5132    4.0523 H   0  0  0  0  0  0  0  0  0  0  0  0
    0.6227   -3.3467    3.4780 H   0  0  0  0  0  0  0  0  0  0  0  0
    4.3530   -3.5784    2.4196 H   0  0  0  0  0  0  0  0  0  0  0  0
    2.0641   -4.4861   -1.5787 H   0  0  0  0  0  0  0  0  0  0  0  0
    0.9269   -6.2600   -0.2378 H   0  0  0  0  0  0  0  0  0  0  0  0
   -0.8234   -4.8575    0.7827 H   0  0  0  0  0  0  0  0  0  0  0  0
   -2.6961   -4.0090   -0.5757 H   0  0  0  0  0  0  0  0  0  0  0  0
   -0.7269   -2.5535   -0.2867 H   0  0  0  0  0  0  0  0  0  0  0  0
   -1.7414   -2.4626   -3.1628 H   0  0  0  0  0  0  0  0  0  0  0  0
   -2.6304   -1.8274   -1.7577 H   0  0  0  0  0  0  0  0  0  0  0  0
   -1.3053   -0.1408   -2.8092 H   0  0  0  0  0  0  0  0  0  0  0  0
   -2.5770   -5.6590   -2.3022 H   0  0  0  0  0  0  0  0  0  0  0  0
   -1.3237   -7.1715    0.4405 H   0  0  0  0  0  0  0  0  0  0  0  0
    0.9368   -6.4190   -2.6235 H   0  0  0  0  0  0  0  0  0  0  0  0
  1  2  2  0  0  0  0
  2  3  1  0  0  0  0
  3  4  2  0  0  0  0
  4  5  1  0  0  0  0
  5  6  2  0  0  0  0
  1  6  1  0  0  0  0
  6  7  1  0  0  0  0
  5  8  1  0  0  0  0
  4  9  1  0  0  0  0
  2 10  1  0  0  0  0
 10 11  2  0  0  0  0
 11 12  1  0  0  0  0
 12 13  2  0  0  0  0
 13 14  1  0  0  0  0
 14 15  2  0  0  0  0
 15 16  1  0  0  0  0
 16 17  2  0  0  0  0
 17 18  1  0  0  0  0
 13 18  1  0  0  0  0
 18 19  2  0  0  0  0
 10 19  1  0  0  0  0
 16 20  1  0  0  0  0
 14 21  1  0  0  0  0
 21 22  1  0  0  0  0
 22 23  1  0  0  0  0
 23 24  1  0  0  0  0
 24 25  1  0  0  0  0
 25 26  1  0  0  0  0
 26 27  1  0  0  0  0
 22 27  1  0  0  0  0
 26 28  1  0  0  0  0
 28 29  1  0  0  0  0
 25 30  1  0  0  0  0
 24 31  1  0  0  0  0
 23 32  1  0  0  0  0
 11 33  1  0  0  0  0
 33 34  1  0  0  0  0
 34 35  1  0  0  0  0
 35 36  1  0  0  0  0
 36 37  1  0  0  0  0
 37 38  1  0  0  0  0
 38 39  1  0  0  0  0
 34 39  1  0  0  0  0
 38 40  1  0  0  0  0
 40 41  1  0  0  0  0
 37 42  1  0  0  0  0
 36 43  1  0  0  0  0
 35 44  1  0  0  0  0
 44 45  1  0  0  0  0
 45 46  1  0  0  0  0
 46 47  1  0  0  0  0
 47 48  1  0  0  0  0
 48 49  1  0  0  0  0
 49 50  1  0  0  0  0
 45 50  1  0  0  0  0
 49 51  1  0  0  0  0
 51 52  1  0  0  0  0
 48 53  1  0  0  0  0
 47 54  1  0  0  0  0
 46 55  1  0  0  0  0
  1 56  1  0  0  0  0
  3 57  1  0  0  0  0
  7 58  1  0  0  0  0
  8 59  1  0  0  0  0
  9 60  1  0  0  0  0
 12 61  1  0  0  0  0
 15 62  1  0  0  0  0
 17 63  1  0  0  0  0
 20 64  1  0  0  0  0
 22 65  1  0  0  0  0
 23 66  1  0  0  0  0
 24 67  1  0  0  0  0
 25 68  1  0  0  0  0
 26 69  1  0  0  0  0
 28 70  1  0  0  0  0
 28 71  1  0  0  0  0
 29 72  1  0  0  0  0
 30 73  1  0  0  0  0
 31 74  1  0  0  0  0
 32 75  1  0  0  0  0
 34 76  1  0  0  0  0
 35 77  1  0  0  0  0
 36 78  1  0  0  0  0
 37 79  1  0  0  0  0
 38 80  1  0  0  0  0
 40 81  1  0  0  0  0
 40 82  1  0  0  0  0
 41 83  1  0  0  0  0
 42 84  1  0  0  0  0
 43 85  1  0  0  0  0
 45 86  1  0  0  0  0
 46 87  1  0  0  0  0
 47 88  1  0  0  0  0
 48 89  1  0  0  0  0
 49 90  1  0  0  0  0
 51 91  1  0  0  0  0
 51 92  1  0  0  0  0
 52 93  1  0  0  0  0
 53 94  1  0  0  0  0
 54 95  1  0  0  0  0
 55 96  1  0  0  0  0
M  CHG  1  19   1
M  END
$$$$
