C26H29O15
APtclcactv06291802573D 0   0.00000     0.00000
 
 70 74  0  0  0  0  0  0  0  0999 V2000
    5.1646    1.9522    1.5261 C   0  0  0  0  0  0  0  0  0  0  0  0
    5.7578    0.8455    2.4019 C   0  0  0  0  0  0  0  0  0  0  0  0
    4.6211   -0.0105    2.9690 C   0  0  0  0  0  0  0  0  0  0  0  0
    3.7900   -0.5690    1.8099 C   0  0  0  0  0  0  0  0  0  0  0  0
    3.2729    0.5923    0.9569 C   0  0  0  0  0  0  0  0  0  0  0  0
    4.3788    1.3656    0.4866 O   0  0  0  0  0  0  0  0  0  0  0  0
    2.5434    0.0766   -0.1584 O   0  0  0  0  0  0  0  0  0  0  0  0
    1.9198    1.0818   -0.9600 C   0  0  0  0  0  0  0  0  0  0  0  0
    1.8345    0.5992   -2.4113 C   0  0  0  0  0  0  0  0  0  0  0  0
    1.0954    1.6505   -3.2448 C   0  0  0  0  0  0  0  0  0  0  0  0
   -0.2859    1.8972   -2.6324 C   0  0  0  0  0  0  0  0  0  0  0  0
   -0.1356    2.3137   -1.2737 O   0  0  0  0  0  0  0  0  0  0  0  0
    0.5067    1.3505   -0.4359 C   0  0  0  0  0  0  0  0  0  0  0  0
   -0.2442    0.1347   -0.4451 O   0  0  0  0  0  0  0  0  0  0  0  0
   -1.4935    0.1768    0.0890 C   0  0  0  0  0  0  0  0  0  0  0  0
   -2.3069   -0.9702    0.1242 C   0  0  0  0  0  0  0  0  0  0  0  0
   -3.4222   -0.9669    0.5919 O   0  3  0  0  0  0  0  0  0  0  0  0
   -3.9724    0.0034    1.0804 C   0  0  0  0  0  0  0  0  0  0  0  0
   -5.2726   -0.0969    1.5985 C   0  0  0  0  0  0  0  0  0  0  0  0
   -5.8798    1.0112    2.1480 C   0  0  0  0  0  0  0  0  0  0  0  0
   -5.2209    2.2411    2.1993 C   0  0  0  0  0  0  0  0  0  0  0  0
   -3.9539    2.3718    1.7027 C   0  0  0  0  0  0  0  0  0  0  0  0
   -3.3105    1.2561    1.1366 C   0  0  0  0  0  0  0  0  0  0  0  0
   -2.0015    1.3434    0.6185 C   0  0  0  0  0  0  0  0  0  0  0  0
   -3.3199    3.5710    1.7564 O   0  0  0  0  0  0  0  0  0  0  0  0
   -7.1385    0.9056    2.6468 O   0  0  0  0  0  0  0  0  0  0  0  0
   -1.7762   -2.2329   -0.4345 C   0  0  0  0  0  0  0  0  0  0  0  0
   -2.0298   -3.4443    0.2112 C   0  0  0  0  0  0  0  0  0  0  0  0
   -1.5319   -4.6217   -0.3145 C   0  0  0  0  0  0  0  0  0  0  0  0
   -0.7786   -4.5975   -1.4866 C   0  0  0  0  0  0  0  0  0  0  0  0
   -0.5269   -3.3930   -2.1279 C   0  0  0  0  0  0  0  0  0  0  0  0
   -1.0258   -2.2161   -1.6113 C   0  0  0  0  0  0  0  0  0  0  0  0
   -0.2893   -5.7556   -2.0022 O   0  0  0  0  0  0  0  0  0  0  0  0
   -1.7768   -5.8036    0.3122 O   0  0  0  0  0  0  0  0  0  0  0  0
   -1.0073    2.9898   -3.4241 C   0  0  0  0  0  0  0  0  0  0  0  0
   -2.3384    3.1387   -2.9262 O   0  0  0  0  0  0  0  0  0  0  0  0
    1.8415    2.8693   -3.2467 O   0  0  0  0  0  0  0  0  0  0  0  0
    3.1524    0.4160   -2.9324 O   0  0  0  0  0  0  0  0  0  0  0  0
    4.6052   -1.4252    1.0070 O   0  0  0  0  0  0  0  0  0  0  0  0
    5.1688   -1.0901    3.7283 O   0  0  0  0  0  0  0  0  0  0  0  0
    6.6250    0.0268    1.6147 O   0  0  0  0  0  0  0  0  0  0  0  0
    4.5351    2.6003    2.1359 H   0  0  0  0  0  0  0  0  0  0  0  0
    5.9709    2.5385    1.0854 H   0  0  0  0  0  0  0  0  0  0  0  0
    6.3212    1.2920    3.2212 H   0  0  0  0  0  0  0  0  0  0  0  0
    3.9874    0.6029    3.6096 H   0  0  0  0  0  0  0  0  0  0  0  0
    2.9463   -1.1342    2.2058 H   0  0  0  0  0  0  0  0  0  0  0  0
    2.6187    1.2226    1.5593 H   0  0  0  0  0  0  0  0  0  0  0  0
    2.5065    1.9993   -0.9152 H   0  0  0  0  0  0  0  0  0  0  0  0
    1.2911   -0.3449   -2.4502 H   0  0  0  0  0  0  0  0  0  0  0  0
    0.9815    1.2905   -4.2673 H   0  0  0  0  0  0  0  0  0  0  0  0
   -0.8690    0.9770   -2.6682 H   0  0  0  0  0  0  0  0  0  0  0  0
    0.5637    1.7350    0.5825 H   0  0  0  0  0  0  0  0  0  0  0  0
   -5.7965   -1.0407    1.5664 H   0  0  0  0  0  0  0  0  0  0  0  0
   -5.7163    3.0964    2.6346 H   0  0  0  0  0  0  0  0  0  0  0  0
   -1.4366    2.2638    0.6322 H   0  0  0  0  0  0  0  0  0  0  0  0
   -2.8044    3.7077    2.5630 H   0  0  0  0  0  0  0  0  0  0  0  0
   -7.1718    0.6642    3.5826 H   0  0  0  0  0  0  0  0  0  0  0  0
   -2.6135   -3.4616    1.1197 H   0  0  0  0  0  0  0  0  0  0  0  0
    0.0573   -3.3780   -3.0362 H   0  0  0  0  0  0  0  0  0  0  0  0
   -0.8285   -1.2799   -2.1124 H   0  0  0  0  0  0  0  0  0  0  0  0
   -0.8851   -6.1905   -2.6274 H   0  0  0  0  0  0  0  0  0  0  0  0
   -2.5852   -6.2449    0.0177 H   0  0  0  0  0  0  0  0  0  0  0  0
   -0.4708    3.9323   -3.3144 H   0  0  0  0  0  0  0  0  0  0  0  0
   -1.0423    2.7121   -4.4776 H   0  0  0  0  0  0  0  0  0  0  0  0
   -2.8557    3.8162   -3.3828 H   0  0  0  0  0  0  0  0  0  0  0  0
    1.4311    3.5809   -3.7569 H   0  0  0  0  0  0  0  0  0  0  0  0
    3.1737    0.1105   -3.8496 H   0  0  0  0  0  0  0  0  0  0  0  0
    4.1424   -1.8150    0.2527 H   0  0  0  0  0  0  0  0  0  0  0  0
    5.7135   -0.8085    4.4761 H   0  0  0  0  0  0  0  0  0  0  0  0
    7.3665    0.5056    1.2196 H   0  0  0  0  0  0  0  0  0  0  0  0
  1  2  1  0  0  0  0
  2  3  1  0  0  0  0
  3  4  1  0  0  0  0
  4  5  1  0  0  0  0
  5  6  1  0  0  0  0
  1  6  1  0  0  0  0
  5  7  1  0  0  0  0
  7  8  1  0  0  0  0
  8  9  1  0  0  0  0
  9 10  1  0  0  0  0
 10 11  1  0  0  0  0
 11 12  1  0  0  0  0
 12 13  1  0  0  0  0
  8 13  1  0  0  0  0
 13 14  1  0  0  0  0
 14 15  1  0  0  0  0
 15 16  2  0  0  0  0
 16 17  1  0  0  0  0
 17 18  2  0  0  0  0
 18 19  1  0  0  0  0
 19 20  2  0  0  0  0
 20 21  1  0  0  0  0
 21 22  2  0  0  0  0
 22 23  1  0  0  0  0
 18 23  1  0  0  0  0
 23 24  2  0  0  0  0
 15 24  1  0  0  0  0
 22 25  1  0  0  0  0
 20 26  1  0  0  0  0
 16 27  1  0  0  0  0
 27 28  2  0  0  0  0
 28 29  1  0  0  0  0
 29 30  2  0  0  0  0
 30 31  1  0  0  0  0
 31 32  2  0  0  0  0
 27 32  1  0  0  0  0
 30 33  1  0  0  0  0
 29 34  1  0  0  0  0
 11 35  1  0  0  0  0
 35 36  1  0  0  0  0
 10 37  1  0  0  0  0
  9 38  1  0  0  0  0
  4 39  1  0  0  0  0
  3 40  1  0  0  0  0
  2 41  1  0  0  0  0
  1 42  1  0  0  0  0
  1 43  1  0  0  0  0
  2 44  1  0  0  0  0
  3 45  1  0  0  0  0
  4 46  1  0  0  0  0
  5 47  1  0  0  0  0
  8 48  1  0  0  0  0
  9 49  1  0  0  0  0
 10 50  1  0  0  0  0
 11 51  1  0  0  0  0
 13 52  1  0  0  0  0
 19 53  1  0  0  0  0
 21 54  1  0  0  0  0
 24 55  1  0  0  0  0
 25 56  1  0  0  0  0
 26 57  1  0  0  0  0
 28 58  1  0  0  0  0
 31 59  1  0  0  0  0
 32 60  1  0  0  0  0
 33 61  1  0  0  0  0
 34 62  1  0  0  0  0
 35 63  1  0  0  0  0
 35 64  1  0  0  0  0
 36 65  1  0  0  0  0
 37 66  1  0  0  0  0
 38 67  1  0  0  0  0
 39 68  1  0  0  0  0
 40 69  1  0  0  0  0
 41 70  1  0  0  0  0
M  CHG  1  17   1
M  END
$$$$
