C8H8
APtclcactv06211804403D 0   0.00000     0.00000
 
 16 16  0  0  0  0  0  0  0  0999 V2000
    2.8580    0.3990   -0.0010 C   0  0  0  0  0  0  0  0  0  0  0  0
    1.9678   -0.5832   -0.0004 C   0  0  0  0  0  0  0  0  0  0  0  0
    0.5230   -0.2711   -0.0004 C   0  0  0  0  0  0  0  0  0  0  0  0
   -0.4167   -1.3027    0.0003 C   0  0  0  0  0  0  0  0  0  0  0  0
   -1.7638   -1.0047    0.0003 C   0  0  0  0  0  0  0  0  0  0  0  0
   -2.1837    0.3135   -0.0009 C   0  0  0  0  0  0  0  0  0  0  0  0
   -1.2572    1.3409   -0.0021 C   0  0  0  0  0  0  0  0  0  0  0  0
    0.0929    1.0563    0.0047 C   0  0  0  0  0  0  0  0  0  0  0  0
    3.9137    0.1710   -0.0010 H   0  0  0  0  0  0  0  0  0  0  0  0
    2.5277    1.4272   -0.0061 H   0  0  0  0  0  0  0  0  0  0  0  0
    2.2981   -1.6115    0.0002 H   0  0  0  0  0  0  0  0  0  0  0  0
   -0.0901   -2.3322    0.0005 H   0  0  0  0  0  0  0  0  0  0  0  0
   -2.4921   -1.8022    0.0008 H   0  0  0  0  0  0  0  0  0  0  0  0
   -3.2394    0.5415   -0.0013 H   0  0  0  0  0  0  0  0  0  0  0  0
   -1.5914    2.3679   -0.0034 H   0  0  0  0  0  0  0  0  0  0  0  0
    0.8152    1.8592    0.0041 H   0  0  0  0  0  0  0  0  0  0  0  0
  1  2  2  0  0  0  0
  2  3  1  0  0  0  0
  3  4  2  0  0  0  0
  4  5  1  0  0  0  0
  5  6  2  0  0  0  0
  6  7  1  0  0  0  0
  7  8  2  0  0  0  0
  3  8  1  0  0  0  0
  1  9  1  0  0  0  0
  1 10  1  0  0  0  0
  2 11  1  0  0  0  0
  4 12  1  0  0  0  0
  5 13  1  0  0  0  0
  6 14  1  0  0  0  0
  7 15  1  0  0  0  0
  8 16  1  0  0  0  0
M  END
$$$$
