C7H9N
APtclcactv06211804403D 0   0.00000     0.00000
 
 17 17  0  0  0  0  0  0  0  0999 V2000
   -2.2540   -0.0145   -0.2207 C   0  0  0  0  0  0  0  0  0  0  0  0
   -1.5648   -1.2040   -0.0755 C   0  0  0  0  0  0  0  0  0  0  0  0
   -0.2067   -1.1890    0.1817 C   0  0  0  0  0  0  0  0  0  0  0  0
    0.4624    0.0155    0.2932 C   0  0  0  0  0  0  0  0  0  0  0  0
   -0.2266    1.2050    0.1471 C   0  0  0  0  0  0  0  0  0  0  0  0
   -1.5850    1.1900   -0.1087 C   0  0  0  0  0  0  0  0  0  0  0  0
    1.9428    0.0318    0.5745 C   0  0  0  0  0  0  0  0  0  0  0  0
    2.6826    0.0194   -0.6946 N   0  0  0  0  0  0  0  0  0  0  0  0
   -3.3142   -0.0263   -0.4260 H   0  0  0  0  0  0  0  0  0  0  0  0
   -2.0876   -2.1451   -0.1626 H   0  0  0  0  0  0  0  0  0  0  0  0
    0.3316   -2.1183    0.2959 H   0  0  0  0  0  0  0  0  0  0  0  0
    0.2960    2.1460    0.2349 H   0  0  0  0  0  0  0  0  0  0  0  0
   -2.1233    2.1193   -0.2225 H   0  0  0  0  0  0  0  0  0  0  0  0
    2.1964    0.9322    1.1340 H   0  0  0  0  0  0  0  0  0  0  0  0
    2.2111   -0.8475    1.1601 H   0  0  0  0  0  0  0  0  0  0  0  0
    3.6784    0.0300   -0.5327 H   0  0  0  0  0  0  0  0  0  0  0  0
    2.4166   -0.7726   -1.2604 H   0  0  0  0  0  0  0  0  0  0  0  0
  1  2  2  0  0  0  0
  2  3  1  0  0  0  0
  3  4  2  0  0  0  0
  4  5  1  0  0  0  0
  5  6  2  0  0  0  0
  1  6  1  0  0  0  0
  4  7  1  0  0  0  0
  7  8  1  0  0  0  0
  1  9  1  0  0  0  0
  2 10  1  0  0  0  0
  3 11  1  0  0  0  0
  5 12  1  0  0  0  0
  6 13  1  0  0  0  0
  7 14  1  0  0  0  0
  7 15  1  0  0  0  0
  8 16  1  0  0  0  0
  8 17  1  0  0  0  0
M  END
$$$$
