C6H9NO6
APtclcactv06291802593D 0   0.00000     0.00000
 
 22 21  0  0  0  0  0  0  0  0999 V2000
    1.2236   -0.3220   -0.0661 C   0  0  0  0  0  0  0  0  0  0  0  0
   -0.0292    0.4956    0.2545 C   0  0  0  0  0  0  0  0  0  0  0  0
   -1.2113   -0.2840   -0.0667 O   0  0  0  0  0  0  0  0  0  0  0  0
   -2.4047    0.2951    0.1583 C   0  0  0  0  0  0  0  0  0  0  0  0
   -2.4576    1.4191    0.6099 O   0  0  0  0  0  0  0  0  0  0  0  0
   -3.6649   -0.4469   -0.1483 C   0  0  0  0  0  0  0  0  0  0  0  0
   -3.6120   -1.5709   -0.6000 O   0  0  0  0  0  0  0  0  0  0  0  0
   -4.8583    0.1322    0.0767 O   0  0  0  0  0  0  0  0  0  0  0  0
    2.4692    0.4995    0.2724 C   0  0  0  0  0  0  0  0  0  0  0  0
    3.6993   -0.3479    0.0732 C   0  0  0  0  0  0  0  0  0  0  0  0
    4.3553   -0.2330   -0.9350 O   0  0  0  0  0  0  0  0  0  0  0  0
    4.0662   -1.2304    1.0157 O   0  0  0  0  0  0  0  0  0  0  0  0
    2.5356    1.6736   -0.6079 N   0  0  0  0  0  0  0  0  0  0  0  0
    1.2208   -1.2379    0.5249 H   0  0  0  0  0  0  0  0  0  0  0  0
    1.2316   -0.5738   -1.1265 H   0  0  0  0  0  0  0  0  0  0  0  0
   -0.0372    0.7475    1.3150 H   0  0  0  0  0  0  0  0  0  0  0  0
   -0.0264    1.4115   -0.3364 H   0  0  0  0  0  0  0  0  0  0  0  0
   -5.6456   -0.3871   -0.1372 H   0  0  0  0  0  0  0  0  0  0  0  0
    2.4176    0.8265    1.3109 H   0  0  0  0  0  0  0  0  0  0  0  0
    4.8624   -1.7514    0.8431 H   0  0  0  0  0  0  0  0  0  0  0  0
    2.5842    1.3967   -1.5770 H   0  0  0  0  0  0  0  0  0  0  0  0
    1.7538    2.2909   -0.4470 H   0  0  0  0  0  0  0  0  0  0  0  0
  1  2  1  0  0  0  0
  2  3  1  0  0  0  0
  3  4  1  0  0  0  0
  4  5  2  0  0  0  0
  4  6  1  0  0  0  0
  6  7  2  0  0  0  0
  6  8  1  0  0  0  0
  1  9  1  0  0  0  0
  9 10  1  0  0  0  0
 10 11  2  0  0  0  0
 10 12  1  0  0  0  0
  9 13  1  0  0  0  0
  1 14  1  0  0  0  0
  1 15  1  0  0  0  0
  2 16  1  0  0  0  0
  2 17  1  0  0  0  0
  8 18  1  0  0  0  0
  9 19  1  0  0  0  0
 12 20  1  0  0  0  0
 13 21  1  0  0  0  0
 13 22  1  0  0  0  0
M  END
$$$$
