C21H22NO4
APtclcactv06291802593D 0   0.00000     0.00000
 
 48 51  0  0  0  0  0  0  0  0999 V2000
   -0.2572    2.3945   -0.6547 C   0  0  0  0  0  0  0  0  0  0  0  0
    0.3155    1.0338   -0.3505 C   0  0  0  0  0  0  0  0  0  0  0  0
    1.7153    0.8860   -0.2757 C   0  0  0  0  0  0  0  0  0  0  0  0
    2.5969    1.9701   -0.3864 C   0  0  0  0  0  0  0  0  0  0  0  0
    3.9439    1.7649   -0.3107 C   0  0  0  0  0  0  0  0  0  0  0  0
    4.4695    0.4871   -0.1231 C   0  0  0  0  0  0  0  0  0  0  0  0
    3.6332   -0.6071   -0.0083 C   0  0  0  0  0  0  0  0  0  0  0  0
    2.2412   -0.4206   -0.0864 C   0  0  0  0  0  0  0  0  0  0  0  0
    1.3477   -1.4944    0.0087 C   0  0  0  0  0  0  0  0  0  0  0  0
    0.0511   -1.2931   -0.0370 N   0  3  0  0  0  0  0  0  0  0  0  0
   -0.4892   -0.0681   -0.1237 C   0  0  0  0  0  0  0  0  0  0  0  0
   -1.9599    0.0613    0.0218 C   0  0  0  0  0  0  0  0  0  0  0  0
   -2.5921    1.1464    0.6049 C   0  0  0  0  0  0  0  0  0  0  0  0
   -3.9756    1.2234    0.6399 C   0  0  0  0  0  0  0  0  0  0  0  0
   -4.7461    0.1863    0.1231 C   0  0  0  0  0  0  0  0  0  0  0  0
   -4.1216   -0.9341   -0.4067 C   0  0  0  0  0  0  0  0  0  0  0  0
   -2.7499   -1.0051   -0.4368 C   0  0  0  0  0  0  0  0  0  0  0  0
   -2.0511   -2.2524   -0.9188 C   0  0  0  0  0  0  0  0  0  0  0  0
   -0.8184   -2.4793   -0.0390 C   0  0  0  0  0  0  0  0  0  0  0  0
   -6.1020    0.2694    0.1366 O   0  0  0  0  0  0  0  0  0  0  0  0
   -6.8251   -0.8345   -0.4116 C   0  0  0  0  0  0  0  0  0  0  0  0
   -4.5787    2.3162    1.1806 O   0  0  0  0  0  0  0  0  0  0  0  0
    4.1530   -1.8489    0.1763 O   0  0  0  0  0  0  0  0  0  0  0  0
    4.3547   -2.2739    1.5256 C   0  0  0  0  0  0  0  0  0  0  0  0
    5.8165    0.3150   -0.0529 O   0  0  0  0  0  0  0  0  0  0  0  0
    6.6275    1.4848   -0.1792 C   0  0  0  0  0  0  0  0  0  0  0  0
   -0.2662    2.5520   -1.7332 H   0  0  0  0  0  0  0  0  0  0  0  0
   -1.2754    2.4544   -0.2702 H   0  0  0  0  0  0  0  0  0  0  0  0
    0.3558    3.1610   -0.1806 H   0  0  0  0  0  0  0  0  0  0  0  0
    2.2374    2.9781   -0.5268 H   0  0  0  0  0  0  0  0  0  0  0  0
    4.6127    2.6086   -0.3980 H   0  0  0  0  0  0  0  0  0  0  0  0
    1.7282   -2.4992    0.1204 H   0  0  0  0  0  0  0  0  0  0  0  0
   -2.0259    1.9295    1.0919 H   0  0  0  0  0  0  0  0  0  0  0  0
   -4.7170   -1.7482   -0.7955 H   0  0  0  0  0  0  0  0  0  0  0  0
   -2.7216   -3.1040   -0.8306 H   0  0  0  0  0  0  0  0  0  0  0  0
   -1.7419   -2.1227   -1.9528 H   0  0  0  0  0  0  0  0  0  0  0  0
   -0.2601   -3.3294   -0.4234 H   0  0  0  0  0  0  0  0  0  0  0  0
   -1.1430   -2.6855    0.9787 H   0  0  0  0  0  0  0  0  0  0  0  0
   -6.5501   -0.9652   -1.4582 H   0  0  0  0  0  0  0  0  0  0  0  0
   -6.5815   -1.7402    0.1438 H   0  0  0  0  0  0  0  0  0  0  0  0
   -7.8951   -0.6402   -0.3386 H   0  0  0  0  0  0  0  0  0  0  0  0
   -4.7512    3.0247    0.5455 H   0  0  0  0  0  0  0  0  0  0  0  0
    4.7733   -3.2803    1.5309 H   0  0  0  0  0  0  0  0  0  0  0  0
    5.0440   -1.5910    2.0224 H   0  0  0  0  0  0  0  0  0  0  0  0
    3.4007   -2.2744    2.0528 H   0  0  0  0  0  0  0  0  0  0  0  0
    6.3799    2.1862    0.6176 H   0  0  0  0  0  0  0  0  0  0  0  0
    7.6790    1.2076   -0.1054 H   0  0  0  0  0  0  0  0  0  0  0  0
    6.4420    1.9529   -1.1459 H   0  0  0  0  0  0  0  0  0  0  0  0
  1  2  1  0  0  0  0
  2  3  2  0  0  0  0
  3  4  1  0  0  0  0
  4  5  2  0  0  0  0
  5  6  1  0  0  0  0
  6  7  2  0  0  0  0
  7  8  1  0  0  0  0
  3  8  1  0  0  0  0
  8  9  2  0  0  0  0
  9 10  1  0  0  0  0
 10 11  2  0  0  0  0
  2 11  1  0  0  0  0
 11 12  1  0  0  0  0
 12 13  2  0  0  0  0
 13 14  1  0  0  0  0
 14 15  2  0  0  0  0
 15 16  1  0  0  0  0
 16 17  2  0  0  0  0
 12 17  1  0  0  0  0
 17 18  1  0  0  0  0
 18 19  1  0  0  0  0
 10 19  1  0  0  0  0
 15 20  1  0  0  0  0
 20 21  1  0  0  0  0
 14 22  1  0  0  0  0
  7 23  1  0  0  0  0
 23 24  1  0  0  0  0
  6 25  1  0  0  0  0
 25 26  1  0  0  0  0
  1 27  1  0  0  0  0
  1 28  1  0  0  0  0
  1 29  1  0  0  0  0
  4 30  1  0  0  0  0
  5 31  1  0  0  0  0
  9 32  1  0  0  0  0
 13 33  1  0  0  0  0
 16 34  1  0  0  0  0
 18 35  1  0  0  0  0
 18 36  1  0  0  0  0
 19 37  1  0  0  0  0
 19 38  1  0  0  0  0
 21 39  1  0  0  0  0
 21 40  1  0  0  0  0
 21 41  1  0  0  0  0
 22 42  1  0  0  0  0
 24 43  1  0  0  0  0
 24 44  1  0  0  0  0
 24 45  1  0  0  0  0
 26 46  1  0  0  0  0
 26 47  1  0  0  0  0
 26 48  1  0  0  0  0
M  CHG  1  10   1
M  END
$$$$
