C8H8O4
APtclcactv06211806273D 0   0.00000     0.00000
 
 20 20  0  0  0  0  0  0  0  0999 V2000
   -4.0118    0.7552   -0.0066 C   0  0  0  0  0  0  0  0  0  0  0  0
   -3.1775   -0.4049    0.0049 O   0  0  0  0  0  0  0  0  0  0  0  0
   -1.8361   -0.1992    0.0051 C   0  0  0  0  0  0  0  0  0  0  0  0
   -0.9712   -1.2835    0.0159 C   0  0  0  0  0  0  0  0  0  0  0  0
    0.3977   -1.0748    0.0157 C   0  0  0  0  0  0  0  0  0  0  0  0
    0.8999    0.2360    0.0046 C   0  0  0  0  0  0  0  0  0  0  0  0
    0.0133    1.3183   -0.0062 C   0  0  0  0  0  0  0  0  0  0  0  0
   -1.3342    1.0990   -0.0113 C   0  0  0  0  0  0  0  0  0  0  0  0
    2.3526    0.4708    0.0047 C   0  0  0  0  0  0  0  0  0  0  0  0
    3.1204   -0.4713    0.0145 O   0  0  0  0  0  0  0  0  0  0  0  0
    2.8316    1.7306   -0.0060 O   0  0  0  0  0  0  0  0  0  0  0  0
    1.2487   -2.1311    0.0267 O   0  0  0  0  0  0  0  0  0  0  0  0
   -3.8054    1.3423   -0.9014 H   0  0  0  0  0  0  0  0  0  0  0  0
   -5.0582    0.4502   -0.0055 H   0  0  0  0  0  0  0  0  0  0  0  0
   -3.8081    1.3579    0.8785 H   0  0  0  0  0  0  0  0  0  0  0  0
   -1.3648   -2.2892    0.0248 H   0  0  0  0  0  0  0  0  0  0  0  0
    0.3954    2.3284   -0.0145 H   0  0  0  0  0  0  0  0  0  0  0  0
   -2.0146    1.9376   -0.0196 H   0  0  0  0  0  0  0  0  0  0  0  0
    3.7930    1.8348   -0.0054 H   0  0  0  0  0  0  0  0  0  0  0  0
    1.4965   -2.4456   -0.8535 H   0  0  0  0  0  0  0  0  0  0  0  0
  1  2  1  0  0  0  0
  2  3  1  0  0  0  0
  3  4  2  0  0  0  0
  4  5  1  0  0  0  0
  5  6  2  0  0  0  0
  6  7  1  0  0  0  0
  7  8  2  0  0  0  0
  3  8  1  0  0  0  0
  6  9  1  0  0  0  0
  9 10  2  0  0  0  0
  9 11  1  0  0  0  0
  5 12  1  0  0  0  0
  1 13  1  0  0  0  0
  1 14  1  0  0  0  0
  1 15  1  0  0  0  0
  4 16  1  0  0  0  0
  7 17  1  0  0  0  0
  8 18  1  0  0  0  0
 11 19  1  0  0  0  0
 12 20  1  0  0  0  0
M  END
$$$$
