C4H7NS
APtclcactv06211806273D 0   0.00000     0.00000
 
 13 12  0  0  0  0  0  0  0  0999 V2000
    2.2084   -1.2492    0.1031 C   0  0  0  0  0  0  0  0  0  0  0  0
    1.3463   -0.0000    0.2959 C   0  0  0  0  0  0  0  0  0  0  0  0
    2.2084    1.2492    0.1031 C   0  0  0  0  0  0  0  0  0  0  0  0
    0.2598    0.0000   -0.6867 N   0  0  0  0  0  0  0  0  0  0  0  0
   -0.9299    0.0000   -0.3031 C   0  0  0  0  0  0  0  0  0  0  0  0
   -2.4084   -0.0000    0.1738 S   0  0  0  0  0  0  0  0  0  0  0  0
    3.0168   -1.2492    0.8342 H   0  0  0  0  0  0  0  0  0  0  0  0
    1.5942   -2.1392    0.2405 H   0  0  0  0  0  0  0  0  0  0  0  0
    2.6282   -1.2492   -0.9028 H   0  0  0  0  0  0  0  0  0  0  0  0
    0.9265   -0.0000    1.3018 H   0  0  0  0  0  0  0  0  0  0  0  0
    2.6282    1.2492   -0.9028 H   0  0  0  0  0  0  0  0  0  0  0  0
    1.5942    2.1392    0.2405 H   0  0  0  0  0  0  0  0  0  0  0  0
    3.0168    1.2492    0.8342 H   0  0  0  0  0  0  0  0  0  0  0  0
  1  2  1  0  0  0  0
  2  3  1  0  0  0  0
  2  4  1  0  0  0  0
  4  5  2  0  0  0  0
  5  6  2  0  0  0  0
  1  7  1  0  0  0  0
  1  8  1  0  0  0  0
  1  9  1  0  0  0  0
  2 10  1  0  0  0  0
  3 11  1  0  0  0  0
  3 12  1  0  0  0  0
  3 13  1  0  0  0  0
M  END
$$$$
