C6H10S4
APtclcactv06211806273D 0   0.00000     0.00000
 
 20 19  0  0  0  0  0  0  0  0999 V2000
    5.3730   -0.4792   -0.2117 C   0  0  0  0  0  0  0  0  0  0  0  0
    4.0981   -0.7473   -0.0751 C   0  0  0  0  0  0  0  0  0  0  0  0
    3.2546    0.0653    0.8732 C   0  0  0  0  0  0  0  0  0  0  0  0
    2.0063    0.9873   -0.0662 S   0  0  0  0  0  0  0  0  0  0  0  0
    0.7357   -0.4854   -0.7137 S   0  0  0  0  0  0  0  0  0  0  0  0
   -0.7357   -0.4854    0.7137 S   0  0  0  0  0  0  0  0  0  0  0  0
   -2.0063    0.9872    0.0662 S   0  0  0  0  0  0  0  0  0  0  0  0
   -3.2546    0.0653   -0.8732 C   0  0  0  0  0  0  0  0  0  0  0  0
   -4.0980   -0.7473    0.0751 C   0  0  0  0  0  0  0  0  0  0  0  0
   -5.3730   -0.4793    0.2116 C   0  0  0  0  0  0  0  0  0  0  0  0
    5.8197    0.3242    0.3554 H   0  0  0  0  0  0  0  0  0  0  0  0
    5.9785   -1.0644   -0.8880 H   0  0  0  0  0  0  0  0  0  0  0  0
    3.6514   -1.5506   -0.6422 H   0  0  0  0  0  0  0  0  0  0  0  0
    2.7591   -0.6002    1.5801 H   0  0  0  0  0  0  0  0  0  0  0  0
    3.8900    0.7645    1.4167 H   0  0  0  0  0  0  0  0  0  0  0  0
   -3.8901    0.7645   -1.4167 H   0  0  0  0  0  0  0  0  0  0  0  0
   -2.7591   -0.6002   -1.5801 H   0  0  0  0  0  0  0  0  0  0  0  0
   -3.6514   -1.5507    0.6421 H   0  0  0  0  0  0  0  0  0  0  0  0
   -5.8197    0.3241   -0.3554 H   0  0  0  0  0  0  0  0  0  0  0  0
   -5.9775   -1.0616    0.8912 H   0  0  0  0  0  0  0  0  0  0  0  0
  1  2  2  0  0  0  0
  2  3  1  0  0  0  0
  3  4  1  0  0  0  0
  4  5  1  0  0  0  0
  5  6  1  0  0  0  0
  6  7  1  0  0  0  0
  7  8  1  0  0  0  0
  8  9  1  0  0  0  0
  9 10  2  0  0  0  0
  1 11  1  0  0  0  0
  1 12  1  0  0  0  0
  2 13  1  0  0  0  0
  3 14  1  0  0  0  0
  3 15  1  0  0  0  0
  8 16  1  0  0  0  0
  8 17  1  0  0  0  0
  9 18  1  0  0  0  0
 10 19  1  0  0  0  0
 10 20  1  0  0  0  0
M  END
$$$$
