C16H16F3NO2S
APtclcactv06281816283D 0   0.00000     0.00000
 
 39 40  0  0  0  0  0  0  0  0999 V2000
   -2.1593    4.2804    0.8520 C   0  0  0  0  0  0  0  0  0  0  0  0
   -2.1123    2.7999    0.5745 C   0  0  0  0  0  0  0  0  0  0  0  0
   -1.6588    1.9285    1.5470 C   0  0  0  0  0  0  0  0  0  0  0  0
   -1.6157    0.5705    1.2924 C   0  0  0  0  0  0  0  0  0  0  0  0
   -2.0265    0.0838    0.0655 C   0  0  0  0  0  0  0  0  0  0  0  0
   -2.4809    0.9552   -0.9067 C   0  0  0  0  0  0  0  0  0  0  0  0
   -2.5281    2.3128   -0.6506 C   0  0  0  0  0  0  0  0  0  0  0  0
   -2.9284    0.4247   -2.2444 C   0  0  0  0  0  0  0  0  0  0  0  0
   -1.9704   -1.6470   -0.2594 S   0  0  0  0  0  0  0  0  0  0  0  0
   -1.9470   -2.2924    1.0064 O   0  0  0  0  0  0  0  0  0  0  0  0
   -2.9627   -1.9029   -1.2439 O   0  0  0  0  0  0  0  0  0  0  0  0
   -0.5104   -1.9648   -0.9733 N   0  0  0  0  0  0  0  0  0  0  0  0
    0.6761   -1.6646   -0.3003 C   0  0  0  0  0  0  0  0  0  0  0  0
    1.0814   -2.4425    0.7766 C   0  0  0  0  0  0  0  0  0  0  0  0
    2.2556   -2.1431    1.4396 C   0  0  0  0  0  0  0  0  0  0  0  0
    3.0269   -1.0702    1.0327 C   0  0  0  0  0  0  0  0  0  0  0  0
    2.6263   -0.2936   -0.0393 C   0  0  0  0  0  0  0  0  0  0  0  0
    1.4565   -0.5907   -0.7102 C   0  0  0  0  0  0  0  0  0  0  0  0
    3.4700    0.8751   -0.4790 C   0  0  0  0  0  0  0  0  0  0  0  0
    4.5979    0.9715    0.3431 F   0  0  0  0  0  0  0  0  0  0  0  0
    3.8742    0.6858   -1.8049 F   0  0  0  0  0  0  0  0  0  0  0  0
    2.7212    2.0530   -0.3834 F   0  0  0  0  0  0  0  0  0  0  0  0
   -1.1203   -0.3795    2.3523 C   0  0  0  0  0  0  0  0  0  0  0  0
   -1.2127    4.7351    0.5597 H   0  0  0  0  0  0  0  0  0  0  0  0
   -2.9707    4.7316    0.2809 H   0  0  0  0  0  0  0  0  0  0  0  0
   -2.3284    4.4454    1.9161 H   0  0  0  0  0  0  0  0  0  0  0  0
   -1.3378    2.3087    2.5055 H   0  0  0  0  0  0  0  0  0  0  0  0
   -2.8831    2.9936   -1.4101 H   0  0  0  0  0  0  0  0  0  0  0  0
   -3.9581    0.0751   -2.1706 H   0  0  0  0  0  0  0  0  0  0  0  0
   -2.8666    1.2183   -2.9890 H   0  0  0  0  0  0  0  0  0  0  0  0
   -2.2840   -0.4029   -2.5410 H   0  0  0  0  0  0  0  0  0  0  0  0
   -0.4792   -2.3593   -1.8589 H   0  0  0  0  0  0  0  0  0  0  0  0
    0.4790   -3.2802    1.0955 H   0  0  0  0  0  0  0  0  0  0  0  0
    2.5713   -2.7476    2.2771 H   0  0  0  0  0  0  0  0  0  0  0  0
    3.9442   -0.8379    1.5533 H   0  0  0  0  0  0  0  0  0  0  0  0
    1.1444    0.0159   -1.5474 H   0  0  0  0  0  0  0  0  0  0  0  0
   -1.9702   -0.8713    2.8254 H   0  0  0  0  0  0  0  0  0  0  0  0
   -0.4749   -1.1295    1.8950 H   0  0  0  0  0  0  0  0  0  0  0  0
   -0.5574    0.1752    3.1030 H   0  0  0  0  0  0  0  0  0  0  0  0
  1  2  1  0  0  0  0
  2  3  2  0  0  0  0
  3  4  1  0  0  0  0
  4  5  2  0  0  0  0
  5  6  1  0  0  0  0
  6  7  2  0  0  0  0
  2  7  1  0  0  0  0
  6  8  1  0  0  0  0
  5  9  1  0  0  0  0
  9 10  2  0  0  0  0
  9 11  2  0  0  0  0
  9 12  1  0  0  0  0
 12 13  1  0  0  0  0
 13 14  2  0  0  0  0
 14 15  1  0  0  0  0
 15 16  2  0  0  0  0
 16 17  1  0  0  0  0
 17 18  2  0  0  0  0
 13 18  1  0  0  0  0
 17 19  1  0  0  0  0
 19 20  1  0  0  0  0
 19 21  1  0  0  0  0
 19 22  1  0  0  0  0
  4 23  1  0  0  0  0
  1 24  1  0  0  0  0
  1 25  1  0  0  0  0
  1 26  1  0  0  0  0
  3 27  1  0  0  0  0
  7 28  1  0  0  0  0
  8 29  1  0  0  0  0
  8 30  1  0  0  0  0
  8 31  1  0  0  0  0
 12 32  1  0  0  0  0
 14 33  1  0  0  0  0
 15 34  1  0  0  0  0
 16 35  1  0  0  0  0
 18 36  1  0  0  0  0
 23 37  1  0  0  0  0
 23 38  1  0  0  0  0
 23 39  1  0  0  0  0
M  END
$$$$
