C3H7N3O2
APtclcactv06211804313D 0   0.00000     0.00000
 
 15 14  0  0  0  0  0  0  0  0999 V2000
   -0.5447   -0.5778   -0.6758 C   0  0  0  0  0  0  0  0  0  0  0  0
   -1.7004    0.1053    0.0088 C   0  0  0  0  0  0  0  0  0  0  0  0
   -1.5661    1.2216    0.4514 O   0  0  0  0  0  0  0  0  0  0  0  0
   -2.8789   -0.5262    0.1270 O   0  0  0  0  0  0  0  0  0  0  0  0
    0.6186    0.3127   -0.6758 N   0  0  0  0  0  0  0  0  0  0  0  0
    1.7027   -0.0313   -0.0392 C   0  0  0  0  0  0  0  0  0  0  0  0
    1.8024   -1.2822    0.5224 N   0  0  0  0  0  0  0  0  0  0  0  0
    2.7465    0.8567    0.0705 N   0  0  0  0  0  0  0  0  0  0  0  0
   -0.2988   -1.4967   -0.1436 H   0  0  0  0  0  0  0  0  0  0  0  0
   -0.8202   -0.8156   -1.7033 H   0  0  0  0  0  0  0  0  0  0  0  0
   -3.5905   -0.0477    0.5738 H   0  0  0  0  0  0  0  0  0  0  0  0
    1.1329   -1.9564    0.3270 H   0  0  0  0  0  0  0  0  0  0  0  0
    2.5423   -1.4906    1.1140 H   0  0  0  0  0  0  0  0  0  0  0  0
    2.6762    1.7393   -0.3257 H   0  0  0  0  0  0  0  0  0  0  0  0
    3.5533    0.6006    0.5442 H   0  0  0  0  0  0  0  0  0  0  0  0
  1  2  1  0  0  0  0
  2  3  2  0  0  0  0
  2  4  1  0  0  0  0
  1  5  1  0  0  0  0
  5  6  2  0  0  0  0
  6  7  1  0  0  0  0
  6  8  1  0  0  0  0
  1  9  1  0  0  0  0
  1 10  1  0  0  0  0
  4 11  1  0  0  0  0
  7 12  1  0  0  0  0
  7 13  1  0  0  0  0
  8 14  1  0  0  0  0
  8 15  1  0  0  0  0
M  END
$$$$
