C16H12O6
APtclcactv06291802593D 0   0.00000     0.00000
 
 34 37  0  0  0  0  0  0  0  0999 V2000
    5.0633   -1.4899   -0.2833 C   0  0  0  0  0  0  0  0  0  0  0  0
    3.9366   -2.2634    0.1689 O   0  0  0  0  0  0  0  0  0  0  0  0
    2.8727   -1.4098    0.1447 C   0  0  0  0  0  0  0  0  0  0  0  0
    3.3540   -0.1030    0.0933 C   0  0  0  0  0  0  0  0  0  0  0  0
    4.7206   -0.1403    0.0829 O   0  0  0  0  0  0  0  0  0  0  0  0
    2.4676    0.9624    0.0630 C   0  0  0  0  0  0  0  0  0  0  0  0
    1.0867    0.7145    0.0855 C   0  0  0  0  0  0  0  0  0  0  0  0
    0.6045   -0.6069    0.1293 C   0  0  0  0  0  0  0  0  0  0  0  0
    1.5048   -1.6561    0.1615 C   0  0  0  0  0  0  0  0  0  0  0  0
   -0.7267   -0.8581    0.1341 O   0  0  0  0  0  0  0  0  0  0  0  0
   -1.6156    0.1666    0.5784 C   0  0  0  0  0  0  0  0  0  0  0  0
   -1.3246    1.4621   -0.1931 C   0  0  0  0  0  0  0  0  0  0  0  0
    0.1266    1.8237    0.0679 C   0  0  0  0  0  0  0  0  0  0  0  0
    0.4747    2.9717    0.2531 O   0  0  0  0  0  0  0  0  0  0  0  0
   -1.5298    1.2522   -1.5916 O   0  0  0  0  0  0  0  0  0  0  0  0
   -3.0393   -0.2591    0.3275 C   0  0  0  0  0  0  0  0  0  0  0  0
   -4.0351    0.1008    1.2161 C   0  0  0  0  0  0  0  0  0  0  0  0
   -5.3410   -0.2897    0.9860 C   0  0  0  0  0  0  0  0  0  0  0  0
   -5.6512   -1.0397   -0.1330 C   0  0  0  0  0  0  0  0  0  0  0  0
   -4.6555   -1.3988   -1.0222 C   0  0  0  0  0  0  0  0  0  0  0  0
   -3.3503   -1.0046   -0.7943 C   0  0  0  0  0  0  0  0  0  0  0  0
    2.9323    2.2366    0.0123 O   0  0  0  0  0  0  0  0  0  0  0  0
    5.9738   -1.8056    0.2261 H   0  0  0  0  0  0  0  0  0  0  0  0
    5.1782   -1.5762   -1.3638 H   0  0  0  0  0  0  0  0  0  0  0  0
    1.1429   -2.6730    0.1994 H   0  0  0  0  0  0  0  0  0  0  0  0
   -1.4693    0.3377    1.6449 H   0  0  0  0  0  0  0  0  0  0  0  0
   -1.9759    2.2604    0.1629 H   0  0  0  0  0  0  0  0  0  0  0  0
   -1.3623    2.0341   -2.1354 H   0  0  0  0  0  0  0  0  0  0  0  0
   -3.7928    0.6868    2.0904 H   0  0  0  0  0  0  0  0  0  0  0  0
   -6.1189   -0.0091    1.6806 H   0  0  0  0  0  0  0  0  0  0  0  0
   -6.6713   -1.3454   -0.3124 H   0  0  0  0  0  0  0  0  0  0  0  0
   -4.8978   -1.9851   -1.8962 H   0  0  0  0  0  0  0  0  0  0  0  0
   -2.5724   -1.2852   -1.4889 H   0  0  0  0  0  0  0  0  0  0  0  0
    3.0586    2.5738   -0.8851 H   0  0  0  0  0  0  0  0  0  0  0  0
  1  2  1  0  0  0  0
  2  3  1  0  0  0  0
  3  4  2  0  0  0  0
  4  5  1  0  0  0  0
  1  5  1  0  0  0  0
  4  6  1  0  0  0  0
  6  7  2  0  0  0  0
  7  8  1  0  0  0  0
  8  9  2  0  0  0  0
  3  9  1  0  0  0  0
  8 10  1  0  0  0  0
 10 11  1  0  0  0  0
 11 12  1  0  0  0  0
 12 13  1  0  0  0  0
  7 13  1  0  0  0  0
 13 14  2  0  0  0  0
 12 15  1  0  0  0  0
 11 16  1  0  0  0  0
 16 17  2  0  0  0  0
 17 18  1  0  0  0  0
 18 19  2  0  0  0  0
 19 20  1  0  0  0  0
 20 21  2  0  0  0  0
 16 21  1  0  0  0  0
  6 22  1  0  0  0  0
  1 23  1  0  0  0  0
  1 24  1  0  0  0  0
  9 25  1  0  0  0  0
 11 26  1  0  0  0  0
 12 27  1  0  0  0  0
 15 28  1  0  0  0  0
 17 29  1  0  0  0  0
 18 30  1  0  0  0  0
 19 31  1  0  0  0  0
 20 32  1  0  0  0  0
 21 33  1  0  0  0  0
 22 34  1  0  0  0  0
M  END
$$$$
