C5H5N5O
APtclcactv06211804313D 0   0.00000     0.00000
 
 16 17  0  0  0  0  0  0  0  0999 V2000
    2.7095   -0.6629   -0.0001 C   0  0  0  0  0  0  0  0  0  0  0  0
    1.7479   -1.5494   -0.0002 N   0  0  0  0  0  0  0  0  0  0  0  0
    0.5628   -0.9309   -0.0001 C   0  0  0  0  0  0  0  0  0  0  0  0
    0.8132    0.4358    0.0000 C   0  0  0  0  0  0  0  0  0  0  0  0
    2.1829    0.5792   -0.0000 N   0  0  0  0  0  0  0  0  0  0  0  0
   -0.3213    1.3525    0.0001 C   0  0  0  0  0  0  0  0  0  0  0  0
   -0.1458    2.5614   -0.0002 O   0  0  0  0  0  0  0  0  0  0  0  0
   -1.5634    0.8401    0.0001 N   0  0  0  0  0  0  0  0  0  0  0  0
   -1.7665   -0.4595    0.0000 C   0  0  0  0  0  0  0  0  0  0  0  0
   -0.7489   -1.3590   -0.0001 N   0  0  0  0  0  0  0  0  0  0  0  0
   -3.0547   -0.9239    0.0001 N   0  0  0  0  0  0  0  0  0  0  0  0
    3.7652   -0.8907    0.0039 H   0  0  0  0  0  0  0  0  0  0  0  0
    2.6755    1.4148    0.0003 H   0  0  0  0  0  0  0  0  0  0  0  0
   -0.9456   -2.3089   -0.0004 H   0  0  0  0  0  0  0  0  0  0  0  0
   -3.7958   -0.2981    0.0001 H   0  0  0  0  0  0  0  0  0  0  0  0
   -3.2261   -1.8786   -0.0000 H   0  0  0  0  0  0  0  0  0  0  0  0
  1  2  2  0  0  0  0
  2  3  1  0  0  0  0
  3  4  2  0  0  0  0
  4  5  1  0  0  0  0
  1  5  1  0  0  0  0
  4  6  1  0  0  0  0
  6  7  2  0  0  0  0
  6  8  1  0  0  0  0
  8  9  2  0  0  0  0
  9 10  1  0  0  0  0
  3 10  1  0  0  0  0
  9 11  1  0  0  0  0
  1 12  1  0  0  0  0
  5 13  1  0  0  0  0
 10 14  1  0  0  0  0
 11 15  1  0  0  0  0
 11 16  1  0  0  0  0
M  END
$$$$
