C15H24
APtclcactv06291802593D 0   0.00000     0.00000
 
 39 40  0  0  0  0  0  0  0  0999 V2000
    1.4004    2.7201    0.0824 C   0  0  0  0  0  0  0  0  0  0  0  0
    0.1832    1.8482    0.2532 C   0  0  0  0  0  0  0  0  0  0  0  0
   -1.0059    2.3214   -0.0263 C   0  0  0  0  0  0  0  0  0  0  0  0
    0.3339    0.4324    0.7454 C   0  0  0  0  0  0  0  0  0  0  0  0
   -1.0031   -0.1860    1.0231 C   0  0  0  0  0  0  0  0  0  0  0  0
   -1.3460   -1.5648    0.4639 C   0  0  0  0  0  0  0  0  0  0  0  0
   -2.1527   -0.3301    0.0527 C   0  0  0  0  0  0  0  0  0  0  0  0
   -3.5717   -0.2136    0.6466 C   0  0  0  0  0  0  0  0  0  0  0  0
   -2.0468    0.1744   -1.3821 C   0  0  0  0  0  0  0  0  0  0  0  0
   -0.3958   -2.2009   -0.5337 C   0  0  0  0  0  0  0  0  0  0  0  0
    1.0397   -1.8048   -0.2675 C   0  0  0  0  0  0  0  0  0  0  0  0
    1.2799   -0.3219   -0.1506 C   0  0  0  0  0  0  0  0  0  0  0  0
    1.2797    0.3042   -1.5482 C   0  0  0  0  0  0  0  0  0  0  0  0
    2.6795   -0.1384    0.4145 C   0  0  0  0  0  0  0  0  0  0  0  0
    3.4645   -1.1756    0.5693 C   0  0  0  0  0  0  0  0  0  0  0  0
    1.5728    3.2867    0.9975 H   0  0  0  0  0  0  0  0  0  0  0  0
    2.2686    2.0951   -0.1269 H   0  0  0  0  0  0  0  0  0  0  0  0
    1.2403    3.4092   -0.7468 H   0  0  0  0  0  0  0  0  0  0  0  0
   -1.1069    3.3024   -0.4667 H   0  0  0  0  0  0  0  0  0  0  0  0
   -1.8853    1.7306    0.1836 H   0  0  0  0  0  0  0  0  0  0  0  0
    0.8494    0.5141    1.7305 H   0  0  0  0  0  0  0  0  0  0  0  0
   -1.3186   -0.0559    2.0776 H   0  0  0  0  0  0  0  0  0  0  0  0
   -1.8234   -2.2609    1.1579 H   0  0  0  0  0  0  0  0  0  0  0  0
   -3.7130   -0.9846    1.4040 H   0  0  0  0  0  0  0  0  0  0  0  0
   -3.6957    0.7693    1.1012 H   0  0  0  0  0  0  0  0  0  0  0  0
   -4.3090   -0.3431   -0.1457 H   0  0  0  0  0  0  0  0  0  0  0  0
   -2.1792   -0.6597   -2.0712 H   0  0  0  0  0  0  0  0  0  0  0  0
   -2.8200    0.9211   -1.5627 H   0  0  0  0  0  0  0  0  0  0  0  0
   -1.0654    0.6224   -1.5382 H   0  0  0  0  0  0  0  0  0  0  0  0
   -0.4692   -3.2919   -0.4236 H   0  0  0  0  0  0  0  0  0  0  0  0
   -0.6652   -1.9576   -1.5520 H   0  0  0  0  0  0  0  0  0  0  0  0
    1.3628   -2.2851    0.6610 H   0  0  0  0  0  0  0  0  0  0  0  0
    1.6618   -2.1982   -1.0767 H   0  0  0  0  0  0  0  0  0  0  0  0
    0.3497    0.0535   -2.0584 H   0  0  0  0  0  0  0  0  0  0  0  0
    1.3658    1.3873   -1.4611 H   0  0  0  0  0  0  0  0  0  0  0  0
    2.1234   -0.0827   -2.1197 H   0  0  0  0  0  0  0  0  0  0  0  0
    3.0264    0.8471    0.6882 H   0  0  0  0  0  0  0  0  0  0  0  0
    4.4215   -1.0605    1.0565 H   0  0  0  0  0  0  0  0  0  0  0  0
    3.1548   -2.1457    0.2097 H   0  0  0  0  0  0  0  0  0  0  0  0
  1  2  1  0  0  0  0
  2  3  2  0  0  0  0
  2  4  1  0  0  0  0
  4  5  1  0  0  0  0
  5  6  1  0  0  0  0
  6  7  1  0  0  0  0
  5  7  1  0  0  0  0
  7  8  1  0  0  0  0
  7  9  1  0  0  0  0
  6 10  1  0  0  0  0
 10 11  1  0  0  0  0
 11 12  1  0  0  0  0
  4 12  1  0  0  0  0
 12 13  1  0  0  0  0
 12 14  1  0  0  0  0
 14 15  2  0  0  0  0
  1 16  1  0  0  0  0
  1 17  1  0  0  0  0
  1 18  1  0  0  0  0
  3 19  1  0  0  0  0
  3 20  1  0  0  0  0
  4 21  1  0  0  0  0
  5 22  1  0  0  0  0
  6 23  1  0  0  0  0
  8 24  1  0  0  0  0
  8 25  1  0  0  0  0
  8 26  1  0  0  0  0
  9 27  1  0  0  0  0
  9 28  1  0  0  0  0
  9 29  1  0  0  0  0
 10 30  1  0  0  0  0
 10 31  1  0  0  0  0
 11 32  1  0  0  0  0
 11 33  1  0  0  0  0
 13 34  1  0  0  0  0
 13 35  1  0  0  0  0
 13 36  1  0  0  0  0
 14 37  1  0  0  0  0
 15 38  1  0  0  0  0
 15 39  1  0  0  0  0
M  END
$$$$
