C11H14O2
APtclcactv06211804403D 0   0.00000     0.00000
 
 27 27  0  0  0  0  0  0  0  0999 V2000
    4.4866   -0.1408    0.2675 C   0  0  0  0  0  0  0  0  0  0  0  0
    3.1107    0.3942    0.6694 C   0  0  0  0  0  0  0  0  0  0  0  0
    3.0182    1.8801    0.3165 C   0  0  0  0  0  0  0  0  0  0  0  0
    2.0404   -0.3655   -0.0711 C   0  0  0  0  0  0  0  0  0  0  0  0
    2.3467   -1.2446   -0.8413 O   0  0  0  0  0  0  0  0  0  0  0  0
    0.7468   -0.0655    0.1249 O   0  0  0  0  0  0  0  0  0  0  0  0
   -0.2296   -0.8382   -0.6220 C   0  0  0  0  0  0  0  0  0  0  0  0
   -1.6173   -0.3639   -0.2752 C   0  0  0  0  0  0  0  0  0  0  0  0
   -2.2037    0.6516   -1.0071 C   0  0  0  0  0  0  0  0  0  0  0  0
   -3.4766    1.0867   -0.6889 C   0  0  0  0  0  0  0  0  0  0  0  0
   -4.1633    0.5060    0.3609 C   0  0  0  0  0  0  0  0  0  0  0  0
   -3.5772   -0.5102    1.0922 C   0  0  0  0  0  0  0  0  0  0  0  0
   -2.3060   -0.9482    0.7713 C   0  0  0  0  0  0  0  0  0  0  0  0
    5.2607    0.4087    0.8032 H   0  0  0  0  0  0  0  0  0  0  0  0
    4.5525   -1.1993    0.5189 H   0  0  0  0  0  0  0  0  0  0  0  0
    4.6269   -0.0129   -0.8058 H   0  0  0  0  0  0  0  0  0  0  0  0
    2.9704    0.2663    1.7427 H   0  0  0  0  0  0  0  0  0  0  0  0
    3.1585    2.0080   -0.7568 H   0  0  0  0  0  0  0  0  0  0  0  0
    2.0380    2.2612    0.6028 H   0  0  0  0  0  0  0  0  0  0  0  0
    3.7924    2.4296    0.8521 H   0  0  0  0  0  0  0  0  0  0  0  0
   -0.0570   -0.7065   -1.6902 H   0  0  0  0  0  0  0  0  0  0  0  0
   -0.1314   -1.8930   -0.3655 H   0  0  0  0  0  0  0  0  0  0  0  0
   -1.6672    1.1053   -1.8273 H   0  0  0  0  0  0  0  0  0  0  0  0
   -3.9345    1.8806   -1.2603 H   0  0  0  0  0  0  0  0  0  0  0  0
   -5.1575    0.8464    0.6100 H   0  0  0  0  0  0  0  0  0  0  0  0
   -4.1136   -0.9636    1.9127 H   0  0  0  0  0  0  0  0  0  0  0  0
   -1.8481   -1.7421    1.3427 H   0  0  0  0  0  0  0  0  0  0  0  0
  1  2  1  0  0  0  0
  2  3  1  0  0  0  0
  2  4  1  0  0  0  0
  4  5  2  0  0  0  0
  4  6  1  0  0  0  0
  6  7  1  0  0  0  0
  7  8  1  0  0  0  0
  8  9  2  0  0  0  0
  9 10  1  0  0  0  0
 10 11  2  0  0  0  0
 11 12  1  0  0  0  0
 12 13  2  0  0  0  0
  8 13  1  0  0  0  0
  1 14  1  0  0  0  0
  1 15  1  0  0  0  0
  1 16  1  0  0  0  0
  2 17  1  0  0  0  0
  3 18  1  0  0  0  0
  3 19  1  0  0  0  0
  3 20  1  0  0  0  0
  7 21  1  0  0  0  0
  7 22  1  0  0  0  0
  9 23  1  0  0  0  0
 10 24  1  0  0  0  0
 11 25  1  0  0  0  0
 12 26  1  0  0  0  0
 13 27  1  0  0  0  0
M  END
$$$$
