C10H13N5O5
APtclcactv06211804313D 0   0.00000     0.00000
 
 33 35  0  0  0  0  0  0  0  0999 V2000
    0.0318   -1.6524   -0.0105 C   0  0  0  0  0  0  0  0  0  0  0  0
   -1.1366   -2.1418    0.2916 N   0  0  0  0  0  0  0  0  0  0  0  0
   -2.0707   -1.1708    0.1656 C   0  0  0  0  0  0  0  0  0  0  0  0
   -1.4158   -0.0148   -0.2415 C   0  0  0  0  0  0  0  0  0  0  0  0
   -0.0976   -0.3369   -0.3465 N   0  0  0  0  0  0  0  0  0  0  0  0
    0.9850    0.5652   -0.7470 C   0  0  0  0  0  0  0  0  0  0  0  0
    1.4142    1.4518    0.4430 C   0  0  0  0  0  0  0  0  0  0  0  0
    2.6109    0.6957    1.0622 C   0  0  0  0  0  0  0  0  0  0  0  0
    2.7632   -0.5584    0.1730 C   0  0  0  0  0  0  0  0  0  0  0  0
    2.1675   -0.1898   -1.0900 O   0  0  0  0  0  0  0  0  0  0  0  0
    4.2424   -0.9011   -0.0156 C   0  0  0  0  0  0  0  0  0  0  0  0
    4.3586   -2.1265   -0.7414 O   0  0  0  0  0  0  0  0  0  0  0  0
    3.7930    1.4966    1.0050 O   0  0  0  0  0  0  0  0  0  0  0  0
    1.8206    2.7428   -0.0155 O   0  0  0  0  0  0  0  0  0  0  0  0
   -2.1494    1.1261   -0.4425 N   0  0  0  0  0  0  0  0  0  0  0  0
   -3.4938    1.1259   -0.2463 C   0  0  0  0  0  0  0  0  0  0  0  0
   -4.1523    0.0540    0.1392 N   0  0  0  0  0  0  0  0  0  0  0  0
   -3.5225   -1.1104    0.3607 C   0  0  0  0  0  0  0  0  0  0  0  0
   -4.1454   -2.0981    0.7178 O   0  0  0  0  0  0  0  0  0  0  0  0
   -4.1901    2.2858   -0.4574 N   0  0  0  0  0  0  0  0  0  0  0  0
    0.9610   -2.2025    0.0069 H   0  0  0  0  0  0  0  0  0  0  0  0
    0.6710    1.1841   -1.5875 H   0  0  0  0  0  0  0  0  0  0  0  0
    0.6029    1.5400    1.1656 H   0  0  0  0  0  0  0  0  0  0  0  0
    2.3913    0.4101    2.0909 H   0  0  0  0  0  0  0  0  0  0  0  0
    2.2304   -1.4018    0.6121 H   0  0  0  0  0  0  0  0  0  0  0  0
    4.7325   -0.1017   -0.5714 H   0  0  0  0  0  0  0  0  0  0  0  0
    4.7173   -1.0098    0.9595 H   0  0  0  0  0  0  0  0  0  0  0  0
    5.2710   -2.4059   -0.8980 H   0  0  0  0  0  0  0  0  0  0  0  0
    4.5755    1.0702    1.3805 H   0  0  0  0  0  0  0  0  0  0  0  0
    2.1005    3.3409    0.6909 H   0  0  0  0  0  0  0  0  0  0  0  0
   -1.7049    1.9400   -0.7268 H   0  0  0  0  0  0  0  0  0  0  0  0
   -3.7230    3.0870   -0.7415 H   0  0  0  0  0  0  0  0  0  0  0  0
   -5.1505    2.3063   -0.3228 H   0  0  0  0  0  0  0  0  0  0  0  0
  1  2  2  0  0  0  0
  2  3  1  0  0  0  0
  3  4  2  0  0  0  0
  4  5  1  0  0  0  0
  1  5  1  0  0  0  0
  5  6  1  0  0  0  0
  6  7  1  0  0  0  0
  7  8  1  0  0  0  0
  8  9  1  0  0  0  0
  9 10  1  0  0  0  0
  6 10  1  0  0  0  0
  9 11  1  0  0  0  0
 11 12  1  0  0  0  0
  8 13  1  0  0  0  0
  7 14  1  0  0  0  0
  4 15  1  0  0  0  0
 15 16  1  0  0  0  0
 16 17  2  0  0  0  0
 17 18  1  0  0  0  0
  3 18  1  0  0  0  0
 18 19  2  0  0  0  0
 16 20  1  0  0  0  0
  1 21  1  0  0  0  0
  6 22  1  0  0  0  0
  7 23  1  0  0  0  0
  8 24  1  0  0  0  0
  9 25  1  0  0  0  0
 11 26  1  0  0  0  0
 11 27  1  0  0  0  0
 12 28  1  0  0  0  0
 13 29  1  0  0  0  0
 14 30  1  0  0  0  0
 15 31  1  0  0  0  0
 20 32  1  0  0  0  0
 20 33  1  0  0  0  0
M  END
$$$$
