C9H15N3O2S
APtclcactv06291803003D 0   0.00000     0.00000
 
 30 30  0  0  0  0  0  0  0  0999 V2000
   -0.1315   -1.3084    1.1410 C   0  0  0  0  0  0  0  0  0  0  0  0
   -1.4186   -0.9843    0.5113 N   0  3  0  0  0  0  0  0  0  0  0  0
   -1.5669   -1.7601   -0.7273 C   0  0  0  0  0  0  0  0  0  0  0  0
   -2.5126   -1.3191    1.4328 C   0  0  0  0  0  0  0  0  0  0  0  0
   -1.4633    0.4504    0.1988 C   0  0  0  0  0  0  0  0  0  0  0  0
   -0.6615    0.7199   -1.0761 C   0  0  0  0  0  0  0  0  0  0  0  0
    0.7719    0.3049   -0.8652 C   0  0  0  0  0  0  0  0  0  0  0  0
    1.4252   -0.6732   -1.5151 C   0  0  0  0  0  0  0  0  0  0  0  0
    2.6812   -0.7300   -1.0414 N   0  0  0  0  0  0  0  0  0  0  0  0
    2.8364    0.1843   -0.1123 C   0  0  0  0  0  0  0  0  0  0  0  0
    1.6629    0.8598    0.0258 N   0  0  0  0  0  0  0  0  0  0  0  0
    4.3144    0.4889    0.7974 S   0  5  0  0  0  0  0  0  0  0  0  0
   -2.8943    0.8749   -0.0085 C   0  0  0  0  0  0  0  0  0  0  0  0
   -3.6780    0.1207   -0.5346 O   0  0  0  0  0  0  0  0  0  0  0  0
   -3.2982    2.0910    0.3911 O   0  0  0  0  0  0  0  0  0  0  0  0
    0.6498   -1.3283    0.3813 H   0  0  0  0  0  0  0  0  0  0  0  0
    0.1078   -0.5523    1.8886 H   0  0  0  0  0  0  0  0  0  0  0  0
   -0.1973   -2.2852    1.6202 H   0  0  0  0  0  0  0  0  0  0  0  0
   -1.7545   -2.8052   -0.4811 H   0  0  0  0  0  0  0  0  0  0  0  0
   -2.4038   -1.3668   -1.3043 H   0  0  0  0  0  0  0  0  0  0  0  0
   -0.6524   -1.6839   -1.3154 H   0  0  0  0  0  0  0  0  0  0  0  0
   -2.4532   -0.6809    2.3144 H   0  0  0  0  0  0  0  0  0  0  0  0
   -3.4688   -1.1615    0.9339 H   0  0  0  0  0  0  0  0  0  0  0  0
   -2.4275   -2.3633    1.7337 H   0  0  0  0  0  0  0  0  0  0  0  0
   -1.0326    1.0158    1.0252 H   0  0  0  0  0  0  0  0  0  0  0  0
   -1.0875    0.1486   -1.9008 H   0  0  0  0  0  0  0  0  0  0  0  0
   -0.7009    1.7833   -1.3121 H   0  0  0  0  0  0  0  0  0  0  0  0
    1.0111   -1.3060   -2.2861 H   0  0  0  0  0  0  0  0  0  0  0  0
    1.4861    1.5898    0.6396 H   0  0  0  0  0  0  0  0  0  0  0  0
   -4.2253    2.3184    0.2368 H   0  0  0  0  0  0  0  0  0  0  0  0
  1  2  1  0  0  0  0
  2  3  1  0  0  0  0
  2  4  1  0  0  0  0
  2  5  1  0  0  0  0
  5  6  1  0  0  0  0
  6  7  1  0  0  0  0
  7  8  2  0  0  0  0
  8  9  1  0  0  0  0
  9 10  2  0  0  0  0
 10 11  1  0  0  0  0
  7 11  1  0  0  0  0
 10 12  1  0  0  0  0
  5 13  1  0  0  0  0
 13 14  2  0  0  0  0
 13 15  1  0  0  0  0
  1 16  1  0  0  0  0
  1 17  1  0  0  0  0
  1 18  1  0  0  0  0
  3 19  1  0  0  0  0
  3 20  1  0  0  0  0
  3 21  1  0  0  0  0
  4 22  1  0  0  0  0
  4 23  1  0  0  0  0
  4 24  1  0  0  0  0
  5 25  1  0  0  0  0
  6 26  1  0  0  0  0
  6 27  1  0  0  0  0
  8 28  1  0  0  0  0
 11 29  1  0  0  0  0
 15 30  1  0  0  0  0
M  CHG  2   2   1  12  -1
M  END
$$$$
