C21H36O2
APtclcactv06201819363D 0   0.00000     0.00000
 
 59 59  0  0  0  0  0  0  0  0999 V2000
   12.6505    0.0001    0.1248 C   0  0  0  0  0  0  0  0  0  0  0  0
   11.3328    0.0008    0.9023 C   0  0  0  0  0  0  0  0  0  0  0  0
   10.1605   -0.0001   -0.0809 C   0  0  0  0  0  0  0  0  0  0  0  0
    8.8428    0.0006    0.6966 C   0  0  0  0  0  0  0  0  0  0  0  0
    7.6705   -0.0003   -0.2865 C   0  0  0  0  0  0  0  0  0  0  0  0
    6.3528    0.0004    0.4910 C   0  0  0  0  0  0  0  0  0  0  0  0
    5.1805   -0.0005   -0.4922 C   0  0  0  0  0  0  0  0  0  0  0  0
    3.8628    0.0002    0.2853 C   0  0  0  0  0  0  0  0  0  0  0  0
    2.6905   -0.0006   -0.6979 C   0  0  0  0  0  0  0  0  0  0  0  0
    1.3728    0.0001    0.0796 C   0  0  0  0  0  0  0  0  0  0  0  0
    0.2005   -0.0008   -0.9035 C   0  0  0  0  0  0  0  0  0  0  0  0
   -1.1172   -0.0001   -0.1260 C   0  0  0  0  0  0  0  0  0  0  0  0
   -2.2895   -0.0010   -1.1092 C   0  0  0  0  0  0  0  0  0  0  0  0
   -3.6072   -0.0003   -0.3317 C   0  0  0  0  0  0  0  0  0  0  0  0
   -4.7795   -0.0012   -1.3149 C   0  0  0  0  0  0  0  0  0  0  0  0
   -6.0774   -0.0005   -0.5490 C   0  0  0  0  0  0  0  0  0  0  0  0
   -6.6714    1.1971   -0.1996 C   0  0  0  0  0  0  0  0  0  0  0  0
   -7.8664    1.2004    0.5060 C   0  0  0  0  0  0  0  0  0  0  0  0
   -8.4644    0.0008    0.8599 C   0  0  0  0  0  0  0  0  0  0  0  0
   -7.8666   -1.1995    0.5078 C   0  0  0  0  0  0  0  0  0  0  0  0
   -6.6743   -1.1974   -0.2024 C   0  0  0  0  0  0  0  0  0  0  0  0
   -8.4502   -2.3770    0.8536 O   0  0  0  0  0  0  0  0  0  0  0  0
   -8.4497    2.3786    0.8502 O   0  0  0  0  0  0  0  0  0  0  0  0
   13.4856    0.0007    0.8252 H   0  0  0  0  0  0  0  0  0  0  0  0
   12.7023   -0.8905   -0.5016 H   0  0  0  0  0  0  0  0  0  0  0  0
   12.7023    0.8895   -0.5032 H   0  0  0  0  0  0  0  0  0  0  0  0
   11.2810   -0.8887    1.5303 H   0  0  0  0  0  0  0  0  0  0  0  0
   11.2810    0.8913    1.5287 H   0  0  0  0  0  0  0  0  0  0  0  0
   10.2123    0.8893   -0.7089 H   0  0  0  0  0  0  0  0  0  0  0  0
   10.2123   -0.8907   -0.7073 H   0  0  0  0  0  0  0  0  0  0  0  0
    8.7910   -0.8888    1.3246 H   0  0  0  0  0  0  0  0  0  0  0  0
    8.7910    0.8911    1.3230 H   0  0  0  0  0  0  0  0  0  0  0  0
    7.7223    0.8891   -0.9145 H   0  0  0  0  0  0  0  0  0  0  0  0
    7.7223   -0.8908   -0.9129 H   0  0  0  0  0  0  0  0  0  0  0  0
    6.3010   -0.8890    1.1189 H   0  0  0  0  0  0  0  0  0  0  0  0
    6.3010    0.8910    1.1174 H   0  0  0  0  0  0  0  0  0  0  0  0
    5.2323    0.8890   -1.1202 H   0  0  0  0  0  0  0  0  0  0  0  0
    5.2323   -0.8910   -1.1186 H   0  0  0  0  0  0  0  0  0  0  0  0
    3.8110   -0.8892    0.9133 H   0  0  0  0  0  0  0  0  0  0  0  0
    3.8110    0.8908    0.9117 H   0  0  0  0  0  0  0  0  0  0  0  0
    2.7423    0.8888   -1.3258 H   0  0  0  0  0  0  0  0  0  0  0  0
    2.7423   -0.8912   -1.3242 H   0  0  0  0  0  0  0  0  0  0  0  0
    1.3210   -0.8894    0.7076 H   0  0  0  0  0  0  0  0  0  0  0  0
    1.3210    0.8906    0.7060 H   0  0  0  0  0  0  0  0  0  0  0  0
    0.2523    0.8886   -1.5315 H   0  0  0  0  0  0  0  0  0  0  0  0
    0.2523   -0.8914   -1.5299 H   0  0  0  0  0  0  0  0  0  0  0  0
   -1.1690   -0.8895    0.5020 H   0  0  0  0  0  0  0  0  0  0  0  0
   -1.1690    0.8904    0.5004 H   0  0  0  0  0  0  0  0  0  0  0  0
   -2.2377    0.8884   -1.7372 H   0  0  0  0  0  0  0  0  0  0  0  0
   -2.2377   -0.8915   -1.7356 H   0  0  0  0  0  0  0  0  0  0  0  0
   -3.6590   -0.8897    0.2963 H   0  0  0  0  0  0  0  0  0  0  0  0
   -3.6590    0.8903    0.2947 H   0  0  0  0  0  0  0  0  0  0  0  0
   -4.7277    0.8883   -1.9428 H   0  0  0  0  0  0  0  0  0  0  0  0
   -4.7277   -0.8917   -1.9412 H   0  0  0  0  0  0  0  0  0  0  0  0
   -6.2052    2.1314   -0.4755 H   0  0  0  0  0  0  0  0  0  0  0  0
   -9.3942    0.0013    1.4094 H   0  0  0  0  0  0  0  0  0  0  0  0
   -6.2083   -2.1322   -0.4769 H   0  0  0  0  0  0  0  0  0  0  0  0
   -9.0685   -2.7185    0.1932 H   0  0  0  0  0  0  0  0  0  0  0  0
   -9.0677    2.7194    0.1891 H   0  0  0  0  0  0  0  0  0  0  0  0
  1  2  1  0  0  0  0
  2  3  1  0  0  0  0
  3  4  1  0  0  0  0
  4  5  1  0  0  0  0
  5  6  1  0  0  0  0
  6  7  1  0  0  0  0
  7  8  1  0  0  0  0
  8  9  1  0  0  0  0
  9 10  1  0  0  0  0
 10 11  1  0  0  0  0
 11 12  1  0  0  0  0
 12 13  1  0  0  0  0
 13 14  1  0  0  0  0
 14 15  1  0  0  0  0
 15 16  1  0  0  0  0
 16 17  2  0  0  0  0
 17 18  1  0  0  0  0
 18 19  2  0  0  0  0
 19 20  1  0  0  0  0
 20 21  2  0  0  0  0
 16 21  1  0  0  0  0
 20 22  1  0  0  0  0
 18 23  1  0  0  0  0
  1 24  1  0  0  0  0
  1 25  1  0  0  0  0
  1 26  1  0  0  0  0
  2 27  1  0  0  0  0
  2 28  1  0  0  0  0
  3 29  1  0  0  0  0
  3 30  1  0  0  0  0
  4 31  1  0  0  0  0
  4 32  1  0  0  0  0
  5 33  1  0  0  0  0
  5 34  1  0  0  0  0
  6 35  1  0  0  0  0
  6 36  1  0  0  0  0
  7 37  1  0  0  0  0
  7 38  1  0  0  0  0
  8 39  1  0  0  0  0
  8 40  1  0  0  0  0
  9 41  1  0  0  0  0
  9 42  1  0  0  0  0
 10 43  1  0  0  0  0
 10 44  1  0  0  0  0
 11 45  1  0  0  0  0
 11 46  1  0  0  0  0
 12 47  1  0  0  0  0
 12 48  1  0  0  0  0
 13 49  1  0  0  0  0
 13 50  1  0  0  0  0
 14 51  1  0  0  0  0
 14 52  1  0  0  0  0
 15 53  1  0  0  0  0
 15 54  1  0  0  0  0
 17 55  1  0  0  0  0
 19 56  1  0  0  0  0
 21 57  1  0  0  0  0
 22 58  1  0  0  0  0
 23 59  1  0  0  0  0
M  END
$$$$
