C9H10O4
APtclcactv06211806283D 0   0.00000     0.00000
 
 23 23  0  0  0  0  0  0  0  0999 V2000
   -0.2411    2.5234    0.1372 C   0  0  0  0  0  0  0  0  0  0  0  0
    0.5128    1.2209    0.0577 C   0  0  0  0  0  0  0  0  0  0  0  0
    1.8730    1.2266   -0.0593 C   0  0  0  0  0  0  0  0  0  0  0  0
    2.5781    0.0288   -0.1334 C   0  0  0  0  0  0  0  0  0  0  0  0
    1.9048   -1.1832   -0.0890 C   0  0  0  0  0  0  0  0  0  0  0  0
    0.5253   -1.2027    0.0295 C   0  0  0  0  0  0  0  0  0  0  0  0
   -0.1816    0.0075    0.1097 C   0  0  0  0  0  0  0  0  0  0  0  0
   -1.6476   -0.0001    0.2359 C   0  0  0  0  0  0  0  0  0  0  0  0
   -2.1628   -0.0199    1.3365 O   0  0  0  0  0  0  0  0  0  0  0  0
   -2.4193    0.0149   -0.8692 O   0  0  0  0  0  0  0  0  0  0  0  0
   -3.8574    0.0063   -0.6692 C   0  0  0  0  0  0  0  0  0  0  0  0
   -0.1388   -2.3847    0.0730 O   0  0  0  0  0  0  0  0  0  0  0  0
    3.9300    0.0467   -0.2501 O   0  0  0  0  0  0  0  0  0  0  0  0
   -0.5110    2.8488   -0.8675 H   0  0  0  0  0  0  0  0  0  0  0  0
   -1.1456    2.3841    0.7292 H   0  0  0  0  0  0  0  0  0  0  0  0
    0.3880    3.2793    0.6072 H   0  0  0  0  0  0  0  0  0  0  0  0
    2.4049    2.1658   -0.0950 H   0  0  0  0  0  0  0  0  0  0  0  0
    2.4557   -2.1102   -0.1472 H   0  0  0  0  0  0  0  0  0  0  0  0
   -4.1431   -0.8938   -0.1247 H   0  0  0  0  0  0  0  0  0  0  0  0
   -4.1498    0.8859   -0.0958 H   0  0  0  0  0  0  0  0  0  0  0  0
   -4.3589    0.0201   -1.6368 H   0  0  0  0  0  0  0  0  0  0  0  0
   -0.2556   -2.7376    0.9657 H   0  0  0  0  0  0  0  0  0  0  0  0
    4.3979    0.0423    0.5962 H   0  0  0  0  0  0  0  0  0  0  0  0
  1  2  1  0  0  0  0
  2  3  2  0  0  0  0
  3  4  1  0  0  0  0
  4  5  2  0  0  0  0
  5  6  1  0  0  0  0
  6  7  2  0  0  0  0
  2  7  1  0  0  0  0
  7  8  1  0  0  0  0
  8  9  2  0  0  0  0
  8 10  1  0  0  0  0
 10 11  1  0  0  0  0
  6 12  1  0  0  0  0
  4 13  1  0  0  0  0
  1 14  1  0  0  0  0
  1 15  1  0  0  0  0
  1 16  1  0  0  0  0
  3 17  1  0  0  0  0
  5 18  1  0  0  0  0
 11 19  1  0  0  0  0
 11 20  1  0  0  0  0
 11 21  1  0  0  0  0
 12 22  1  0  0  0  0
 13 23  1  0  0  0  0
M  END
$$$$
