C5H7NS
APtclcactv06211806283D 0   0.00000     0.00000
 
 14 13  0  0  0  0  0  0  0  0999 V2000
    3.6063    1.0725    0.0530 C   0  0  0  0  0  0  0  0  0  0  0  0
    2.9792   -0.0402   -0.2383 C   0  0  0  0  0  0  0  0  0  0  0  0
    1.7201   -0.4114    0.5020 C   0  0  0  0  0  0  0  0  0  0  0  0
    0.5918   -0.6566   -0.5019 C   0  0  0  0  0  0  0  0  0  0  0  0
   -0.6322   -1.0175    0.2177 N   0  0  0  0  0  0  0  0  0  0  0  0
   -1.6568   -0.3110    0.1015 C   0  0  0  0  0  0  0  0  0  0  0  0
   -2.9303    0.5670   -0.0428 S   0  0  0  0  0  0  0  0  0  0  0  0
    4.5087    1.3386   -0.4775 H   0  0  0  0  0  0  0  0  0  0  0  0
    3.2186    1.7259    0.8205 H   0  0  0  0  0  0  0  0  0  0  0  0
    3.3645   -0.6914   -1.0088 H   0  0  0  0  0  0  0  0  0  0  0  0
    1.8936   -1.3177    1.0821 H   0  0  0  0  0  0  0  0  0  0  0  0
    1.4398    0.4011    1.1724 H   0  0  0  0  0  0  0  0  0  0  0  0
    0.4184    0.2498   -1.0821 H   0  0  0  0  0  0  0  0  0  0  0  0
    0.8721   -1.4690   -1.1723 H   0  0  0  0  0  0  0  0  0  0  0  0
  1  2  2  0  0  0  0
  2  3  1  0  0  0  0
  3  4  1  0  0  0  0
  4  5  1  0  0  0  0
  5  6  2  0  0  0  0
  6  7  2  0  0  0  0
  1  8  1  0  0  0  0
  1  9  1  0  0  0  0
  2 10  1  0  0  0  0
  3 11  1  0  0  0  0
  3 12  1  0  0  0  0
  4 13  1  0  0  0  0
  4 14  1  0  0  0  0
M  END
$$$$
