C9H10O
APtclcactv06211804413D 0   0.00000     0.00000
 
 20 20  0  0  0  0  0  0  0  0999 V2000
   -3.1781   -0.1692   -0.3735 C   0  0  0  0  0  0  0  0  0  0  0  0
   -2.4285   -1.2945   -0.0856 C   0  0  0  0  0  0  0  0  0  0  0  0
   -1.1063   -1.1651    0.2964 C   0  0  0  0  0  0  0  0  0  0  0  0
   -0.5335    0.0895    0.3902 C   0  0  0  0  0  0  0  0  0  0  0  0
   -1.2828    1.2147    0.1014 C   0  0  0  0  0  0  0  0  0  0  0  0
   -2.6054    1.0854   -0.2792 C   0  0  0  0  0  0  0  0  0  0  0  0
    0.9076    0.2306    0.8076 C   0  0  0  0  0  0  0  0  0  0  0  0
    1.8035    0.1952   -0.4322 C   0  0  0  0  0  0  0  0  0  0  0  0
    3.2446    0.3362   -0.0147 C   0  0  0  0  0  0  0  0  0  0  0  0
    4.0549   -0.4933   -0.3519 O   0  0  0  0  0  0  0  0  0  0  0  0
   -4.2098   -0.2705   -0.6763 H   0  0  0  0  0  0  0  0  0  0  0  0
   -2.8760   -2.2747   -0.1588 H   0  0  0  0  0  0  0  0  0  0  0  0
   -0.5209   -2.0442    0.5220 H   0  0  0  0  0  0  0  0  0  0  0  0
   -0.8355    2.1949    0.1754 H   0  0  0  0  0  0  0  0  0  0  0  0
   -3.1909    1.9646   -0.5045 H   0  0  0  0  0  0  0  0  0  0  0  0
    1.0441    1.1788    1.3275 H   0  0  0  0  0  0  0  0  0  0  0  0
    1.1752   -0.5904    1.4728 H   0  0  0  0  0  0  0  0  0  0  0  0
    1.6670   -0.7531   -0.9521 H   0  0  0  0  0  0  0  0  0  0  0  0
    1.5359    1.0161   -1.0974 H   0  0  0  0  0  0  0  0  0  0  0  0
    3.5528    1.1792    0.5859 H   0  0  0  0  0  0  0  0  0  0  0  0
  1  2  2  0  0  0  0
  2  3  1  0  0  0  0
  3  4  2  0  0  0  0
  4  5  1  0  0  0  0
  5  6  2  0  0  0  0
  1  6  1  0  0  0  0
  4  7  1  0  0  0  0
  7  8  1  0  0  0  0
  8  9  1  0  0  0  0
  9 10  2  0  0  0  0
  1 11  1  0  0  0  0
  2 12  1  0  0  0  0
  3 13  1  0  0  0  0
  5 14  1  0  0  0  0
  6 15  1  0  0  0  0
  7 16  1  0  0  0  0
  7 17  1  0  0  0  0
  8 18  1  0  0  0  0
  8 19  1  0  0  0  0
  9 20  1  0  0  0  0
M  END
$$$$
