C9H10O2
APtclcactv06211804413D 0   0.00000     0.00000
 
 21 21  0  0  0  0  0  0  0  0999 V2000
   -3.7031   -0.0004   -0.5194 C   0  0  0  0  0  0  0  0  0  0  0  0
   -3.0553   -1.1974   -0.2773 C   0  0  0  0  0  0  0  0  0  0  0  0
   -1.7605   -1.1970    0.2068 C   0  0  0  0  0  0  0  0  0  0  0  0
   -1.1133    0.0003    0.4484 C   0  0  0  0  0  0  0  0  0  0  0  0
   -1.7607    1.1973    0.2055 C   0  0  0  0  0  0  0  0  0  0  0  0
   -3.0560    1.1969   -0.2774 C   0  0  0  0  0  0  0  0  0  0  0  0
    0.2979    0.0007    0.9772 C   0  0  0  0  0  0  0  0  0  0  0  0
    1.2816   -0.0001   -0.1947 C   0  0  0  0  0  0  0  0  0  0  0  0
    2.6413    0.0003    0.3148 O   0  0  0  0  0  0  0  0  0  0  0  0
    3.6315   -0.0004   -0.5914 C   0  0  0  0  0  0  0  0  0  0  0  0
    4.7836   -0.0001   -0.2272 O   0  0  0  0  0  0  0  0  0  0  0  0
   -4.7131   -0.0007   -0.9019 H   0  0  0  0  0  0  0  0  0  0  0  0
   -3.5610   -2.1329   -0.4661 H   0  0  0  0  0  0  0  0  0  0  0  0
   -1.2547   -2.1322    0.3967 H   0  0  0  0  0  0  0  0  0  0  0  0
   -1.2553    2.1327    0.3949 H   0  0  0  0  0  0  0  0  0  0  0  0
   -3.5619    2.1321   -0.4669 H   0  0  0  0  0  0  0  0  0  0  0  0
    0.4578    0.8912    1.5852 H   0  0  0  0  0  0  0  0  0  0  0  0
    0.4579   -0.8888    1.5865 H   0  0  0  0  0  0  0  0  0  0  0  0
    1.1216   -0.8906   -0.8026 H   0  0  0  0  0  0  0  0  0  0  0  0
    1.1216    0.8894   -0.8040 H   0  0  0  0  0  0  0  0  0  0  0  0
    3.3985   -0.0012   -1.6459 H   0  0  0  0  0  0  0  0  0  0  0  0
  1  2  2  0  0  0  0
  2  3  1  0  0  0  0
  3  4  2  0  0  0  0
  4  5  1  0  0  0  0
  5  6  2  0  0  0  0
  1  6  1  0  0  0  0
  4  7  1  0  0  0  0
  7  8  1  0  0  0  0
  8  9  1  0  0  0  0
  9 10  1  0  0  0  0
 10 11  2  0  0  0  0
  1 12  1  0  0  0  0
  2 13  1  0  0  0  0
  3 14  1  0  0  0  0
  5 15  1  0  0  0  0
  6 16  1  0  0  0  0
  7 17  1  0  0  0  0
  7 18  1  0  0  0  0
  8 19  1  0  0  0  0
  8 20  1  0  0  0  0
 10 21  1  0  0  0  0
M  END
$$$$
