C5H9N3
APtclcactv06211804313D 0   0.00000     0.00000
 
 17 17  0  0  0  0  0  0  0  0999 V2000
    1.0631    1.1051    0.1237 C   0  0  0  0  0  0  0  0  0  0  0  0
    0.3376   -0.0136    0.3124 C   0  0  0  0  0  0  0  0  0  0  0  0
    1.1710   -1.0719    0.0690 N   0  0  0  0  0  0  0  0  0  0  0  0
    2.3776   -0.5626   -0.2602 C   0  0  0  0  0  0  0  0  0  0  0  0
    2.3056    0.7399   -0.2254 N   0  0  0  0  0  0  0  0  0  0  0  0
   -1.1129   -0.0864    0.7147 C   0  0  0  0  0  0  0  0  0  0  0  0
   -1.9940    0.0299   -0.5307 C   0  0  0  0  0  0  0  0  0  0  0  0
   -3.4079   -0.0411   -0.1385 N   0  0  0  0  0  0  0  0  0  0  0  0
    0.7059    2.1188    0.2302 H   0  0  0  0  0  0  0  0  0  0  0  0
    0.9383   -2.0120    0.1229 H   0  0  0  0  0  0  0  0  0  0  0  0
    3.2566   -1.1380   -0.5108 H   0  0  0  0  0  0  0  0  0  0  0  0
   -1.3056   -1.0389    1.2085 H   0  0  0  0  0  0  0  0  0  0  0  0
   -1.3416    0.7305    1.3991 H   0  0  0  0  0  0  0  0  0  0  0  0
   -1.8013    0.9823   -1.0244 H   0  0  0  0  0  0  0  0  0  0  0  0
   -1.7654   -0.7870   -1.2151 H   0  0  0  0  0  0  0  0  0  0  0  0
   -3.6294    0.6667    0.5456 H   0  0  0  0  0  0  0  0  0  0  0  0
   -4.0108    0.0335   -0.9441 H   0  0  0  0  0  0  0  0  0  0  0  0
  1  2  2  0  0  0  0
  2  3  1  0  0  0  0
  3  4  1  0  0  0  0
  4  5  2  0  0  0  0
  1  5  1  0  0  0  0
  2  6  1  0  0  0  0
  6  7  1  0  0  0  0
  7  8  1  0  0  0  0
  1  9  1  0  0  0  0
  3 10  1  0  0  0  0
  4 11  1  0  0  0  0
  6 12  1  0  0  0  0
  6 13  1  0  0  0  0
  7 14  1  0  0  0  0
  7 15  1  0  0  0  0
  8 16  1  0  0  0  0
  8 17  1  0  0  0  0
M  END
$$$$
