C6H11NO
APtclcactv06211804413D 0   0.00000     0.00000
 
 19 19  0  0  0  0  0  0  0  0999 V2000
    1.8697   -0.7022   -0.0475 C   0  0  0  0  0  0  0  0  0  0  0  0
    0.6323   -1.5543   -0.2643 C   0  0  0  0  0  0  0  0  0  0  0  0
   -0.4928   -1.1268    0.6813 C   0  0  0  0  0  0  0  0  0  0  0  0
   -1.2399    0.0279    0.0478 C   0  0  0  0  0  0  0  0  0  0  0  0
   -2.3619   -0.1404   -0.3806 O   0  0  0  0  0  0  0  0  0  0  0  0
   -0.6682    1.2297   -0.0402 N   0  0  0  0  0  0  0  0  0  0  0  0
    0.6905    1.4489    0.4818 C   0  0  0  0  0  0  0  0  0  0  0  0
    1.6894    0.7519   -0.4433 C   0  0  0  0  0  0  0  0  0  0  0  0
    2.1410   -0.7446    1.0073 H   0  0  0  0  0  0  0  0  0  0  0  0
    2.6884   -1.1227   -0.6315 H   0  0  0  0  0  0  0  0  0  0  0  0
    0.2963   -1.4433   -1.2952 H   0  0  0  0  0  0  0  0  0  0  0  0
    0.8794   -2.5995   -0.0787 H   0  0  0  0  0  0  0  0  0  0  0  0
   -1.1753   -1.9618    0.8396 H   0  0  0  0  0  0  0  0  0  0  0  0
   -0.0696   -0.8102    1.6346 H   0  0  0  0  0  0  0  0  0  0  0  0
   -1.1508    1.9639   -0.4512 H   0  0  0  0  0  0  0  0  0  0  0  0
    0.9032    2.5176    0.5106 H   0  0  0  0  0  0  0  0  0  0  0  0
    0.7686    1.0309    1.4854 H   0  0  0  0  0  0  0  0  0  0  0  0
    2.6507    1.2620   -0.3822 H   0  0  0  0  0  0  0  0  0  0  0  0
    1.3229    0.8013   -1.4687 H   0  0  0  0  0  0  0  0  0  0  0  0
  1  2  1  0  0  0  0
  2  3  1  0  0  0  0
  3  4  1  0  0  0  0
  4  5  2  0  0  0  0
  4  6  1  0  0  0  0
  6  7  1  0  0  0  0
  7  8  1  0  0  0  0
  1  8  1  0  0  0  0
  1  9  1  0  0  0  0
  1 10  1  0  0  0  0
  2 11  1  0  0  0  0
  2 12  1  0  0  0  0
  3 13  1  0  0  0  0
  3 14  1  0  0  0  0
  6 15  1  0  0  0  0
  7 16  1  0  0  0  0
  7 17  1  0  0  0  0
  8 18  1  0  0  0  0
  8 19  1  0  0  0  0
M  END
$$$$
