C10H20O2
APtclcactv06211804413D 0   0.00000     0.00000
 
 32 31  0  0  0  0  0  0  0  0999 V2000
    6.0140   -0.4317   -0.0501 C   0  0  0  0  0  0  0  0  0  0  0  0
    4.7351    0.3736    0.1881 C   0  0  0  0  0  0  0  0  0  0  0  0
    3.5184   -0.4874   -0.1573 C   0  0  0  0  0  0  0  0  0  0  0  0
    2.2395    0.3179    0.0810 C   0  0  0  0  0  0  0  0  0  0  0  0
    1.0229   -0.5431   -0.2644 C   0  0  0  0  0  0  0  0  0  0  0  0
   -0.2368    0.2501   -0.0297 C   0  0  0  0  0  0  0  0  0  0  0  0
   -0.1685    1.3874    0.3725 O   0  0  0  0  0  0  0  0  0  0  0  0
   -1.4347   -0.3068   -0.2676 O   0  0  0  0  0  0  0  0  0  0  0  0
   -2.6051    0.5159   -0.0194 C   0  0  0  0  0  0  0  0  0  0  0  0
   -3.8686   -0.2833   -0.3447 C   0  0  0  0  0  0  0  0  0  0  0  0
   -3.9898   -1.4620    0.6232 C   0  0  0  0  0  0  0  0  0  0  0  0
   -5.0946    0.6210   -0.2032 C   0  0  0  0  0  0  0  0  0  0  0  0
    6.8808    0.1817    0.1959 H   0  0  0  0  0  0  0  0  0  0  0  0
    6.0067   -1.3203    0.5811 H   0  0  0  0  0  0  0  0  0  0  0  0
    6.0656   -0.7303   -1.0972 H   0  0  0  0  0  0  0  0  0  0  0  0
    4.6835    0.6722    1.2352 H   0  0  0  0  0  0  0  0  0  0  0  0
    4.7424    1.2622   -0.4431 H   0  0  0  0  0  0  0  0  0  0  0  0
    3.5701   -0.7859   -1.2043 H   0  0  0  0  0  0  0  0  0  0  0  0
    3.5112   -1.3760    0.4740 H   0  0  0  0  0  0  0  0  0  0  0  0
    2.1879    0.6165    1.1280 H   0  0  0  0  0  0  0  0  0  0  0  0
    2.2468    1.2065   -0.5503 H   0  0  0  0  0  0  0  0  0  0  0  0
    1.0745   -0.8416   -1.3114 H   0  0  0  0  0  0  0  0  0  0  0  0
    1.0156   -1.4317    0.3668 H   0  0  0  0  0  0  0  0  0  0  0  0
   -2.6238    0.8144    1.0288 H   0  0  0  0  0  0  0  0  0  0  0  0
   -2.5649    1.4044   -0.6495 H   0  0  0  0  0  0  0  0  0  0  0  0
   -3.8089   -0.6571   -1.3668 H   0  0  0  0  0  0  0  0  0  0  0  0
   -4.0494   -1.0881    1.6453 H   0  0  0  0  0  0  0  0  0  0  0  0
   -4.8899   -2.0314    0.3914 H   0  0  0  0  0  0  0  0  0  0  0  0
   -3.1163   -2.1062    0.5224 H   0  0  0  0  0  0  0  0  0  0  0  0
   -5.0083    1.4607   -0.8927 H   0  0  0  0  0  0  0  0  0  0  0  0
   -5.9947    0.0516   -0.4349 H   0  0  0  0  0  0  0  0  0  0  0  0
   -5.1543    0.9949    0.8190 H   0  0  0  0  0  0  0  0  0  0  0  0
  1  2  1  0  0  0  0
  2  3  1  0  0  0  0
  3  4  1  0  0  0  0
  4  5  1  0  0  0  0
  5  6  1  0  0  0  0
  6  7  2  0  0  0  0
  6  8  1  0  0  0  0
  8  9  1  0  0  0  0
  9 10  1  0  0  0  0
 10 11  1  0  0  0  0
 10 12  1  0  0  0  0
  1 13  1  0  0  0  0
  1 14  1  0  0  0  0
  1 15  1  0  0  0  0
  2 16  1  0  0  0  0
  2 17  1  0  0  0  0
  3 18  1  0  0  0  0
  3 19  1  0  0  0  0
  4 20  1  0  0  0  0
  4 21  1  0  0  0  0
  5 22  1  0  0  0  0
  5 23  1  0  0  0  0
  9 24  1  0  0  0  0
  9 25  1  0  0  0  0
 10 26  1  0  0  0  0
 11 27  1  0  0  0  0
 11 28  1  0  0  0  0
 11 29  1  0  0  0  0
 12 30  1  0  0  0  0
 12 31  1  0  0  0  0
 12 32  1  0  0  0  0
M  END
$$$$
