C10H22O
APtclcactv06211804413D 0   0.00000     0.00000
 
 33 32  0  0  0  0  0  0  0  0999 V2000
    3.6928   -0.6550   -1.3506 C   0  0  0  0  0  0  0  0  0  0  0  0
    3.5781   -0.2061    0.1076 C   0  0  0  0  0  0  0  0  0  0  0  0
    4.8022    0.6322    0.4810 C   0  0  0  0  0  0  0  0  0  0  0  0
    2.3115    0.6337    0.2846 C   0  0  0  0  0  0  0  0  0  0  0  0
    1.0810   -0.2397    0.0319 C   0  0  0  0  0  0  0  0  0  0  0  0
   -0.1856    0.6002    0.2088 C   0  0  0  0  0  0  0  0  0  0  0  0
   -1.4162   -0.2732   -0.0439 C   0  0  0  0  0  0  0  0  0  0  0  0
   -1.4986   -1.3609    1.0290 C   0  0  0  0  0  0  0  0  0  0  0  0
   -2.6762    0.5930    0.0101 C   0  0  0  0  0  0  0  0  0  0  0  0
   -3.8938   -0.2540   -0.3649 C   0  0  0  0  0  0  0  0  0  0  0  0
   -5.0707    0.5550   -0.3145 O   0  0  0  0  0  0  0  0  0  0  0  0
    4.5951   -1.2533   -1.4766 H   0  0  0  0  0  0  0  0  0  0  0  0
    2.8207   -1.2522   -1.6166 H   0  0  0  0  0  0  0  0  0  0  0  0
    3.7444    0.2209   -1.9973 H   0  0  0  0  0  0  0  0  0  0  0  0
    3.5265   -1.0820    0.7544 H   0  0  0  0  0  0  0  0  0  0  0  0
    4.8538    1.5081   -0.1657 H   0  0  0  0  0  0  0  0  0  0  0  0
    4.7205    0.9520    1.5199 H   0  0  0  0  0  0  0  0  0  0  0  0
    5.7046    0.0339    0.3550 H   0  0  0  0  0  0  0  0  0  0  0  0
    2.2754    1.0272    1.3004 H   0  0  0  0  0  0  0  0  0  0  0  0
    2.3219    1.4609   -0.4252 H   0  0  0  0  0  0  0  0  0  0  0  0
    1.1171   -0.6331   -0.9840 H   0  0  0  0  0  0  0  0  0  0  0  0
    1.0705   -1.0668    0.7417 H   0  0  0  0  0  0  0  0  0  0  0  0
   -0.2217    0.9936    1.2247 H   0  0  0  0  0  0  0  0  0  0  0  0
   -0.1752    1.4274   -0.5010 H   0  0  0  0  0  0  0  0  0  0  0  0
   -1.3364   -0.7376   -1.0268 H   0  0  0  0  0  0  0  0  0  0  0  0
   -1.5783   -0.8964    2.0118 H   0  0  0  0  0  0  0  0  0  0  0  0
   -2.3752   -1.9831    0.8489 H   0  0  0  0  0  0  0  0  0  0  0  0
   -0.6009   -1.9780    0.9904 H   0  0  0  0  0  0  0  0  0  0  0  0
   -2.8038    0.9862    1.0187 H   0  0  0  0  0  0  0  0  0  0  0  0
   -2.5787    1.4204   -0.6927 H   0  0  0  0  0  0  0  0  0  0  0  0
   -3.7662   -0.6472   -1.3735 H   0  0  0  0  0  0  0  0  0  0  0  0
   -3.9913   -1.0814    0.3379 H   0  0  0  0  0  0  0  0  0  0  0  0
   -5.8831    0.0821   -0.5413 H   0  0  0  0  0  0  0  0  0  0  0  0
  1  2  1  0  0  0  0
  2  3  1  0  0  0  0
  2  4  1  0  0  0  0
  4  5  1  0  0  0  0
  5  6  1  0  0  0  0
  6  7  1  0  0  0  0
  7  8  1  0  0  0  0
  7  9  1  0  0  0  0
  9 10  1  0  0  0  0
 10 11  1  0  0  0  0
  1 12  1  0  0  0  0
  1 13  1  0  0  0  0
  1 14  1  0  0  0  0
  2 15  1  0  0  0  0
  3 16  1  0  0  0  0
  3 17  1  0  0  0  0
  3 18  1  0  0  0  0
  4 19  1  0  0  0  0
  4 20  1  0  0  0  0
  5 21  1  0  0  0  0
  5 22  1  0  0  0  0
  6 23  1  0  0  0  0
  6 24  1  0  0  0  0
  7 25  1  0  0  0  0
  8 26  1  0  0  0  0
  8 27  1  0  0  0  0
  8 28  1  0  0  0  0
  9 29  1  0  0  0  0
  9 30  1  0  0  0  0
 10 31  1  0  0  0  0
 10 32  1  0  0  0  0
 11 33  1  0  0  0  0
M  END
$$$$
