C16H18O8
APtclcactv06291803003D 0   0.00000     0.00000
 
 42 44  0  0  0  0  0  0  0  0999 V2000
   -2.0474   -2.1088   -1.3854 C   0  0  0  0  0  0  0  0  0  0  0  0
   -3.2245   -1.6493   -0.8784 C   0  0  0  0  0  0  0  0  0  0  0  0
   -3.2747   -0.3858   -0.2655 C   0  0  0  0  0  0  0  0  0  0  0  0
   -4.4765    0.1185    0.2695 C   0  0  0  0  0  0  0  0  0  0  0  0
   -4.4930    1.3502    0.8594 C   0  0  0  0  0  0  0  0  0  0  0  0
   -3.3365    2.1207    0.9419 C   0  0  0  0  0  0  0  0  0  0  0  0
   -2.1446    1.6603    0.4302 C   0  0  0  0  0  0  0  0  0  0  0  0
   -2.0953    0.3941   -0.1841 C   0  0  0  0  0  0  0  0  0  0  0  0
   -0.8943   -0.1120   -0.7191 C   0  0  0  0  0  0  0  0  0  0  0  0
   -0.8854   -1.3455   -1.3076 C   0  0  0  0  0  0  0  0  0  0  0  0
    0.2470    0.6211   -0.6510 O   0  0  0  0  0  0  0  0  0  0  0  0
    1.4250    0.0415   -1.2153 C   0  0  0  0  0  0  0  0  0  0  0  0
    2.5707    1.0554   -1.1576 C   0  0  0  0  0  0  0  0  0  0  0  0
    2.8727    1.3901    0.3063 C   0  0  0  0  0  0  0  0  0  0  0  0
    3.2030    0.0962    1.0568 C   0  0  0  0  0  0  0  0  0  0  0  0
    2.0329   -0.8805    0.9136 C   0  0  0  0  0  0  0  0  0  0  0  0
    1.7851   -1.1249   -0.4724 O   0  0  0  0  0  0  0  0  0  0  0  0
    2.3799   -2.1980    1.6099 C   0  0  0  0  0  0  0  0  0  0  0  0
    1.2459   -3.0670    1.5774 O   0  0  0  0  0  0  0  0  0  0  0  0
    4.3837   -0.4886    0.5035 O   0  0  0  0  0  0  0  0  0  0  0  0
    3.9891    2.2796    0.3728 O   0  0  0  0  0  0  0  0  0  0  0  0
    3.7346    0.4960   -1.7695 O   0  0  0  0  0  0  0  0  0  0  0  0
   -1.0227    2.4226    0.5173 O   0  0  0  0  0  0  0  0  0  0  0  0
   -5.6165   -0.6186    0.1983 O   0  0  0  0  0  0  0  0  0  0  0  0
   -2.0134   -3.0825   -1.8514 H   0  0  0  0  0  0  0  0  0  0  0  0
   -4.1168   -2.2539   -0.9474 H   0  0  0  0  0  0  0  0  0  0  0  0
   -5.4170    1.7322    1.2676 H   0  0  0  0  0  0  0  0  0  0  0  0
   -3.3752    3.0918    1.4129 H   0  0  0  0  0  0  0  0  0  0  0  0
    0.0353   -1.7336   -1.7174 H   0  0  0  0  0  0  0  0  0  0  0  0
    1.2341   -0.2326   -2.2528 H   0  0  0  0  0  0  0  0  0  0  0  0
    2.2807    1.9632   -1.6865 H   0  0  0  0  0  0  0  0  0  0  0  0
    2.0011    1.8622    0.7597 H   0  0  0  0  0  0  0  0  0  0  0  0
    3.3652    0.3182    2.1115 H   0  0  0  0  0  0  0  0  0  0  0  0
    1.1423   -0.4505    1.3718 H   0  0  0  0  0  0  0  0  0  0  0  0
    3.2157   -2.6719    1.0951 H   0  0  0  0  0  0  0  0  0  0  0  0
    2.6562   -1.9998    2.6455 H   0  0  0  0  0  0  0  0  0  0  0  0
    1.3941   -3.9230    2.0020 H   0  0  0  0  0  0  0  0  0  0  0  0
    5.1652    0.0786    0.5558 H   0  0  0  0  0  0  0  0  0  0  0  0
    3.8517    3.1183   -0.0885 H   0  0  0  0  0  0  0  0  0  0  0  0
    3.6136    0.2554   -2.6983 H   0  0  0  0  0  0  0  0  0  0  0  0
   -0.5068    2.2727    1.3213 H   0  0  0  0  0  0  0  0  0  0  0  0
   -5.7553   -1.2026    0.9565 H   0  0  0  0  0  0  0  0  0  0  0  0
  1  2  2  0  0  0  0
  2  3  1  0  0  0  0
  3  4  2  0  0  0  0
  4  5  1  0  0  0  0
  5  6  2  0  0  0  0
  6  7  1  0  0  0  0
  7  8  2  0  0  0  0
  3  8  1  0  0  0  0
  8  9  1  0  0  0  0
  9 10  2  0  0  0  0
  1 10  1  0  0  0  0
  9 11  1  0  0  0  0
 11 12  1  0  0  0  0
 12 13  1  0  0  0  0
 13 14  1  0  0  0  0
 14 15  1  0  0  0  0
 15 16  1  0  0  0  0
 16 17  1  0  0  0  0
 12 17  1  0  0  0  0
 16 18  1  0  0  0  0
 18 19  1  0  0  0  0
 15 20  1  0  0  0  0
 14 21  1  0  0  0  0
 13 22  1  0  0  0  0
  7 23  1  0  0  0  0
  4 24  1  0  0  0  0
  1 25  1  0  0  0  0
  2 26  1  0  0  0  0
  5 27  1  0  0  0  0
  6 28  1  0  0  0  0
 10 29  1  0  0  0  0
 12 30  1  0  0  0  0
 13 31  1  0  0  0  0
 14 32  1  0  0  0  0
 15 33  1  0  0  0  0
 16 34  1  0  0  0  0
 18 35  1  0  0  0  0
 18 36  1  0  0  0  0
 19 37  1  0  0  0  0
 20 38  1  0  0  0  0
 21 39  1  0  0  0  0
 22 40  1  0  0  0  0
 23 41  1  0  0  0  0
 24 42  1  0  0  0  0
M  END
$$$$
