C6H12O2
APtclcactv06201807113D 0   0.00000     0.00000
 
 20 19  0  0  0  0  0  0  0  0999 V2000
    3.8302   -0.3060   -0.0000 C   0  0  0  0  0  0  0  0  0  0  0  0
    2.5965    0.5991    0.0000 C   0  0  0  0  0  0  0  0  0  0  0  0
    1.3321   -0.2623   -0.0000 C   0  0  0  0  0  0  0  0  0  0  0  0
    0.1613    0.5966   -0.0000 O   0  0  0  0  0  0  0  0  0  0  0  0
   -1.0375   -0.0073   -0.0000 C   0  0  0  0  0  0  0  0  0  0  0  0
   -1.1063   -1.2136   -0.0000 O   0  0  0  0  0  0  0  0  0  0  0  0
   -2.2975    0.8194   -0.0000 C   0  0  0  0  0  0  0  0  0  0  0  0
   -3.5152   -0.1070    0.0000 C   0  0  0  0  0  0  0  0  0  0  0  0
    4.7310    0.3077    0.0000 H   0  0  0  0  0  0  0  0  0  0  0  0
    3.8192   -0.9352    0.8900 H   0  0  0  0  0  0  0  0  0  0  0  0
    3.8192   -0.9352   -0.8900 H   0  0  0  0  0  0  0  0  0  0  0  0
    2.6075    1.2283    0.8900 H   0  0  0  0  0  0  0  0  0  0  0  0
    2.6075    1.2283   -0.8900 H   0  0  0  0  0  0  0  0  0  0  0  0
    1.3211   -0.8915   -0.8900 H   0  0  0  0  0  0  0  0  0  0  0  0
    1.3211   -0.8915    0.8900 H   0  0  0  0  0  0  0  0  0  0  0  0
   -2.3195    1.4483    0.8900 H   0  0  0  0  0  0  0  0  0  0  0  0
   -2.3195    1.4483   -0.8900 H   0  0  0  0  0  0  0  0  0  0  0  0
   -4.4266    0.4909   -0.0000 H   0  0  0  0  0  0  0  0  0  0  0  0
   -3.4932   -0.7360   -0.8900 H   0  0  0  0  0  0  0  0  0  0  0  0
   -3.4933   -0.7360    0.8900 H   0  0  0  0  0  0  0  0  0  0  0  0
  1  2  1  0  0  0  0
  2  3  1  0  0  0  0
  3  4  1  0  0  0  0
  4  5  1  0  0  0  0
  5  6  2  0  0  0  0
  5  7  1  0  0  0  0
  7  8  1  0  0  0  0
  1  9  1  0  0  0  0
  1 10  1  0  0  0  0
  1 11  1  0  0  0  0
  2 12  1  0  0  0  0
  2 13  1  0  0  0  0
  3 14  1  0  0  0  0
  3 15  1  0  0  0  0
  7 16  1  0  0  0  0
  7 17  1  0  0  0  0
  8 18  1  0  0  0  0
  8 19  1  0  0  0  0
  8 20  1  0  0  0  0
M  END
$$$$
