C7H14O2
APtclcactv06211804413D 0   0.00000     0.00000
 
 23 22  0  0  0  0  0  0  0  0999 V2000
    4.6286   -0.1887   -0.0000 C   0  0  0  0  0  0  0  0  0  0  0  0
    3.2888    0.5500    0.0000 C   0  0  0  0  0  0  0  0  0  0  0  0
    2.1457   -0.4670   -0.0000 C   0  0  0  0  0  0  0  0  0  0  0  0
    0.8058    0.2717    0.0000 C   0  0  0  0  0  0  0  0  0  0  0  0
   -0.3372   -0.7454    0.0000 C   0  0  0  0  0  0  0  0  0  0  0  0
   -1.6570   -0.0178    0.0000 C   0  0  0  0  0  0  0  0  0  0  0  0
   -1.6808    1.1902   -0.0000 O   0  0  0  0  0  0  0  0  0  0  0  0
   -2.8059   -0.7117    0.0000 O   0  0  0  0  0  0  0  0  0  0  0  0
   -4.0391    0.0549   -0.0000 C   0  0  0  0  0  0  0  0  0  0  0  0
    4.6987   -0.8141    0.8900 H   0  0  0  0  0  0  0  0  0  0  0  0
    4.6987   -0.8141   -0.8900 H   0  0  0  0  0  0  0  0  0  0  0  0
    5.4430    0.5358   -0.0000 H   0  0  0  0  0  0  0  0  0  0  0  0
    3.2186    1.1754    0.8900 H   0  0  0  0  0  0  0  0  0  0  0  0
    3.2186    1.1754   -0.8900 H   0  0  0  0  0  0  0  0  0  0  0  0
    2.2158   -1.0924   -0.8900 H   0  0  0  0  0  0  0  0  0  0  0  0
    2.2158   -1.0924    0.8900 H   0  0  0  0  0  0  0  0  0  0  0  0
    0.7357    0.8971    0.8900 H   0  0  0  0  0  0  0  0  0  0  0  0
    0.7357    0.8971   -0.8900 H   0  0  0  0  0  0  0  0  0  0  0  0
   -0.2671   -1.3707   -0.8900 H   0  0  0  0  0  0  0  0  0  0  0  0
   -0.2671   -1.3707    0.8900 H   0  0  0  0  0  0  0  0  0  0  0  0
   -4.8902   -0.6261   -0.0000 H   0  0  0  0  0  0  0  0  0  0  0  0
   -4.0763    0.6831    0.8900 H   0  0  0  0  0  0  0  0  0  0  0  0
   -4.0763    0.6831   -0.8900 H   0  0  0  0  0  0  0  0  0  0  0  0
  1  2  1  0  0  0  0
  2  3  1  0  0  0  0
  3  4  1  0  0  0  0
  4  5  1  0  0  0  0
  5  6  1  0  0  0  0
  6  7  2  0  0  0  0
  6  8  1  0  0  0  0
  8  9  1  0  0  0  0
  1 10  1  0  0  0  0
  1 11  1  0  0  0  0
  1 12  1  0  0  0  0
  2 13  1  0  0  0  0
  2 14  1  0  0  0  0
  3 15  1  0  0  0  0
  3 16  1  0  0  0  0
  4 17  1  0  0  0  0
  4 18  1  0  0  0  0
  5 19  1  0  0  0  0
  5 20  1  0  0  0  0
  9 21  1  0  0  0  0
  9 22  1  0  0  0  0
  9 23  1  0  0  0  0
M  END
$$$$
