C36H38O15
APtclcactv06291803003D 0   0.00000     0.00000
 
 89 91  0  0  0  0  0  0  0  0999 V2000
   11.4210    3.0818   -1.0436 C   0  0  0  0  0  0  0  0  0  0  0  0
   11.3574    1.9862   -0.1284 O   0  0  0  0  0  0  0  0  0  0  0  0
   10.1195    1.5442    0.2205 C   0  0  0  0  0  0  0  0  0  0  0  0
    8.9960    2.1518   -0.3064 C   0  0  0  0  0  0  0  0  0  0  0  0
    7.7224    1.6961    0.0532 C   0  0  0  0  0  0  0  0  0  0  0  0
    7.5920    0.6260    0.9460 C   0  0  0  0  0  0  0  0  0  0  0  0
    8.7201    0.0234    1.4688 C   0  0  0  0  0  0  0  0  0  0  0  0
    9.9859    0.4759    1.1042 C   0  0  0  0  0  0  0  0  0  0  0  0
   11.0933   -0.1192    1.6205 O   0  0  0  0  0  0  0  0  0  0  0  0
    8.5944   -1.0161    2.3367 O   0  0  0  0  0  0  0  0  0  0  0  0
    7.2668   -1.4320    2.6628 C   0  0  0  0  0  0  0  0  0  0  0  0
    6.5250    2.3400   -0.5047 C   0  0  0  0  0  0  0  0  0  0  0  0
    5.2964    1.8988   -0.1563 C   0  0  0  0  0  0  0  0  0  0  0  0
    4.1413    2.5200   -0.6946 C   0  0  0  0  0  0  0  0  0  0  0  0
    4.2563    3.4502   -1.4700 O   0  0  0  0  0  0  0  0  0  0  0  0
    2.9142    2.0794   -0.3467 O   0  0  0  0  0  0  0  0  0  0  0  0
    1.7948    2.7518   -0.9271 C   0  0  0  0  0  0  0  0  0  0  0  0
    0.4989    2.1173   -0.4183 C   0  0  0  0  0  0  0  0  0  0  0  0
   -0.6983    2.9143   -0.9403 C   0  0  0  0  0  0  0  0  0  0  0  0
   -1.9016    2.3933   -0.3722 O   0  0  0  0  0  0  0  0  0  0  0  0
   -3.0573    2.9891   -0.7327 C   0  0  0  0  0  0  0  0  0  0  0  0
   -3.0424    3.9259   -1.5087 O   0  0  0  0  0  0  0  0  0  0  0  0
   -4.2889    2.5235   -0.2071 C   0  0  0  0  0  0  0  0  0  0  0  0
   -5.4461    3.1201   -0.5681 C   0  0  0  0  0  0  0  0  0  0  0  0
   -6.7227    2.6375   -0.0232 C   0  0  0  0  0  0  0  0  0  0  0  0
   -7.9226    3.2543   -0.3960 C   0  0  0  0  0  0  0  0  0  0  0  0
   -9.1210    2.7978    0.1183 C   0  0  0  0  0  0  0  0  0  0  0  0
   -9.1360    1.7255    1.0070 C   0  0  0  0  0  0  0  0  0  0  0  0
   -7.9440    1.1095    1.3807 C   0  0  0  0  0  0  0  0  0  0  0  0
   -6.7423    1.5562    0.8653 C   0  0  0  0  0  0  0  0  0  0  0  0
   -7.9634    0.0631    2.2491 O   0  0  0  0  0  0  0  0  0  0  0  0
   -6.7045   -0.5214    2.5890 C   0  0  0  0  0  0  0  0  0  0  0  0
  -10.3166    1.2795    1.5113 O   0  0  0  0  0  0  0  0  0  0  0  0
  -10.2873    3.3965   -0.2433 O   0  0  0  0  0  0  0  0  0  0  0  0
  -10.1984    4.4908   -1.1581 C   0  0  0  0  0  0  0  0  0  0  0  0
    0.4135    0.7692   -0.8846 O   0  0  0  0  0  0  0  0  0  0  0  0
   -0.2502   -0.1082   -0.1034 C   0  0  0  0  0  0  0  0  0  0  0  0
   -0.7428    0.2626    0.9453 O   0  0  0  0  0  0  0  0  0  0  0  0
   -0.3735   -1.4624   -0.5048 C   0  0  0  0  0  0  0  0  0  0  0  0
   -1.0381   -2.3409    0.2774 C   0  0  0  0  0  0  0  0  0  0  0  0
   -1.1659   -3.7446   -0.1386 C   0  0  0  0  0  0  0  0  0  0  0  0
   -1.8540   -4.6562    0.6703 C   0  0  0  0  0  0  0  0  0  0  0  0
   -1.9721   -5.9751    0.2759 C   0  0  0  0  0  0  0  0  0  0  0  0
   -1.4074   -6.3979   -0.9250 C   0  0  0  0  0  0  0  0  0  0  0  0
   -0.7216   -5.4937   -1.7325 C   0  0  0  0  0  0  0  0  0  0  0  0
   -0.6047   -4.1718   -1.3476 C   0  0  0  0  0  0  0  0  0  0  0  0
   -0.1710   -5.9112   -2.9039 O   0  0  0  0  0  0  0  0  0  0  0  0
    0.5182   -4.9310   -3.6825 C   0  0  0  0  0  0  0  0  0  0  0  0
   -1.5256   -7.6960   -1.3098 O   0  0  0  0  0  0  0  0  0  0  0  0
   -2.6402   -6.8617    1.0615 O   0  0  0  0  0  0  0  0  0  0  0  0
   -3.1938   -6.3603    2.2798 C   0  0  0  0  0  0  0  0  0  0  0  0
   10.9353    2.8028   -1.9787 H   0  0  0  0  0  0  0  0  0  0  0  0
   10.9124    3.9446   -0.6134 H   0  0  0  0  0  0  0  0  0  0  0  0
   12.4637    3.3338   -1.2369 H   0  0  0  0  0  0  0  0  0  0  0  0
    9.1004    2.9774   -0.9947 H   0  0  0  0  0  0  0  0  0  0  0  0
    6.6109    0.2720    1.2261 H   0  0  0  0  0  0  0  0  0  0  0  0
   11.4227   -0.8608    1.0945 H   0  0  0  0  0  0  0  0  0  0  0  0
    7.3091   -2.2670    3.3623 H   0  0  0  0  0  0  0  0  0  0  0  0
    6.7280   -0.6021    3.1200 H   0  0  0  0  0  0  0  0  0  0  0  0
    6.7505   -1.7443    1.7551 H   0  0  0  0  0  0  0  0  0  0  0  0
    6.6271    3.1658   -1.1931 H   0  0  0  0  0  0  0  0  0  0  0  0
    5.1943    1.0730    0.5321 H   0  0  0  0  0  0  0  0  0  0  0  0
    1.8182    3.8049   -0.6469 H   0  0  0  0  0  0  0  0  0  0  0  0
    1.8408    2.6636   -2.0126 H   0  0  0  0  0  0  0  0  0  0  0  0
    0.4937    2.1258    0.6716 H   0  0  0  0  0  0  0  0  0  0  0  0
   -0.5878    3.9617   -0.6596 H   0  0  0  0  0  0  0  0  0  0  0  0
   -0.7439    2.8320   -2.0263 H   0  0  0  0  0  0  0  0  0  0  0  0
   -4.3021    1.6919    0.4818 H   0  0  0  0  0  0  0  0  0  0  0  0
   -5.4329    3.9518   -1.2570 H   0  0  0  0  0  0  0  0  0  0  0  0
   -7.9117    4.0863   -1.0846 H   0  0  0  0  0  0  0  0  0  0  0  0
   -5.8184    1.0780    1.1554 H   0  0  0  0  0  0  0  0  0  0  0  0
   -6.2236   -0.8987    1.6865 H   0  0  0  0  0  0  0  0  0  0  0  0
   -6.0674    0.2319    3.0523 H   0  0  0  0  0  0  0  0  0  0  0  0
   -6.8622   -1.3433    3.2873 H   0  0  0  0  0  0  0  0  0  0  0  0
  -10.7360    0.5895    0.9791 H   0  0  0  0  0  0  0  0  0  0  0  0
   -9.5869    5.2805   -0.7216 H   0  0  0  0  0  0  0  0  0  0  0  0
   -9.7431    4.1507   -2.0882 H   0  0  0  0  0  0  0  0  0  0  0  0
  -11.1975    4.8758   -1.3622 H   0  0  0  0  0  0  0  0  0  0  0  0
    0.0638   -1.7916   -1.4358 H   0  0  0  0  0  0  0  0  0  0  0  0
   -1.4754   -2.0117    1.2084 H   0  0  0  0  0  0  0  0  0  0  0  0
   -2.2919   -4.3292    1.6019 H   0  0  0  0  0  0  0  0  0  0  0  0
   -0.0730   -3.4712   -1.9744 H   0  0  0  0  0  0  0  0  0  0  0  0
    0.9078   -5.3950   -4.5886 H   0  0  0  0  0  0  0  0  0  0  0  0
   -0.1709   -4.1306   -3.9516 H   0  0  0  0  0  0  0  0  0  0  0  0
    1.3435   -4.5198   -3.1012 H   0  0  0  0  0  0  0  0  0  0  0  0
   -2.3116   -7.8783   -1.8427 H   0  0  0  0  0  0  0  0  0  0  0  0
   -2.3951   -5.9597    2.9040 H   0  0  0  0  0  0  0  0  0  0  0  0
   -3.9103   -5.5702    2.0551 H   0  0  0  0  0  0  0  0  0  0  0  0
   -3.6982   -7.1684    2.8094 H   0  0  0  0  0  0  0  0  0  0  0  0
  1  2  1  0  0  0  0
  2  3  1  0  0  0  0
  3  4  2  0  0  0  0
  4  5  1  0  0  0  0
  5  6  2  0  0  0  0
  6  7  1  0  0  0  0
  7  8  2  0  0  0  0
  3  8  1  0  0  0  0
  8  9  1  0  0  0  0
  7 10  1  0  0  0  0
 10 11  1  0  0  0  0
  5 12  1  0  0  0  0
 12 13  2  0  0  0  0
 13 14  1  0  0  0  0
 14 15  2  0  0  0  0
 14 16  1  0  0  0  0
 16 17  1  0  0  0  0
 17 18  1  0  0  0  0
 18 19  1  0  0  0  0
 19 20  1  0  0  0  0
 20 21  1  0  0  0  0
 21 22  2  0  0  0  0
 21 23  1  0  0  0  0
 23 24  2  0  0  0  0
 24 25  1  0  0  0  0
 25 26  2  0  0  0  0
 26 27  1  0  0  0  0
 27 28  2  0  0  0  0
 28 29  1  0  0  0  0
 29 30  2  0  0  0  0
 25 30  1  0  0  0  0
 29 31  1  0  0  0  0
 31 32  1  0  0  0  0
 28 33  1  0  0  0  0
 27 34  1  0  0  0  0
 34 35  1  0  0  0  0
 18 36  1  0  0  0  0
 36 37  1  0  0  0  0
 37 38  2  0  0  0  0
 37 39  1  0  0  0  0
 39 40  2  0  0  0  0
 40 41  1  0  0  0  0
 41 42  2  0  0  0  0
 42 43  1  0  0  0  0
 43 44  2  0  0  0  0
 44 45  1  0  0  0  0
 45 46  2  0  0  0  0
 41 46  1  0  0  0  0
 45 47  1  0  0  0  0
 47 48  1  0  0  0  0
 44 49  1  0  0  0  0
 43 50  1  0  0  0  0
 50 51  1  0  0  0  0
  1 52  1  0  0  0  0
  1 53  1  0  0  0  0
  1 54  1  0  0  0  0
  4 55  1  0  0  0  0
  6 56  1  0  0  0  0
  9 57  1  0  0  0  0
 11 58  1  0  0  0  0
 11 59  1  0  0  0  0
 11 60  1  0  0  0  0
 12 61  1  0  0  0  0
 13 62  1  0  0  0  0
 17 63  1  0  0  0  0
 17 64  1  0  0  0  0
 18 65  1  0  0  0  0
 19 66  1  0  0  0  0
 19 67  1  0  0  0  0
 23 68  1  0  0  0  0
 24 69  1  0  0  0  0
 26 70  1  0  0  0  0
 30 71  1  0  0  0  0
 32 72  1  0  0  0  0
 32 73  1  0  0  0  0
 32 74  1  0  0  0  0
 33 75  1  0  0  0  0
 35 76  1  0  0  0  0
 35 77  1  0  0  0  0
 35 78  1  0  0  0  0
 39 79  1  0  0  0  0
 40 80  1  0  0  0  0
 42 81  1  0  0  0  0
 46 82  1  0  0  0  0
 48 83  1  0  0  0  0
 48 84  1  0  0  0  0
 48 85  1  0  0  0  0
 49 86  1  0  0  0  0
 51 87  1  0  0  0  0
 51 88  1  0  0  0  0
 51 89  1  0  0  0  0
M  END
$$$$
