C22H32O6
APtclcactv06281816593D 0   0.00000     0.00000
 
 60 62  0  0  0  0  0  0  0  0999 V2000
   -5.9825   -1.2827    0.8874 C   0  0  0  0  0  0  0  0  0  0  0  0
   -5.0308   -0.6520   -0.1312 C   0  0  0  0  0  0  0  0  0  0  0  0
   -3.6974   -0.3314    0.5470 C   0  0  0  0  0  0  0  0  0  0  0  0
   -3.0204   -1.6327    0.9818 C   0  0  0  0  0  0  0  0  0  0  0  0
   -2.8043    0.4003   -0.4215 C   0  0  0  0  0  0  0  0  0  0  0  0
   -3.1943    0.6406   -1.5396 O   0  0  0  0  0  0  0  0  0  0  0  0
   -1.5755    0.7850   -0.0422 O   0  0  0  0  0  0  0  0  0  0  0  0
   -0.7705    1.4851   -1.0271 C   0  0  0  0  0  0  0  0  0  0  0  0
   -1.0169    2.9996   -0.9239 C   0  0  0  0  0  0  0  0  0  0  0  0
   -0.6046    3.5406    0.4417 C   0  0  0  0  0  0  0  0  0  0  0  0
    0.8536    3.1839    0.7736 C   0  0  0  0  0  0  0  0  0  0  0  0
    0.9701    1.6717    0.7187 C   0  0  0  0  0  0  0  0  0  0  0  0
    0.7012    1.2503   -0.7519 C   0  0  0  0  0  0  0  0  0  0  0  0
    1.1838   -0.1974   -0.7967 C   0  0  0  0  0  0  0  0  0  0  0  0
    2.3060   -0.2759    0.2572 C   0  0  0  0  0  0  0  0  0  0  0  0
    2.3748    1.1014    0.9550 C   0  0  0  0  0  0  0  0  0  0  0  0
    2.0207   -1.3628    1.2609 C   0  0  0  0  0  0  0  0  0  0  0  0
    0.9814   -1.4769    2.0501 C   0  0  0  0  0  0  0  0  0  0  0  0
    3.2107   -2.2941    1.1479 C   0  0  0  0  0  0  0  0  0  0  0  0
    4.0986   -1.7492    0.1401 O   0  0  0  0  0  0  0  0  0  0  0  0
    3.6206   -0.6147   -0.3814 C   0  0  0  0  0  0  0  0  0  0  0  0
    4.1658    0.0398   -1.2383 O   0  0  0  0  0  0  0  0  0  0  0  0
    0.1016   -1.1012   -0.4500 O   0  0  0  0  0  0  0  0  0  0  0  0
    0.1266   -2.3232   -1.0048 C   0  0  0  0  0  0  0  0  0  0  0  0
    1.0232   -2.6275   -1.7555 O   0  0  0  0  0  0  0  0  0  0  0  0
   -0.9634   -3.3155   -0.6916 C   0  0  0  0  0  0  0  0  0  0  0  0
   -0.0508    1.0246    1.6567 C   0  0  0  0  0  0  0  0  0  0  0  0
    1.7919    3.8164   -0.2562 C   0  0  0  0  0  0  0  0  0  0  0  0
   -6.1507   -0.5851    1.7079 H   0  0  0  0  0  0  0  0  0  0  0  0
   -6.9324   -1.5111    0.4042 H   0  0  0  0  0  0  0  0  0  0  0  0
   -5.5423   -2.2011    1.2758 H   0  0  0  0  0  0  0  0  0  0  0  0
   -4.8626   -1.3496   -0.9517 H   0  0  0  0  0  0  0  0  0  0  0  0
   -5.4710    0.2664   -0.5196 H   0  0  0  0  0  0  0  0  0  0  0  0
   -3.8757    0.2950    1.4211 H   0  0  0  0  0  0  0  0  0  0  0  0
   -2.0704   -1.4043    1.4650 H   0  0  0  0  0  0  0  0  0  0  0  0
   -3.6664   -2.1619    1.6823 H   0  0  0  0  0  0  0  0  0  0  0  0
   -2.8421   -2.2591    0.1077 H   0  0  0  0  0  0  0  0  0  0  0  0
   -1.0225    1.1355   -2.0283 H   0  0  0  0  0  0  0  0  0  0  0  0
   -0.4409    3.5078   -1.6972 H   0  0  0  0  0  0  0  0  0  0  0  0
   -2.0768    3.1997   -1.0812 H   0  0  0  0  0  0  0  0  0  0  0  0
   -0.7150    4.6250    0.4432 H   0  0  0  0  0  0  0  0  0  0  0  0
   -1.2574    3.1164    1.2046 H   0  0  0  0  0  0  0  0  0  0  0  0
    1.1043    3.5394    1.7731 H   0  0  0  0  0  0  0  0  0  0  0  0
    1.3036    1.8596   -1.4256 H   0  0  0  0  0  0  0  0  0  0  0  0
    1.5754   -0.4357   -1.7857 H   0  0  0  0  0  0  0  0  0  0  0  0
    3.1314    1.7329    0.4893 H   0  0  0  0  0  0  0  0  0  0  0  0
    2.5701    0.9850    2.0210 H   0  0  0  0  0  0  0  0  0  0  0  0
    0.9493   -2.2624    2.7907 H   0  0  0  0  0  0  0  0  0  0  0  0
    0.1566   -0.7855    1.9602 H   0  0  0  0  0  0  0  0  0  0  0  0
    3.7284   -2.3505    2.1054 H   0  0  0  0  0  0  0  0  0  0  0  0
    2.8759   -3.2871    0.8479 H   0  0  0  0  0  0  0  0  0  0  0  0
   -1.7738   -3.2045   -1.4121 H   0  0  0  0  0  0  0  0  0  0  0  0
   -0.5616   -4.3270   -0.7497 H   0  0  0  0  0  0  0  0  0  0  0  0
   -1.3434   -3.1326    0.3135 H   0  0  0  0  0  0  0  0  0  0  0  0
   -0.8303    1.7468    1.8991 H   0  0  0  0  0  0  0  0  0  0  0  0
   -0.4969    0.1591    1.1667 H   0  0  0  0  0  0  0  0  0  0  0  0
    0.4476    0.7067    2.5725 H   0  0  0  0  0  0  0  0  0  0  0  0
    1.7691    4.9010   -0.1506 H   0  0  0  0  0  0  0  0  0  0  0  0
    2.8076    3.4566   -0.0915 H   0  0  0  0  0  0  0  0  0  0  0  0
    1.4676    3.5421   -1.2600 H   0  0  0  0  0  0  0  0  0  0  0  0
  1  2  1  0  0  0  0
  2  3  1  0  0  0  0
  3  4  1  0  0  0  0
  3  5  1  0  0  0  0
  5  6  2  0  0  0  0
  5  7  1  0  0  0  0
  7  8  1  0  0  0  0
  8  9  1  0  0  0  0
  9 10  1  0  0  0  0
 10 11  1  0  0  0  0
 11 12  1  0  0  0  0
 12 13  1  0  0  0  0
  8 13  1  0  0  0  0
 13 14  1  0  0  0  0
 14 15  1  0  0  0  0
 15 16  1  0  0  0  0
 12 16  1  0  0  0  0
 15 17  1  0  0  0  0
 17 18  2  0  0  0  0
 17 19  1  0  0  0  0
 19 20  1  0  0  0  0
 20 21  1  0  0  0  0
 15 21  1  0  0  0  0
 21 22  2  0  0  0  0
 14 23  1  0  0  0  0
 23 24  1  0  0  0  0
 24 25  2  0  0  0  0
 24 26  1  0  0  0  0
 12 27  1  0  0  0  0
 11 28  1  0  0  0  0
  1 29  1  0  0  0  0
  1 30  1  0  0  0  0
  1 31  1  0  0  0  0
  2 32  1  0  0  0  0
  2 33  1  0  0  0  0
  3 34  1  0  0  0  0
  4 35  1  0  0  0  0
  4 36  1  0  0  0  0
  4 37  1  0  0  0  0
  8 38  1  0  0  0  0
  9 39  1  0  0  0  0
  9 40  1  0  0  0  0
 10 41  1  0  0  0  0
 10 42  1  0  0  0  0
 11 43  1  0  0  0  0
 13 44  1  0  0  0  0
 14 45  1  0  0  0  0
 16 46  1  0  0  0  0
 16 47  1  0  0  0  0
 18 48  1  0  0  0  0
 18 49  1  0  0  0  0
 19 50  1  0  0  0  0
 19 51  1  0  0  0  0
 26 52  1  0  0  0  0
 26 53  1  0  0  0  0
 26 54  1  0  0  0  0
 27 55  1  0  0  0  0
 27 56  1  0  0  0  0
 27 57  1  0  0  0  0
 28 58  1  0  0  0  0
 28 59  1  0  0  0  0
 28 60  1  0  0  0  0
M  END
$$$$
