C8H11N
APtclcactv06211806283D 0   0.00000     0.00000
 
 20 20  0  0  0  0  0  0  0  0999 V2000
    3.7526   -0.0053   -0.2184 C   0  0  0  0  0  0  0  0  0  0  0  0
    2.2658    0.0030   -0.5792 C   0  0  0  0  0  0  0  0  0  0  0  0
    1.4300    0.0088    0.7022 C   0  0  0  0  0  0  0  0  0  0  0  0
   -0.0345    0.0169    0.3468 C   0  0  0  0  0  0  0  0  0  0  0  0
   -0.7212   -1.1708    0.1826 C   0  0  0  0  0  0  0  0  0  0  0  0
   -2.0028   -1.1716   -0.1285 N   0  0  0  0  0  0  0  0  0  0  0  0
   -2.6769   -0.0506   -0.2940 C   0  0  0  0  0  0  0  0  0  0  0  0
   -2.0567    1.1758   -0.1455 C   0  0  0  0  0  0  0  0  0  0  0  0
   -0.7112    1.2166    0.1860 C   0  0  0  0  0  0  0  0  0  0  0  0
    3.9897    0.8838    0.3661 H   0  0  0  0  0  0  0  0  0  0  0  0
    3.9794   -0.8962    0.3673 H   0  0  0  0  0  0  0  0  0  0  0  0
    4.3481   -0.0094   -1.1313 H   0  0  0  0  0  0  0  0  0  0  0  0
    2.0391    0.8939   -1.1649 H   0  0  0  0  0  0  0  0  0  0  0  0
    2.0288   -0.8860   -1.1637 H   0  0  0  0  0  0  0  0  0  0  0  0
    1.6567   -0.8821    1.2879 H   0  0  0  0  0  0  0  0  0  0  0  0
    1.6670    0.8978    1.2867 H   0  0  0  0  0  0  0  0  0  0  0  0
   -0.2023   -2.1094    0.3101 H   0  0  0  0  0  0  0  0  0  0  0  0
   -3.7256   -0.0909   -0.5488 H   0  0  0  0  0  0  0  0  0  0  0  0
   -2.6140    2.0907   -0.2827 H   0  0  0  0  0  0  0  0  0  0  0  0
   -0.2004    2.1602    0.3085 H   0  0  0  0  0  0  0  0  0  0  0  0
  1  2  1  0  0  0  0
  2  3  1  0  0  0  0
  3  4  1  0  0  0  0
  4  5  2  0  0  0  0
  5  6  1  0  0  0  0
  6  7  2  0  0  0  0
  7  8  1  0  0  0  0
  8  9  2  0  0  0  0
  4  9  1  0  0  0  0
  1 10  1  0  0  0  0
  1 11  1  0  0  0  0
  1 12  1  0  0  0  0
  2 13  1  0  0  0  0
  2 14  1  0  0  0  0
  3 15  1  0  0  0  0
  3 16  1  0  0  0  0
  5 17  1  0  0  0  0
  7 18  1  0  0  0  0
  8 19  1  0  0  0  0
  9 20  1  0  0  0  0
M  END
$$$$
