C3H4O
APtclcactv06211804413D 0   0.00000     0.00000
 
  8  7  0  0  0  0  0  0  0  0999 V2000
    1.8221   -0.1425   -0.0003 C   0  0  0  0  0  0  0  0  0  0  0  0
    0.6175    0.4319    0.0001 C   0  0  0  0  0  0  0  0  0  0  0  0
   -0.5878   -0.3967   -0.0002 C   0  0  0  0  0  0  0  0  0  0  0  0
   -1.6829    0.1255    0.0001 O   0  0  0  0  0  0  0  0  0  0  0  0
    2.7121    0.4693   -0.0001 H   0  0  0  0  0  0  0  0  0  0  0  0
    1.9070   -1.2192    0.0036 H   0  0  0  0  0  0  0  0  0  0  0  0
    0.5326    1.5086    0.0006 H   0  0  0  0  0  0  0  0  0  0  0  0
   -0.5029   -1.4733   -0.0008 H   0  0  0  0  0  0  0  0  0  0  0  0
  1  2  2  0  0  0  0
  2  3  1  0  0  0  0
  3  4  2  0  0  0  0
  1  5  1  0  0  0  0
  1  6  1  0  0  0  0
  2  7  1  0  0  0  0
  3  8  1  0  0  0  0
M  END
$$$$
