C3H8S
APtclcactv06211804413D 0   0.00000     0.00000
 
 12 11  0  0  0  0  0  0  0  0999 V2000
    2.4907   -0.0918   -0.0000 C   0  0  0  0  0  0  0  0  0  0  0  0
    1.0877    0.5185    0.0000 C   0  0  0  0  0  0  0  0  0  0  0  0
    0.0446   -0.6008    0.0000 C   0  0  0  0  0  0  0  0  0  0  0  0
   -1.6188    0.1228   -0.0000 S   0  0  0  0  0  0  0  0  0  0  0  0
    3.2339    0.7056    0.0000 H   0  0  0  0  0  0  0  0  0  0  0  0
    2.6189   -0.7079    0.8900 H   0  0  0  0  0  0  0  0  0  0  0  0
    2.6189   -0.7079   -0.8900 H   0  0  0  0  0  0  0  0  0  0  0  0
    0.9595    1.1346    0.8900 H   0  0  0  0  0  0  0  0  0  0  0  0
    0.9595    1.1346   -0.8900 H   0  0  0  0  0  0  0  0  0  0  0  0
    0.1728   -1.2169   -0.8900 H   0  0  0  0  0  0  0  0  0  0  0  0
    0.1728   -1.2169    0.8900 H   0  0  0  0  0  0  0  0  0  0  0  0
   -2.4190   -0.9582    0.0000 H   0  0  0  0  0  0  0  0  0  0  0  0
  1  2  1  0  0  0  0
  2  3  1  0  0  0  0
  3  4  1  0  0  0  0
  1  5  1  0  0  0  0
  1  6  1  0  0  0  0
  1  7  1  0  0  0  0
  2  8  1  0  0  0  0
  2  9  1  0  0  0  0
  3 10  1  0  0  0  0
  3 11  1  0  0  0  0
  4 12  1  0  0  0  0
M  END
$$$$
