C5H13N
APtclcactv06211804413D 0   0.00000     0.00000
 
 19 18  0  0  0  0  0  0  0  0999 V2000
   -1.2974    1.3880   -0.2269 C   0  0  0  0  0  0  0  0  0  0  0  0
   -1.0619   -0.0066    0.3567 C   0  0  0  0  0  0  0  0  0  0  0  0
   -2.2065   -0.9331   -0.0586 C   0  0  0  0  0  0  0  0  0  0  0  0
    0.2619   -0.5633   -0.1709 C   0  0  0  0  0  0  0  0  0  0  0  0
    1.4185    0.2933    0.3483 C   0  0  0  0  0  0  0  0  0  0  0  0
    2.6896   -0.2413   -0.1582 N   0  0  0  0  0  0  0  0  0  0  0  0
   -0.4820    2.0481    0.0689 H   0  0  0  0  0  0  0  0  0  0  0  0
   -1.3374    1.3248   -1.3143 H   0  0  0  0  0  0  0  0  0  0  0  0
   -2.2406    1.7847    0.1489 H   0  0  0  0  0  0  0  0  0  0  0  0
   -1.0219    0.0566    1.4441 H   0  0  0  0  0  0  0  0  0  0  0  0
   -2.2465   -0.9963   -1.1460 H   0  0  0  0  0  0  0  0  0  0  0  0
   -2.0387   -1.9267    0.3572 H   0  0  0  0  0  0  0  0  0  0  0  0
   -3.1496   -0.5365    0.3172 H   0  0  0  0  0  0  0  0  0  0  0  0
    0.3872   -1.5900    0.1732 H   0  0  0  0  0  0  0  0  0  0  0  0
    0.2559   -0.5436   -1.2607 H   0  0  0  0  0  0  0  0  0  0  0  0
    1.2932    1.3199    0.0042 H   0  0  0  0  0  0  0  0  0  0  0  0
    1.4245    0.2735    1.4381 H   0  0  0  0  0  0  0  0  0  0  0  0
    2.6839   -0.2936   -1.1658 H   0  0  0  0  0  0  0  0  0  0  0  0
    3.4695    0.3077    0.1710 H   0  0  0  0  0  0  0  0  0  0  0  0
  1  2  1  0  0  0  0
  2  3  1  0  0  0  0
  2  4  1  0  0  0  0
  4  5  1  0  0  0  0
  5  6  1  0  0  0  0
  1  7  1  0  0  0  0
  1  8  1  0  0  0  0
  1  9  1  0  0  0  0
  2 10  1  0  0  0  0
  3 11  1  0  0  0  0
  3 12  1  0  0  0  0
  3 13  1  0  0  0  0
  4 14  1  0  0  0  0
  4 15  1  0  0  0  0
  5 16  1  0  0  0  0
  5 17  1  0  0  0  0
  6 18  1  0  0  0  0
  6 19  1  0  0  0  0
M  END
$$$$
