C5H4N4O
APtclcactv06211804313D 0   0.00000     0.00000
 
 14 15  0  0  0  0  0  0  0  0999 V2000
   -2.4487    0.3252    0.0003 C   0  0  0  0  0  0  0  0  0  0  0  0
   -1.9632   -0.8890    0.0002 N   0  0  0  0  0  0  0  0  0  0  0  0
   -0.6272   -0.8415   -0.0002 C   0  0  0  0  0  0  0  0  0  0  0  0
   -0.2633    0.5016   -0.0002 C   0  0  0  0  0  0  0  0  0  0  0  0
   -1.4388    1.2198    0.0001 N   0  0  0  0  0  0  0  0  0  0  0  0
    1.1102    0.8327   -0.0002 C   0  0  0  0  0  0  0  0  0  0  0  0
    1.4661    2.0010    0.0002 O   0  0  0  0  0  0  0  0  0  0  0  0
    2.0211   -0.1593   -0.0000 N   0  0  0  0  0  0  0  0  0  0  0  0
    1.6619   -1.4136    0.0000 C   0  0  0  0  0  0  0  0  0  0  0  0
    0.3695   -1.7915   -0.0000 N   0  0  0  0  0  0  0  0  0  0  0  0
   -3.4996    0.5743   -0.0035 H   0  0  0  0  0  0  0  0  0  0  0  0
   -1.5243    2.1861   -0.0002 H   0  0  0  0  0  0  0  0  0  0  0  0
    2.4277   -2.1751    0.0001 H   0  0  0  0  0  0  0  0  0  0  0  0
    0.1404   -2.7341    0.0003 H   0  0  0  0  0  0  0  0  0  0  0  0
  1  2  2  0  0  0  0
  2  3  1  0  0  0  0
  3  4  2  0  0  0  0
  4  5  1  0  0  0  0
  1  5  1  0  0  0  0
  4  6  1  0  0  0  0
  6  7  2  0  0  0  0
  6  8  1  0  0  0  0
  8  9  2  0  0  0  0
  9 10  1  0  0  0  0
  3 10  1  0  0  0  0
  1 11  1  0  0  0  0
  5 12  1  0  0  0  0
  9 13  1  0  0  0  0
 10 14  1  0  0  0  0
M  END
$$$$
