C12H24O3
APtclcactv06211806283D 0   0.00000     0.00000
 
 39 38  0  0  0  0  0  0  0  0999 V2000
    1.0526   -0.3372   -0.0000 C   0  0  0  0  0  0  0  0  0  0  0  0
   -0.1748    0.5762    0.0000 C   0  0  0  0  0  0  0  0  0  0  0  0
   -1.4451   -0.2766   -0.0000 C   0  0  0  0  0  0  0  0  0  0  0  0
   -2.6726    0.6368   -0.0000 C   0  0  0  0  0  0  0  0  0  0  0  0
   -3.9429   -0.2159   -0.0000 C   0  0  0  0  0  0  0  0  0  0  0  0
   -5.1703    0.6975   -0.0000 C   0  0  0  0  0  0  0  0  0  0  0  0
   -6.4215   -0.1425    0.0000 C   0  0  0  0  0  0  0  0  0  0  0  0
   -6.3399   -1.3480    0.0000 O   0  0  0  0  0  0  0  0  0  0  0  0
   -7.6267    0.4486   -0.0000 O   0  0  0  0  0  0  0  0  0  0  0  0
    2.3229    0.5156    0.0000 C   0  0  0  0  0  0  0  0  0  0  0  0
    3.5503   -0.3978   -0.0000 C   0  0  0  0  0  0  0  0  0  0  0  0
    4.8207    0.4549    0.0000 C   0  0  0  0  0  0  0  0  0  0  0  0
    6.0481   -0.4585   -0.0000 C   0  0  0  0  0  0  0  0  0  0  0  0
    7.3184    0.3943    0.0000 C   0  0  0  0  0  0  0  0  0  0  0  0
    8.4648   -0.4588   -0.0000 O   0  0  0  0  0  0  0  0  0  0  0  0
    1.0373   -0.9663    0.8900 H   0  0  0  0  0  0  0  0  0  0  0  0
    1.0373   -0.9663   -0.8900 H   0  0  0  0  0  0  0  0  0  0  0  0
   -0.1596    1.2053    0.8900 H   0  0  0  0  0  0  0  0  0  0  0  0
   -0.1596    1.2053   -0.8900 H   0  0  0  0  0  0  0  0  0  0  0  0
   -1.4604   -0.9057   -0.8900 H   0  0  0  0  0  0  0  0  0  0  0  0
   -1.4604   -0.9057    0.8900 H   0  0  0  0  0  0  0  0  0  0  0  0
   -2.6573    1.2660    0.8900 H   0  0  0  0  0  0  0  0  0  0  0  0
   -2.6573    1.2660   -0.8900 H   0  0  0  0  0  0  0  0  0  0  0  0
   -3.9582   -0.8451   -0.8900 H   0  0  0  0  0  0  0  0  0  0  0  0
   -3.9582   -0.8451    0.8900 H   0  0  0  0  0  0  0  0  0  0  0  0
   -5.1550    1.3266    0.8900 H   0  0  0  0  0  0  0  0  0  0  0  0
   -5.1550    1.3266   -0.8900 H   0  0  0  0  0  0  0  0  0  0  0  0
   -8.4002   -0.1317    0.0000 H   0  0  0  0  0  0  0  0  0  0  0  0
    2.3382    1.1447   -0.8900 H   0  0  0  0  0  0  0  0  0  0  0  0
    2.3382    1.1447    0.8900 H   0  0  0  0  0  0  0  0  0  0  0  0
    3.5351   -1.0270    0.8900 H   0  0  0  0  0  0  0  0  0  0  0  0
    3.5351   -1.0270   -0.8900 H   0  0  0  0  0  0  0  0  0  0  0  0
    4.8359    1.0841   -0.8900 H   0  0  0  0  0  0  0  0  0  0  0  0
    4.8359    1.0841    0.8900 H   0  0  0  0  0  0  0  0  0  0  0  0
    6.0328   -1.0876    0.8900 H   0  0  0  0  0  0  0  0  0  0  0  0
    6.0328   -1.0876   -0.8900 H   0  0  0  0  0  0  0  0  0  0  0  0
    7.3337    1.0234   -0.8900 H   0  0  0  0  0  0  0  0  0  0  0  0
    7.3337    1.0234    0.8900 H   0  0  0  0  0  0  0  0  0  0  0  0
    9.3077    0.0151    0.0000 H   0  0  0  0  0  0  0  0  0  0  0  0
  1  2  1  0  0  0  0
  2  3  1  0  0  0  0
  3  4  1  0  0  0  0
  4  5  1  0  0  0  0
  5  6  1  0  0  0  0
  6  7  1  0  0  0  0
  7  8  2  0  0  0  0
  7  9  1  0  0  0  0
  1 10  1  0  0  0  0
 10 11  1  0  0  0  0
 11 12  1  0  0  0  0
 12 13  1  0  0  0  0
 13 14  1  0  0  0  0
 14 15  1  0  0  0  0
  1 16  1  0  0  0  0
  1 17  1  0  0  0  0
  2 18  1  0  0  0  0
  2 19  1  0  0  0  0
  3 20  1  0  0  0  0
  3 21  1  0  0  0  0
  4 22  1  0  0  0  0
  4 23  1  0  0  0  0
  5 24  1  0  0  0  0
  5 25  1  0  0  0  0
  6 26  1  0  0  0  0
  6 27  1  0  0  0  0
  9 28  1  0  0  0  0
 10 29  1  0  0  0  0
 10 30  1  0  0  0  0
 11 31  1  0  0  0  0
 11 32  1  0  0  0  0
 12 33  1  0  0  0  0
 12 34  1  0  0  0  0
 13 35  1  0  0  0  0
 13 36  1  0  0  0  0
 14 37  1  0  0  0  0
 14 38  1  0  0  0  0
 15 39  1  0  0  0  0
M  END
$$$$
