C6H8S
APtclcactv06211806283D 0   0.00000     0.00000
 
 15 15  0  0  0  0  0  0  0  0999 V2000
    1.8957    1.5027    0.0012 C   0  0  0  0  0  0  0  0  0  0  0  0
    0.6253    0.6921    0.0011 C   0  0  0  0  0  0  0  0  0  0  0  0
   -0.5844    1.2542   -0.0012 C   0  0  0  0  0  0  0  0  0  0  0  0
   -1.8175    0.0000   -0.0004 S   0  0  0  0  0  0  0  0  0  0  0  0
   -0.5844   -1.2542    0.0031 C   0  0  0  0  0  0  0  0  0  0  0  0
    0.6253   -0.6921   -0.0024 C   0  0  0  0  0  0  0  0  0  0  0  0
    1.8957   -1.5027   -0.0012 C   0  0  0  0  0  0  0  0  0  0  0  0
    2.2011    1.6995    1.0289 H   0  0  0  0  0  0  0  0  0  0  0  0
    2.6812    0.9472   -0.5112 H   0  0  0  0  0  0  0  0  0  0  0  0
    1.7238    2.4477   -0.5140 H   0  0  0  0  0  0  0  0  0  0  0  0
   -0.7772    2.3168   -0.0027 H   0  0  0  0  0  0  0  0  0  0  0  0
   -0.7772   -2.3168    0.0053 H   0  0  0  0  0  0  0  0  0  0  0  0
    2.1995   -1.7036   -1.0285 H   0  0  0  0  0  0  0  0  0  0  0  0
    2.6820   -0.9451    0.5077 H   0  0  0  0  0  0  0  0  0  0  0  0
    1.7246   -2.4456    0.5181 H   0  0  0  0  0  0  0  0  0  0  0  0
  1  2  1  0  0  0  0
  2  3  2  0  0  0  0
  3  4  1  0  0  0  0
  4  5  1  0  0  0  0
  5  6  2  0  0  0  0
  2  6  1  0  0  0  0
  6  7  1  0  0  0  0
  1  8  1  0  0  0  0
  1  9  1  0  0  0  0
  1 10  1  0  0  0  0
  3 11  1  0  0  0  0
  5 12  1  0  0  0  0
  7 13  1  0  0  0  0
  7 14  1  0  0  0  0
  7 15  1  0  0  0  0
M  END
$$$$
