C6H13NO2
APtclcactv06211804313D 0   0.00000     0.00000
 
 22 21  0  0  0  0  0  0  0  0999 V2000
    3.3101   -0.6018   -0.0277 C   0  0  0  0  0  0  0  0  0  0  0  0
    2.1286    0.1970   -0.5816 C   0  0  0  0  0  0  0  0  0  0  0  0
    0.8226   -0.3677   -0.0191 C   0  0  0  0  0  0  0  0  0  0  0  0
    0.7836   -0.1508    1.4950 C   0  0  0  0  0  0  0  0  0  0  0  0
   -0.3638    0.3484   -0.6676 C   0  0  0  0  0  0  0  0  0  0  0  0
   -1.6502   -0.2078   -0.1135 C   0  0  0  0  0  0  0  0  0  0  0  0
   -2.2434    0.3902    0.7528 O   0  0  0  0  0  0  0  0  0  0  0  0
   -2.1369   -1.3676   -0.5823 O   0  0  0  0  0  0  0  0  0  0  0  0
   -0.2866    1.7862   -0.3767 N   0  0  0  0  0  0  0  0  0  0  0  0
    4.2405   -0.1996   -0.4285 H   0  0  0  0  0  0  0  0  0  0  0  0
    3.3208   -0.5278    1.0597 H   0  0  0  0  0  0  0  0  0  0  0  0
    3.2106   -1.6473   -0.3198 H   0  0  0  0  0  0  0  0  0  0  0  0
    2.2280    1.2424   -0.2896 H   0  0  0  0  0  0  0  0  0  0  0  0
    2.1178    0.1230   -1.6691 H   0  0  0  0  0  0  0  0  0  0  0  0
    0.7653   -1.4345   -0.2349 H   0  0  0  0  0  0  0  0  0  0  0  0
   -0.1468   -0.5531    1.8958 H   0  0  0  0  0  0  0  0  0  0  0  0
    1.6288   -0.6609    1.9570 H   0  0  0  0  0  0  0  0  0  0  0  0
    0.8409    0.9160    1.7108 H   0  0  0  0  0  0  0  0  0  0  0  0
   -0.3360    0.1939   -1.7462 H   0  0  0  0  0  0  0  0  0  0  0  0
   -2.9650   -1.6843   -0.1960 H   0  0  0  0  0  0  0  0  0  0  0  0
   -1.0230    2.2904   -0.8473 H   0  0  0  0  0  0  0  0  0  0  0  0
   -0.3105    1.9557    0.6177 H   0  0  0  0  0  0  0  0  0  0  0  0
  1  2  1  0  0  0  0
  2  3  1  0  0  0  0
  3  4  1  0  0  0  0
  3  5  1  0  0  0  0
  5  6  1  0  0  0  0
  6  7  2  0  0  0  0
  6  8  1  0  0  0  0
  5  9  1  0  0  0  0
  1 10  1  0  0  0  0
  1 11  1  0  0  0  0
  1 12  1  0  0  0  0
  2 13  1  0  0  0  0
  2 14  1  0  0  0  0
  3 15  1  0  0  0  0
  4 16  1  0  0  0  0
  4 17  1  0  0  0  0
  4 18  1  0  0  0  0
  5 19  1  0  0  0  0
  8 20  1  0  0  0  0
  9 21  1  0  0  0  0
  9 22  1  0  0  0  0
M  END
$$$$
