C5H8O4
APtclcactv06211804413D 0   0.00000     0.00000
 
 17 16  0  0  0  0  0  0  0  0999 V2000
    3.5896   -0.1970    0.0000 C   0  0  0  0  0  0  0  0  0  0  0  0
    2.4496    0.7022    0.0000 O   0  0  0  0  0  0  0  0  0  0  0  0
    1.2305    0.1405   -0.0000 C   0  0  0  0  0  0  0  0  0  0  0  0
    1.1196   -1.0626   -0.0000 O   0  0  0  0  0  0  0  0  0  0  0  0
    0.0000    1.0106   -0.0000 C   0  0  0  0  0  0  0  0  0  0  0  0
   -1.2305    0.1405   -0.0000 C   0  0  0  0  0  0  0  0  0  0  0  0
   -1.1196   -1.0626    0.0000 O   0  0  0  0  0  0  0  0  0  0  0  0
   -2.4496    0.7022   -0.0000 O   0  0  0  0  0  0  0  0  0  0  0  0
   -3.5896   -0.1970    0.0000 C   0  0  0  0  0  0  0  0  0  0  0  0
    4.5113    0.3848    0.0000 H   0  0  0  0  0  0  0  0  0  0  0  0
    3.5567   -0.8255    0.8900 H   0  0  0  0  0  0  0  0  0  0  0  0
    3.5567   -0.8255   -0.8900 H   0  0  0  0  0  0  0  0  0  0  0  0
    0.0000    1.6399    0.8900 H   0  0  0  0  0  0  0  0  0  0  0  0
    0.0000    1.6399   -0.8900 H   0  0  0  0  0  0  0  0  0  0  0  0
   -3.5567   -0.8255   -0.8900 H   0  0  0  0  0  0  0  0  0  0  0  0
   -3.5567   -0.8255    0.8900 H   0  0  0  0  0  0  0  0  0  0  0  0
   -4.5113    0.3848    0.0000 H   0  0  0  0  0  0  0  0  0  0  0  0
  1  2  1  0  0  0  0
  2  3  1  0  0  0  0
  3  4  2  0  0  0  0
  3  5  1  0  0  0  0
  5  6  1  0  0  0  0
  6  7  2  0  0  0  0
  6  8  1  0  0  0  0
  8  9  1  0  0  0  0
  1 10  1  0  0  0  0
  1 11  1  0  0  0  0
  1 12  1  0  0  0  0
  5 13  1  0  0  0  0
  5 14  1  0  0  0  0
  9 15  1  0  0  0  0
  9 16  1  0  0  0  0
  9 17  1  0  0  0  0
M  END
$$$$
