C7H14
APtclcactv06211804413D 0   0.00000     0.00000
 
 21 21  0  0  0  0  0  0  0  0999 V2000
    2.4659   -0.0000   -0.0838 C   0  0  0  0  0  0  0  0  0  0  0  0
    0.9985    0.0000    0.3497 C   0  0  0  0  0  0  0  0  0  0  0  0
    0.3051    1.2492   -0.1976 C   0  0  0  0  0  0  0  0  0  0  0  0
   -1.1622    1.2492    0.2359 C   0  0  0  0  0  0  0  0  0  0  0  0
   -1.8556   -0.0000   -0.3113 C   0  0  0  0  0  0  0  0  0  0  0  0
   -1.1622   -1.2492    0.2359 C   0  0  0  0  0  0  0  0  0  0  0  0
    0.3051   -1.2492   -0.1976 C   0  0  0  0  0  0  0  0  0  0  0  0
    2.9599    0.8900    0.3061 H   0  0  0  0  0  0  0  0  0  0  0  0
    2.9599   -0.8900    0.3061 H   0  0  0  0  0  0  0  0  0  0  0  0
    2.5232    0.0000   -1.1723 H   0  0  0  0  0  0  0  0  0  0  0  0
    0.9412    0.0000    1.4381 H   0  0  0  0  0  0  0  0  0  0  0  0
    0.7991    2.1392    0.1923 H   0  0  0  0  0  0  0  0  0  0  0  0
    0.3624    1.2492   -1.2861 H   0  0  0  0  0  0  0  0  0  0  0  0
   -1.2195    1.2492    1.3244 H   0  0  0  0  0  0  0  0  0  0  0  0
   -1.6562    2.1392   -0.1540 H   0  0  0  0  0  0  0  0  0  0  0  0
   -2.9010   -0.0000   -0.0025 H   0  0  0  0  0  0  0  0  0  0  0  0
   -1.7983   -0.0000   -1.3998 H   0  0  0  0  0  0  0  0  0  0  0  0
   -1.2195   -1.2492    1.3244 H   0  0  0  0  0  0  0  0  0  0  0  0
   -1.6562   -2.1392   -0.1540 H   0  0  0  0  0  0  0  0  0  0  0  0
    0.3624   -1.2492   -1.2861 H   0  0  0  0  0  0  0  0  0  0  0  0
    0.7991   -2.1392    0.1923 H   0  0  0  0  0  0  0  0  0  0  0  0
  1  2  1  0  0  0  0
  2  3  1  0  0  0  0
  3  4  1  0  0  0  0
  4  5  1  0  0  0  0
  5  6  1  0  0  0  0
  6  7  1  0  0  0  0
  2  7  1  0  0  0  0
  1  8  1  0  0  0  0
  1  9  1  0  0  0  0
  1 10  1  0  0  0  0
  2 11  1  0  0  0  0
  3 12  1  0  0  0  0
  3 13  1  0  0  0  0
  4 14  1  0  0  0  0
  4 15  1  0  0  0  0
  5 16  1  0  0  0  0
  5 17  1  0  0  0  0
  6 18  1  0  0  0  0
  6 19  1  0  0  0  0
  7 20  1  0  0  0  0
  7 21  1  0  0  0  0
M  END
$$$$
