C6H10O
APtclcactv06211804413D 0   0.00000     0.00000
 
 17 17  0  0  0  0  0  0  0  0999 V2000
   -1.8079    0.0000   -0.1291 C   0  0  0  0  0  0  0  0  0  0  0  0
   -1.0511   -1.2516    0.3185 C   0  0  0  0  0  0  0  0  0  0  0  0
    0.3124   -1.2987   -0.3790 C   0  0  0  0  0  0  0  0  0  0  0  0
    1.0380   -0.0000   -0.1048 C   0  0  0  0  0  0  0  0  0  0  0  0
    2.1678   -0.0000    0.3218 O   0  0  0  0  0  0  0  0  0  0  0  0
    0.3124    1.2987   -0.3790 C   0  0  0  0  0  0  0  0  0  0  0  0
   -1.0511    1.2516    0.3185 C   0  0  0  0  0  0  0  0  0  0  0  0
   -1.8976    0.0000   -1.2154 H   0  0  0  0  0  0  0  0  0  0  0  0
   -2.8031    0.0000    0.3156 H   0  0  0  0  0  0  0  0  0  0  0  0
   -0.9061   -1.2219    1.3984 H   0  0  0  0  0  0  0  0  0  0  0  0
   -1.6261   -2.1386    0.0529 H   0  0  0  0  0  0  0  0  0  0  0  0
    0.8949   -2.1330    0.0117 H   0  0  0  0  0  0  0  0  0  0  0  0
    0.1703   -1.4189   -1.4530 H   0  0  0  0  0  0  0  0  0  0  0  0
    0.8949    2.1330    0.0117 H   0  0  0  0  0  0  0  0  0  0  0  0
    0.1703    1.4189   -1.4530 H   0  0  0  0  0  0  0  0  0  0  0  0
   -1.6261    2.1386    0.0529 H   0  0  0  0  0  0  0  0  0  0  0  0
   -0.9061    1.2219    1.3984 H   0  0  0  0  0  0  0  0  0  0  0  0
  1  2  1  0  0  0  0
  2  3  1  0  0  0  0
  3  4  1  0  0  0  0
  4  5  2  0  0  0  0
  4  6  1  0  0  0  0
  6  7  1  0  0  0  0
  1  7  1  0  0  0  0
  1  8  1  0  0  0  0
  1  9  1  0  0  0  0
  2 10  1  0  0  0  0
  2 11  1  0  0  0  0
  3 12  1  0  0  0  0
  3 13  1  0  0  0  0
  6 14  1  0  0  0  0
  6 15  1  0  0  0  0
  7 16  1  0  0  0  0
  7 17  1  0  0  0  0
M  END
$$$$
