C2H6S4
APtclcactv06211806283D 0   0.00000     0.00000
 
 12 11  0  0  0  0  0  0  0  0999 V2000
    3.3161   -0.1433    0.5987 C   0  0  0  0  0  0  0  0  0  0  0  0
    1.9938    0.7787   -0.2333 S   0  0  0  0  0  0  0  0  0  0  0  0
    0.6736   -0.6940   -0.7726 S   0  0  0  0  0  0  0  0  0  0  0  0
   -0.6736   -0.6940    0.7726 S   0  0  0  0  0  0  0  0  0  0  0  0
   -1.9938    0.7787    0.2333 S   0  0  0  0  0  0  0  0  0  0  0  0
   -3.3161   -0.1433   -0.5987 C   0  0  0  0  0  0  0  0  0  0  0  0
    2.9047   -0.6725    1.4583 H   0  0  0  0  0  0  0  0  0  0  0  0
    3.7508   -0.8618   -0.0962 H   0  0  0  0  0  0  0  0  0  0  0  0
    4.0872    0.5503    0.9340 H   0  0  0  0  0  0  0  0  0  0  0  0
   -2.9047   -0.6725   -1.4583 H   0  0  0  0  0  0  0  0  0  0  0  0
   -3.7508   -0.8618    0.0962 H   0  0  0  0  0  0  0  0  0  0  0  0
   -4.0872    0.5503   -0.9340 H   0  0  0  0  0  0  0  0  0  0  0  0
  1  2  1  0  0  0  0
  2  3  1  0  0  0  0
  3  4  1  0  0  0  0
  4  5  1  0  0  0  0
  5  6  1  0  0  0  0
  1  7  1  0  0  0  0
  1  8  1  0  0  0  0
  1  9  1  0  0  0  0
  6 10  1  0  0  0  0
  6 11  1  0  0  0  0
  6 12  1  0  0  0  0
M  END
$$$$
