C10H8NO2
APtclcactv06211804313D 0   0.00000     0.00000
 
 21 22  0  0  0  0  0  0  0  0999 V2000
   -2.2353   -1.8923    0.1705 C   0  0  0  0  0  0  0  0  0  0  0  0
   -3.2065   -0.9962   -0.2538 C   0  0  0  0  0  0  0  0  0  0  0  0
   -2.9130    0.3425   -0.3969 C   0  0  0  0  0  0  0  0  0  0  0  0
   -1.6314    0.8027   -0.1139 C   0  0  0  0  0  0  0  0  0  0  0  0
   -0.6505   -0.1098    0.3160 C   0  0  0  0  0  0  0  0  0  0  0  0
   -0.9697   -1.4617    0.4541 C   0  0  0  0  0  0  0  0  0  0  0  0
    0.5682    0.6754    0.5265 C   0  0  0  0  0  0  0  0  0  0  0  0
    0.2704    1.9498    0.2278 C   0  0  0  0  0  0  0  0  0  0  0  0
   -1.0393    2.0451   -0.1568 N   0  0  0  0  0  0  0  0  0  0  0  0
    1.9028    0.1520    0.9910 C   0  0  0  0  0  0  0  0  0  0  0  0
    2.6795   -0.3644   -0.1927 C   0  0  0  0  0  0  0  0  0  0  0  0
    2.1943   -0.3122   -1.3100 O   0  0  0  0  0  0  0  0  0  0  0  0
    3.7931   -0.8344   -0.0330 O   0  5  0  0  0  0  0  0  0  0  0  0
   -2.4830   -2.9376    0.2818 H   0  0  0  0  0  0  0  0  0  0  0  0
   -4.2021   -1.3517   -0.4744 H   0  0  0  0  0  0  0  0  0  0  0  0
   -3.6755    1.0319   -0.7280 H   0  0  0  0  0  0  0  0  0  0  0  0
   -0.2193   -2.1648    0.7841 H   0  0  0  0  0  0  0  0  0  0  0  0
    0.9621    2.7774    0.2829 H   0  0  0  0  0  0  0  0  0  0  0  0
   -1.4843    2.8657   -0.4206 H   0  0  0  0  0  0  0  0  0  0  0  0
    2.4618    0.9560    1.4697 H   0  0  0  0  0  0  0  0  0  0  0  0
    1.7473   -0.6572    1.7046 H   0  0  0  0  0  0  0  0  0  0  0  0
  1  2  2  0  0  0  0
  2  3  1  0  0  0  0
  3  4  2  0  0  0  0
  4  5  1  0  0  0  0
  5  6  2  0  0  0  0
  1  6  1  0  0  0  0
  5  7  1  0  0  0  0
  7  8  2  0  0  0  0
  8  9  1  0  0  0  0
  4  9  1  0  0  0  0
  7 10  1  0  0  0  0
 10 11  1  0  0  0  0
 11 12  2  0  0  0  0
 11 13  1  0  0  0  0
  1 14  1  0  0  0  0
  2 15  1  0  0  0  0
  3 16  1  0  0  0  0
  6 17  1  0  0  0  0
  8 18  1  0  0  0  0
  9 19  1  0  0  0  0
 10 20  1  0  0  0  0
 10 21  1  0  0  0  0
M  CHG  1  13  -1
M  END
$$$$
