C15H10O4
APtclcactv06211806283D 0   0.00000     0.00000
 
 29 31  0  0  0  0  0  0  0  0999 V2000
    5.2233    0.4528   -0.3028 C   0  0  0  0  0  0  0  0  0  0  0  0
    4.1578   -0.4932   -0.1944 O   0  0  0  0  0  0  0  0  0  0  0  0
    2.8988    0.0050   -0.0970 C   0  0  0  0  0  0  0  0  0  0  0  0
    1.8099   -0.8683    0.0120 C   0  0  0  0  0  0  0  0  0  0  0  0
    0.5193   -0.3503    0.1116 C   0  0  0  0  0  0  0  0  0  0  0  0
    0.3243    1.0469    0.1023 C   0  0  0  0  0  0  0  0  0  0  0  0
    1.4194    1.8982   -0.0063 C   0  0  0  0  0  0  0  0  0  0  0  0
    2.6972    1.3753   -0.1000 C   0  0  0  0  0  0  0  0  0  0  0  0
   -1.0429    1.5937    0.2070 C   0  0  0  0  0  0  0  0  0  0  0  0
   -1.2170    2.7719    0.4503 O   0  0  0  0  0  0  0  0  0  0  0  0
   -2.1986    0.6910    0.0117 C   0  0  0  0  0  0  0  0  0  0  0  0
   -3.4751    1.2073   -0.1815 C   0  0  0  0  0  0  0  0  0  0  0  0
   -4.5450    0.3475   -0.3629 C   0  0  0  0  0  0  0  0  0  0  0  0
   -4.3533   -1.0218   -0.3534 C   0  0  0  0  0  0  0  0  0  0  0  0
   -3.0888   -1.5522   -0.1618 C   0  0  0  0  0  0  0  0  0  0  0  0
   -2.0035   -0.7027    0.0213 C   0  0  0  0  0  0  0  0  0  0  0  0
   -0.6442   -1.2503    0.2257 C   0  0  0  0  0  0  0  0  0  0  0  0
   -0.4879   -2.4279    0.4834 O   0  0  0  0  0  0  0  0  0  0  0  0
    2.0092   -2.2098    0.0201 O   0  0  0  0  0  0  0  0  0  0  0  0
    5.2299    1.0951    0.5778 H   0  0  0  0  0  0  0  0  0  0  0  0
    6.1735   -0.0766   -0.3735 H   0  0  0  0  0  0  0  0  0  0  0  0
    5.0793    1.0616   -1.1954 H   0  0  0  0  0  0  0  0  0  0  0  0
    1.2724    2.9681   -0.0138 H   0  0  0  0  0  0  0  0  0  0  0  0
    3.5435    2.0409   -0.1843 H   0  0  0  0  0  0  0  0  0  0  0  0
   -3.6316    2.2759   -0.1898 H   0  0  0  0  0  0  0  0  0  0  0  0
   -5.5362    0.7491   -0.5131 H   0  0  0  0  0  0  0  0  0  0  0  0
   -5.1958   -1.6822   -0.4961 H   0  0  0  0  0  0  0  0  0  0  0  0
   -2.9460   -2.6227   -0.1546 H   0  0  0  0  0  0  0  0  0  0  0  0
    2.1419   -2.5824    0.9026 H   0  0  0  0  0  0  0  0  0  0  0  0
  1  2  1  0  0  0  0
  2  3  1  0  0  0  0
  3  4  2  0  0  0  0
  4  5  1  0  0  0  0
  5  6  2  0  0  0  0
  6  7  1  0  0  0  0
  7  8  2  0  0  0  0
  3  8  1  0  0  0  0
  6  9  1  0  0  0  0
  9 10  2  0  0  0  0
  9 11  1  0  0  0  0
 11 12  2  0  0  0  0
 12 13  1  0  0  0  0
 13 14  2  0  0  0  0
 14 15  1  0  0  0  0
 15 16  2  0  0  0  0
 11 16  1  0  0  0  0
 16 17  1  0  0  0  0
  5 17  1  0  0  0  0
 17 18  2  0  0  0  0
  4 19  1  0  0  0  0
  1 20  1  0  0  0  0
  1 21  1  0  0  0  0
  1 22  1  0  0  0  0
  7 23  1  0  0  0  0
  8 24  1  0  0  0  0
 12 25  1  0  0  0  0
 13 26  1  0  0  0  0
 14 27  1  0  0  0  0
 15 28  1  0  0  0  0
 19 29  1  0  0  0  0
M  END
$$$$
