C10H9NO2
APtclcactv06201807123D 0   0.00000     0.00000
 
 22 23  0  0  0  0  0  0  0  0999 V2000
   -2.2420   -1.9156    0.1733 C   0  0  0  0  0  0  0  0  0  0  0  0
   -3.2258   -1.0362   -0.2570 C   0  0  0  0  0  0  0  0  0  0  0  0
   -2.9528    0.3063   -0.4042 C   0  0  0  0  0  0  0  0  0  0  0  0
   -1.6793    0.7875   -0.1193 C   0  0  0  0  0  0  0  0  0  0  0  0
   -0.6855   -0.1081    0.3167 C   0  0  0  0  0  0  0  0  0  0  0  0
   -0.9841   -1.4643    0.4588 C   0  0  0  0  0  0  0  0  0  0  0  0
    0.5201    0.6968    0.5277 C   0  0  0  0  0  0  0  0  0  0  0  0
    0.2033    1.9653    0.2236 C   0  0  0  0  0  0  0  0  0  0  0  0
   -1.1066    2.0388   -0.1650 N   0  0  0  0  0  0  0  0  0  0  0  0
    1.8614    0.1959    0.9979 C   0  0  0  0  0  0  0  0  0  0  0  0
    2.6494   -0.3125   -0.1817 C   0  0  0  0  0  0  0  0  0  0  0  0
    2.1710   -0.2722   -1.2905 O   0  0  0  0  0  0  0  0  0  0  0  0
    3.8829   -0.8101   -0.0007 O   0  0  0  0  0  0  0  0  0  0  0  0
   -2.4737   -2.9642    0.2877 H   0  0  0  0  0  0  0  0  0  0  0  0
   -4.2151   -1.4080   -0.4791 H   0  0  0  0  0  0  0  0  0  0  0  0
   -3.7250    0.9826   -0.7400 H   0  0  0  0  0  0  0  0  0  0  0  0
   -0.2237   -2.1544    0.7935 H   0  0  0  0  0  0  0  0  0  0  0  0
    0.8819    2.8038    0.2776 H   0  0  0  0  0  0  0  0  0  0  0  0
   -1.5636    2.8514   -0.4331 H   0  0  0  0  0  0  0  0  0  0  0  0
    2.4064    1.0103    1.4752 H   0  0  0  0  0  0  0  0  0  0  0  0
    1.7165   -0.6130    1.7139 H   0  0  0  0  0  0  0  0  0  0  0  0
    4.3494   -1.1241   -0.7873 H   0  0  0  0  0  0  0  0  0  0  0  0
  1  2  2  0  0  0  0
  2  3  1  0  0  0  0
  3  4  2  0  0  0  0
  4  5  1  0  0  0  0
  5  6  2  0  0  0  0
  1  6  1  0  0  0  0
  5  7  1  0  0  0  0
  7  8  2  0  0  0  0
  8  9  1  0  0  0  0
  4  9  1  0  0  0  0
  7 10  1  0  0  0  0
 10 11  1  0  0  0  0
 11 12  2  0  0  0  0
 11 13  1  0  0  0  0
  1 14  1  0  0  0  0
  2 15  1  0  0  0  0
  3 16  1  0  0  0  0
  6 17  1  0  0  0  0
  8 18  1  0  0  0  0
  9 19  1  0  0  0  0
 10 20  1  0  0  0  0
 10 21  1  0  0  0  0
 13 22  1  0  0  0  0
M  END
$$$$
