C4H11N
APtclcactv06211804423D 0   0.00000     0.00000
 
 16 15  0  0  0  0  0  0  0  0999 V2000
    2.4480   -0.3663    0.0290 C   0  0  0  0  0  0  0  0  0  0  0  0
    1.2106    0.5325   -0.0158 C   0  0  0  0  0  0  0  0  0  0  0  0
   -0.0000   -0.2985    0.0257 N   0  0  0  0  0  0  0  0  0  0  0  0
   -1.2106    0.5325   -0.0158 C   0  0  0  0  0  0  0  0  0  0  0  0
   -2.4480   -0.3663    0.0290 C   0  0  0  0  0  0  0  0  0  0  0  0
    3.3463    0.2503   -0.0017 H   0  0  0  0  0  0  0  0  0  0  0  0
    2.4396   -0.9505    0.9493 H   0  0  0  0  0  0  0  0  0  0  0  0
    2.4396   -1.0391   -0.8285 H   0  0  0  0  0  0  0  0  0  0  0  0
    1.2190    1.2053    0.8418 H   0  0  0  0  0  0  0  0  0  0  0  0
    1.2190    1.1166   -0.9360 H   0  0  0  0  0  0  0  0  0  0  0  0
    0.0000   -0.9751   -0.7229 H   0  0  0  0  0  0  0  0  0  0  0  0
   -1.2190    1.2053    0.8418 H   0  0  0  0  0  0  0  0  0  0  0  0
   -1.2190    1.1166   -0.9360 H   0  0  0  0  0  0  0  0  0  0  0  0
   -3.3463    0.2503   -0.0017 H   0  0  0  0  0  0  0  0  0  0  0  0
   -2.4396   -1.0391   -0.8285 H   0  0  0  0  0  0  0  0  0  0  0  0
   -2.4396   -0.9505    0.9493 H   0  0  0  0  0  0  0  0  0  0  0  0
  1  2  1  0  0  0  0
  2  3  1  0  0  0  0
  3  4  1  0  0  0  0
  4  5  1  0  0  0  0
  1  6  1  0  0  0  0
  1  7  1  0  0  0  0
  1  8  1  0  0  0  0
  2  9  1  0  0  0  0
  2 10  1  0  0  0  0
  3 11  1  0  0  0  0
  4 12  1  0  0  0  0
  4 13  1  0  0  0  0
  5 14  1  0  0  0  0
  5 15  1  0  0  0  0
  5 16  1  0  0  0  0
M  END
$$$$
