C4H5N
APtclcactv06201815203D 0   0.00000     0.00000
 
 10 10  0  0  0  0  0  0  0  0999 V2000
    0.9638   -0.7046   -0.0003 C   0  0  0  0  0  0  0  0  0  0  0  0
   -0.3229   -1.1081   -0.0001 C   0  0  0  0  0  0  0  0  0  0  0  0
   -1.1172    0.0001    0.0001 N   0  0  0  0  0  0  0  0  0  0  0  0
   -0.3227    1.1081    0.0001 C   0  0  0  0  0  0  0  0  0  0  0  0
    0.9639    0.7044   -0.0001 C   0  0  0  0  0  0  0  0  0  0  0  0
    1.8342   -1.3439    0.0035 H   0  0  0  0  0  0  0  0  0  0  0  0
   -0.6652   -2.1324   -0.0002 H   0  0  0  0  0  0  0  0  0  0  0  0
   -2.0872    0.0002   -0.0002 H   0  0  0  0  0  0  0  0  0  0  0  0
   -0.6648    2.1325    0.0003 H   0  0  0  0  0  0  0  0  0  0  0  0
    1.8345    1.3435   -0.0002 H   0  0  0  0  0  0  0  0  0  0  0  0
  1  2  2  0  0  0  0
  2  3  1  0  0  0  0
  3  4  1  0  0  0  0
  4  5  2  0  0  0  0
  1  5  1  0  0  0  0
  1  6  1  0  0  0  0
  2  7  1  0  0  0  0
  3  8  1  0  0  0  0
  4  9  1  0  0  0  0
  5 10  1  0  0  0  0
M  END
$$$$
