C19H40O
APtclcactv06211806283D 0   0.00000     0.00000
 
 60 59  0  0  0  0  0  0  0  0999 V2000
   11.9470   -0.3791   -0.0000 C   0  0  0  0  0  0  0  0  0  0  0  0
   10.6934    0.4982    0.0000 C   0  0  0  0  0  0  0  0  0  0  0  0
    9.4485   -0.3913   -0.0000 C   0  0  0  0  0  0  0  0  0  0  0  0
    8.1950    0.4860    0.0000 C   0  0  0  0  0  0  0  0  0  0  0  0
    6.9501   -0.4034   -0.0000 C   0  0  0  0  0  0  0  0  0  0  0  0
    5.6965    0.4738    0.0000 C   0  0  0  0  0  0  0  0  0  0  0  0
    4.4516   -0.4156   -0.0000 C   0  0  0  0  0  0  0  0  0  0  0  0
    3.1981    0.4617    0.0000 C   0  0  0  0  0  0  0  0  0  0  0  0
    1.9532   -0.4278   -0.0000 C   0  0  0  0  0  0  0  0  0  0  0  0
    0.6996    0.4495    0.0000 C   0  0  0  0  0  0  0  0  0  0  0  0
   -0.5453   -0.4399    0.0000 C   0  0  0  0  0  0  0  0  0  0  0  0
   -1.7988    0.4373   -0.0000 C   0  0  0  0  0  0  0  0  0  0  0  0
   -3.0437   -0.4521    0.0000 C   0  0  0  0  0  0  0  0  0  0  0  0
   -4.2973    0.4252   -0.0000 C   0  0  0  0  0  0  0  0  0  0  0  0
   -5.5422   -0.4643    0.0000 C   0  0  0  0  0  0  0  0  0  0  0  0
   -6.7957    0.4130   -0.0000 C   0  0  0  0  0  0  0  0  0  0  0  0
   -8.0406   -0.4764    0.0000 C   0  0  0  0  0  0  0  0  0  0  0  0
   -9.2942    0.4008   -0.0000 C   0  0  0  0  0  0  0  0  0  0  0  0
  -10.5391   -0.4886    0.0000 C   0  0  0  0  0  0  0  0  0  0  0  0
  -11.7099    0.3307   -0.0000 O   0  0  0  0  0  0  0  0  0  0  0  0
   11.9500   -1.0084    0.8900 H   0  0  0  0  0  0  0  0  0  0  0  0
   11.9500   -1.0084   -0.8900 H   0  0  0  0  0  0  0  0  0  0  0  0
   12.8339    0.2545    0.0000 H   0  0  0  0  0  0  0  0  0  0  0  0
   10.6904    1.1275    0.8900 H   0  0  0  0  0  0  0  0  0  0  0  0
   10.6904    1.1275   -0.8900 H   0  0  0  0  0  0  0  0  0  0  0  0
    9.4516   -1.0206   -0.8900 H   0  0  0  0  0  0  0  0  0  0  0  0
    9.4516   -1.0206    0.8900 H   0  0  0  0  0  0  0  0  0  0  0  0
    8.1919    1.1153    0.8900 H   0  0  0  0  0  0  0  0  0  0  0  0
    8.1919    1.1153   -0.8900 H   0  0  0  0  0  0  0  0  0  0  0  0
    6.9531   -1.0327   -0.8900 H   0  0  0  0  0  0  0  0  0  0  0  0
    6.9531   -1.0327    0.8900 H   0  0  0  0  0  0  0  0  0  0  0  0
    5.6935    1.1031    0.8900 H   0  0  0  0  0  0  0  0  0  0  0  0
    5.6935    1.1031   -0.8900 H   0  0  0  0  0  0  0  0  0  0  0  0
    4.4547   -1.0449   -0.8900 H   0  0  0  0  0  0  0  0  0  0  0  0
    4.4547   -1.0449    0.8900 H   0  0  0  0  0  0  0  0  0  0  0  0
    3.1950    1.0910    0.8900 H   0  0  0  0  0  0  0  0  0  0  0  0
    3.1950    1.0910   -0.8900 H   0  0  0  0  0  0  0  0  0  0  0  0
    1.9562   -1.0571   -0.8900 H   0  0  0  0  0  0  0  0  0  0  0  0
    1.9562   -1.0571    0.8900 H   0  0  0  0  0  0  0  0  0  0  0  0
    0.6966    1.0788    0.8900 H   0  0  0  0  0  0  0  0  0  0  0  0
    0.6966    1.0788   -0.8900 H   0  0  0  0  0  0  0  0  0  0  0  0
   -0.5422   -1.0692   -0.8900 H   0  0  0  0  0  0  0  0  0  0  0  0
   -0.5422   -1.0692    0.8900 H   0  0  0  0  0  0  0  0  0  0  0  0
   -1.8019    1.0666    0.8900 H   0  0  0  0  0  0  0  0  0  0  0  0
   -1.8019    1.0666   -0.8900 H   0  0  0  0  0  0  0  0  0  0  0  0
   -3.0407   -1.0814   -0.8900 H   0  0  0  0  0  0  0  0  0  0  0  0
   -3.0407   -1.0814    0.8900 H   0  0  0  0  0  0  0  0  0  0  0  0
   -4.3003    1.0545    0.8900 H   0  0  0  0  0  0  0  0  0  0  0  0
   -4.3003    1.0545   -0.8900 H   0  0  0  0  0  0  0  0  0  0  0  0
   -5.5391   -1.0936   -0.8900 H   0  0  0  0  0  0  0  0  0  0  0  0
   -5.5391   -1.0936    0.8900 H   0  0  0  0  0  0  0  0  0  0  0  0
   -6.7988    1.0423    0.8900 H   0  0  0  0  0  0  0  0  0  0  0  0
   -6.7988    1.0423   -0.8900 H   0  0  0  0  0  0  0  0  0  0  0  0
   -8.0376   -1.1057   -0.8900 H   0  0  0  0  0  0  0  0  0  0  0  0
   -8.0376   -1.1057    0.8900 H   0  0  0  0  0  0  0  0  0  0  0  0
   -9.2972    1.0301    0.8900 H   0  0  0  0  0  0  0  0  0  0  0  0
   -9.2972    1.0301   -0.8900 H   0  0  0  0  0  0  0  0  0  0  0  0
  -10.5360   -1.1179   -0.8900 H   0  0  0  0  0  0  0  0  0  0  0  0
  -10.5360   -1.1179    0.8900 H   0  0  0  0  0  0  0  0  0  0  0  0
  -12.5386   -0.1675    0.0000 H   0  0  0  0  0  0  0  0  0  0  0  0
  1  2  1  0  0  0  0
  2  3  1  0  0  0  0
  3  4  1  0  0  0  0
  4  5  1  0  0  0  0
  5  6  1  0  0  0  0
  6  7  1  0  0  0  0
  7  8  1  0  0  0  0
  8  9  1  0  0  0  0
  9 10  1  0  0  0  0
 10 11  1  0  0  0  0
 11 12  1  0  0  0  0
 12 13  1  0  0  0  0
 13 14  1  0  0  0  0
 14 15  1  0  0  0  0
 15 16  1  0  0  0  0
 16 17  1  0  0  0  0
 17 18  1  0  0  0  0
 18 19  1  0  0  0  0
 19 20  1  0  0  0  0
  1 21  1  0  0  0  0
  1 22  1  0  0  0  0
  1 23  1  0  0  0  0
  2 24  1  0  0  0  0
  2 25  1  0  0  0  0
  3 26  1  0  0  0  0
  3 27  1  0  0  0  0
  4 28  1  0  0  0  0
  4 29  1  0  0  0  0
  5 30  1  0  0  0  0
  5 31  1  0  0  0  0
  6 32  1  0  0  0  0
  6 33  1  0  0  0  0
  7 34  1  0  0  0  0
  7 35  1  0  0  0  0
  8 36  1  0  0  0  0
  8 37  1  0  0  0  0
  9 38  1  0  0  0  0
  9 39  1  0  0  0  0
 10 40  1  0  0  0  0
 10 41  1  0  0  0  0
 11 42  1  0  0  0  0
 11 43  1  0  0  0  0
 12 44  1  0  0  0  0
 12 45  1  0  0  0  0
 13 46  1  0  0  0  0
 13 47  1  0  0  0  0
 14 48  1  0  0  0  0
 14 49  1  0  0  0  0
 15 50  1  0  0  0  0
 15 51  1  0  0  0  0
 16 52  1  0  0  0  0
 16 53  1  0  0  0  0
 17 54  1  0  0  0  0
 17 55  1  0  0  0  0
 18 56  1  0  0  0  0
 18 57  1  0  0  0  0
 19 58  1  0  0  0  0
 19 59  1  0  0  0  0
 20 60  1  0  0  0  0
M  END
$$$$
