C10H12O2
APtclcactv06211806283D 0   0.00000     0.00000
 
 24 24  0  0  0  0  0  0  0  0999 V2000
    2.8146    0.0627   -1.2496 C   0  0  0  0  0  0  0  0  0  0  0  0
    2.0804   -0.4276   -0.0000 C   0  0  0  0  0  0  0  0  0  0  0  0
    2.8142    0.0649    1.2489 C   0  0  0  0  0  0  0  0  0  0  0  0
    0.6728    0.1108   -0.0007 C   0  0  0  0  0  0  0  0  0  0  0  0
   -0.3322   -0.8379   -0.0001 C   0  0  0  0  0  0  0  0  0  0  0  0
   -1.7350   -0.6300    0.0000 C   0  0  0  0  0  0  0  0  0  0  0  0
   -2.4255   -1.6401    0.0007 O   0  0  0  0  0  0  0  0  0  0  0  0
   -2.4320    0.5912   -0.0001 C   0  0  0  0  0  0  0  0  0  0  0  0
   -1.9179    1.8687   -0.0008 C   0  0  0  0  0  0  0  0  0  0  0  0
   -0.5849    2.2722   -0.0020 C   0  0  0  0  0  0  0  0  0  0  0  0
    0.5567    1.4980    0.0036 C   0  0  0  0  0  0  0  0  0  0  0  0
    0.0743   -2.1304    0.0001 O   0  0  0  0  0  0  0  0  0  0  0  0
    3.8326   -0.3267   -1.2491 H   0  0  0  0  0  0  0  0  0  0  0  0
    2.2918   -0.2881   -2.1393 H   0  0  0  0  0  0  0  0  0  0  0  0
    2.8424    1.1524   -1.2505 H   0  0  0  0  0  0  0  0  0  0  0  0
    2.0526   -1.5173    0.0009 H   0  0  0  0  0  0  0  0  0  0  0  0
    3.8323   -0.3246    1.2494 H   0  0  0  0  0  0  0  0  0  0  0  0
    2.8420    1.1545    1.2480 H   0  0  0  0  0  0  0  0  0  0  0  0
    2.2911   -0.2845    2.1391 H   0  0  0  0  0  0  0  0  0  0  0  0
   -3.5095    0.5178   -0.0001 H   0  0  0  0  0  0  0  0  0  0  0  0
   -2.6470    2.6655   -0.0008 H   0  0  0  0  0  0  0  0  0  0  0  0
   -0.4224    3.3399   -0.0031 H   0  0  0  0  0  0  0  0  0  0  0  0
    1.4890    2.0432    0.0017 H   0  0  0  0  0  0  0  0  0  0  0  0
   -0.6504   -2.7706    0.0006 H   0  0  0  0  0  0  0  0  0  0  0  0
  1  2  1  0  0  0  0
  2  3  1  0  0  0  0
  2  4  1  0  0  0  0
  4  5  2  0  0  0  0
  5  6  1  0  0  0  0
  6  7  2  0  0  0  0
  6  8  1  0  0  0  0
  8  9  2  0  0  0  0
  9 10  1  0  0  0  0
 10 11  2  0  0  0  0
  4 11  1  0  0  0  0
  5 12  1  0  0  0  0
  1 13  1  0  0  0  0
  1 14  1  0  0  0  0
  1 15  1  0  0  0  0
  2 16  1  0  0  0  0
  3 17  1  0  0  0  0
  3 18  1  0  0  0  0
  3 19  1  0  0  0  0
  8 20  1  0  0  0  0
  9 21  1  0  0  0  0
 10 22  1  0  0  0  0
 11 23  1  0  0  0  0
 12 24  1  0  0  0  0
M  END
$$$$
