C15H10O4
APtclcactv06211806283D 0   0.00000     0.00000
 
 29 31  0  0  0  0  0  0  0  0999 V2000
    2.5269    2.4672   -0.9305 C   0  0  0  0  0  0  0  0  0  0  0  0
    2.4357    1.6948    0.2683 O   0  0  0  0  0  0  0  0  0  0  0  0
    2.0634    0.3972    0.1379 C   0  0  0  0  0  0  0  0  0  0  0  0
    3.0307   -0.5979   -0.0484 C   0  0  0  0  0  0  0  0  0  0  0  0
    2.6520   -1.9234   -0.1811 C   0  0  0  0  0  0  0  0  0  0  0  0
    1.3162   -2.2814   -0.1320 C   0  0  0  0  0  0  0  0  0  0  0  0
    0.3398   -1.3072    0.0513 C   0  0  0  0  0  0  0  0  0  0  0  0
    0.7156    0.0450    0.1943 C   0  0  0  0  0  0  0  0  0  0  0  0
   -0.3221    1.0760    0.3871 C   0  0  0  0  0  0  0  0  0  0  0  0
   -0.0179    2.1931    0.7573 O   0  0  0  0  0  0  0  0  0  0  0  0
   -1.7373    0.7338    0.1240 C   0  0  0  0  0  0  0  0  0  0  0  0
   -2.6985    1.7326    0.0154 C   0  0  0  0  0  0  0  0  0  0  0  0
   -4.0181    1.3937   -0.2312 C   0  0  0  0  0  0  0  0  0  0  0  0
   -4.3874    0.0684   -0.3696 C   0  0  0  0  0  0  0  0  0  0  0  0
   -3.4427   -0.9382   -0.2643 C   0  0  0  0  0  0  0  0  0  0  0  0
   -2.1129   -0.6150   -0.0179 C   0  0  0  0  0  0  0  0  0  0  0  0
   -1.0883   -1.6772    0.1027 C   0  0  0  0  0  0  0  0  0  0  0  0
   -1.4198   -2.8389    0.2381 O   0  0  0  0  0  0  0  0  0  0  0  0
    4.3450   -0.2619   -0.0995 O   0  0  0  0  0  0  0  0  0  0  0  0
    3.2621    2.0172   -1.5976 H   0  0  0  0  0  0  0  0  0  0  0  0
    1.5548    2.4894   -1.4232 H   0  0  0  0  0  0  0  0  0  0  0  0
    2.8332    3.4841   -0.6851 H   0  0  0  0  0  0  0  0  0  0  0  0
    3.4053   -2.6839   -0.3244 H   0  0  0  0  0  0  0  0  0  0  0  0
    1.0312   -3.3179   -0.2365 H   0  0  0  0  0  0  0  0  0  0  0  0
   -2.4168    2.7695    0.1233 H   0  0  0  0  0  0  0  0  0  0  0  0
   -4.7643    2.1699   -0.3157 H   0  0  0  0  0  0  0  0  0  0  0  0
   -5.4201   -0.1832   -0.5609 H   0  0  0  0  0  0  0  0  0  0  0  0
   -3.7379   -1.9714   -0.3728 H   0  0  0  0  0  0  0  0  0  0  0  0
    4.7866   -0.2693    0.7607 H   0  0  0  0  0  0  0  0  0  0  0  0
  1  2  1  0  0  0  0
  2  3  1  0  0  0  0
  3  4  2  0  0  0  0
  4  5  1  0  0  0  0
  5  6  2  0  0  0  0
  6  7  1  0  0  0  0
  7  8  2  0  0  0  0
  3  8  1  0  0  0  0
  8  9  1  0  0  0  0
  9 10  2  0  0  0  0
  9 11  1  0  0  0  0
 11 12  2  0  0  0  0
 12 13  1  0  0  0  0
 13 14  2  0  0  0  0
 14 15  1  0  0  0  0
 15 16  2  0  0  0  0
 11 16  1  0  0  0  0
 16 17  1  0  0  0  0
  7 17  1  0  0  0  0
 17 18  2  0  0  0  0
  4 19  1  0  0  0  0
  1 20  1  0  0  0  0
  1 21  1  0  0  0  0
  1 22  1  0  0  0  0
  5 23  1  0  0  0  0
  6 24  1  0  0  0  0
 12 25  1  0  0  0  0
 13 26  1  0  0  0  0
 14 27  1  0  0  0  0
 15 28  1  0  0  0  0
 19 29  1  0  0  0  0
M  END
$$$$
