C6H12O2
APtclcactv06211804423D 0   0.00000     0.00000
 
 20 19  0  0  0  0  0  0  0  0999 V2000
    2.0755    1.3461    0.5578 C   0  0  0  0  0  0  0  0  0  0  0  0
    1.8472    0.1453   -0.3624 C   0  0  0  0  0  0  0  0  0  0  0  0
    2.9968   -0.8506   -0.1959 C   0  0  0  0  0  0  0  0  0  0  0  0
    0.5265   -0.5345    0.0043 C   0  0  0  0  0  0  0  0  0  0  0  0
   -0.5755    0.3715   -0.2661 O   0  0  0  0  0  0  0  0  0  0  0  0
   -1.8121   -0.0757    0.0032 C   0  0  0  0  0  0  0  0  0  0  0  0
   -1.9686   -1.1874    0.4500 O   0  0  0  0  0  0  0  0  0  0  0  0
   -3.0054    0.8087   -0.2517 C   0  0  0  0  0  0  0  0  0  0  0  0
    3.0164    1.8304    0.2966 H   0  0  0  0  0  0  0  0  0  0  0  0
    1.2565    2.0556    0.4392 H   0  0  0  0  0  0  0  0  0  0  0  0
    2.1161    1.0079    1.5932 H   0  0  0  0  0  0  0  0  0  0  0  0
    1.8066    0.4835   -1.3978 H   0  0  0  0  0  0  0  0  0  0  0  0
    3.0374   -1.1888    0.8395 H   0  0  0  0  0  0  0  0  0  0  0  0
    2.8342   -1.7061   -0.8514 H   0  0  0  0  0  0  0  0  0  0  0  0
    3.9377   -0.3663   -0.4571 H   0  0  0  0  0  0  0  0  0  0  0  0
    0.4066   -1.4401   -0.5904 H   0  0  0  0  0  0  0  0  0  0  0  0
    0.5327   -0.7933    1.0631 H   0  0  0  0  0  0  0  0  0  0  0  0
   -3.3659    0.6485   -1.2678 H   0  0  0  0  0  0  0  0  0  0  0  0
   -3.7966    0.5647    0.4572 H   0  0  0  0  0  0  0  0  0  0  0  0
   -2.7167    1.8526   -0.1289 H   0  0  0  0  0  0  0  0  0  0  0  0
  1  2  1  0  0  0  0
  2  3  1  0  0  0  0
  2  4  1  0  0  0  0
  4  5  1  0  0  0  0
  5  6  1  0  0  0  0
  6  7  2  0  0  0  0
  6  8  1  0  0  0  0
  1  9  1  0  0  0  0
  1 10  1  0  0  0  0
  1 11  1  0  0  0  0
  2 12  1  0  0  0  0
  3 13  1  0  0  0  0
  3 14  1  0  0  0  0
  3 15  1  0  0  0  0
  4 16  1  0  0  0  0
  4 17  1  0  0  0  0
  8 18  1  0  0  0  0
  8 19  1  0  0  0  0
  8 20  1  0  0  0  0
M  END
$$$$
