C5H13N
APtclcactv06211804423D 0   0.00000     0.00000
 
 19 18  0  0  0  0  0  0  0  0999 V2000
    3.1694   -0.2408    0.0195 C   0  0  0  0  0  0  0  0  0  0  0  0
    1.8687    0.5639   -0.0210 C   0  0  0  0  0  0  0  0  0  0  0  0
    0.6756   -0.3933    0.0110 C   0  0  0  0  0  0  0  0  0  0  0  0
   -0.6251    0.4114   -0.0295 C   0  0  0  0  0  0  0  0  0  0  0  0
   -1.8182   -0.5459    0.0024 C   0  0  0  0  0  0  0  0  0  0  0  0
   -3.0671    0.2267   -0.0364 N   0  0  0  0  0  0  0  0  0  0  0  0
    4.0194    0.4411   -0.0032 H   0  0  0  0  0  0  0  0  0  0  0  0
    3.2024   -0.8322    0.9346 H   0  0  0  0  0  0  0  0  0  0  0  0
    3.2129   -0.9047   -0.8439 H   0  0  0  0  0  0  0  0  0  0  0  0
    1.8251    1.2277    0.8425 H   0  0  0  0  0  0  0  0  0  0  0  0
    1.8357    1.1553   -0.9360 H   0  0  0  0  0  0  0  0  0  0  0  0
    0.7191   -1.0572   -0.8524 H   0  0  0  0  0  0  0  0  0  0  0  0
    0.7086   -0.9847    0.9260 H   0  0  0  0  0  0  0  0  0  0  0  0
   -0.6687    1.0752    0.8339 H   0  0  0  0  0  0  0  0  0  0  0  0
   -0.6581    1.0027   -0.9445 H   0  0  0  0  0  0  0  0  0  0  0  0
   -1.7747   -1.2097   -0.8610 H   0  0  0  0  0  0  0  0  0  0  0  0
   -1.7852   -1.1372    0.9175 H   0  0  0  0  0  0  0  0  0  0  0  0
   -3.8705   -0.3833   -0.0163 H   0  0  0  0  0  0  0  0  0  0  0  0
   -3.1020    0.8957    0.7181 H   0  0  0  0  0  0  0  0  0  0  0  0
  1  2  1  0  0  0  0
  2  3  1  0  0  0  0
  3  4  1  0  0  0  0
  4  5  1  0  0  0  0
  5  6  1  0  0  0  0
  1  7  1  0  0  0  0
  1  8  1  0  0  0  0
  1  9  1  0  0  0  0
  2 10  1  0  0  0  0
  2 11  1  0  0  0  0
  3 12  1  0  0  0  0
  3 13  1  0  0  0  0
  4 14  1  0  0  0  0
  4 15  1  0  0  0  0
  5 16  1  0  0  0  0
  5 17  1  0  0  0  0
  6 18  1  0  0  0  0
  6 19  1  0  0  0  0
M  END
$$$$
