C5H10O
APtclcactv06211804423D 0   0.00000     0.00000
 
 16 15  0  0  0  0  0  0  0  0999 V2000
    3.0373   -0.3904    0.1272 C   0  0  0  0  0  0  0  0  0  0  0  0
    1.8129    0.5252    0.0705 C   0  0  0  0  0  0  0  0  0  0  0  0
    0.5520   -0.3204   -0.1190 C   0  0  0  0  0  0  0  0  0  0  0  0
   -0.6724    0.5952   -0.1757 C   0  0  0  0  0  0  0  0  0  0  0  0
   -1.9144   -0.2377   -0.3624 C   0  0  0  0  0  0  0  0  0  0  0  0
   -2.8323   -0.1357    0.4156 O   0  0  0  0  0  0  0  0  0  0  0  0
    3.9356    0.2121    0.2622 H   0  0  0  0  0  0  0  0  0  0  0  0
    2.9351   -1.0825    0.9630 H   0  0  0  0  0  0  0  0  0  0  0  0
    3.1137   -0.9531   -0.8032 H   0  0  0  0  0  0  0  0  0  0  0  0
    1.7366    1.0879    1.0009 H   0  0  0  0  0  0  0  0  0  0  0  0
    1.9152    1.2174   -0.7653 H   0  0  0  0  0  0  0  0  0  0  0  0
    0.6283   -0.8831   -1.0494 H   0  0  0  0  0  0  0  0  0  0  0  0
    0.4497   -1.0125    0.7168 H   0  0  0  0  0  0  0  0  0  0  0  0
   -0.7487    1.1579    0.7547 H   0  0  0  0  0  0  0  0  0  0  0  0
   -0.5701    1.2874   -1.0116 H   0  0  0  0  0  0  0  0  0  0  0  0
   -1.9834   -0.9258   -1.1919 H   0  0  0  0  0  0  0  0  0  0  0  0
  1  2  1  0  0  0  0
  2  3  1  0  0  0  0
  3  4  1  0  0  0  0
  4  5  1  0  0  0  0
  5  6  2  0  0  0  0
  1  7  1  0  0  0  0
  1  8  1  0  0  0  0
  1  9  1  0  0  0  0
  2 10  1  0  0  0  0
  2 11  1  0  0  0  0
  3 12  1  0  0  0  0
  3 13  1  0  0  0  0
  4 14  1  0  0  0  0
  4 15  1  0  0  0  0
  5 16  1  0  0  0  0
M  END
$$$$
