C12H16O2
APtclcactv06211806283D 0   0.00000     0.00000
 
 30 30  0  0  0  0  0  0  0  0999 V2000
    1.8340   -2.3496   -0.0155 C   0  0  0  0  0  0  0  0  0  0  0  0
    0.6075   -1.4744   -0.0466 C   0  0  0  0  0  0  0  0  0  0  0  0
    0.7055   -0.1568   -0.4689 C   0  0  0  0  0  0  0  0  0  0  0  0
   -0.4255    0.6465   -0.4963 C   0  0  0  0  0  0  0  0  0  0  0  0
   -1.6458    0.1325   -0.1032 C   0  0  0  0  0  0  0  0  0  0  0  0
   -1.7409   -1.1814    0.3174 C   0  0  0  0  0  0  0  0  0  0  0  0
   -0.6165   -1.9854    0.3402 C   0  0  0  0  0  0  0  0  0  0  0  0
   -2.8746    1.0045   -0.1323 C   0  0  0  0  0  0  0  0  0  0  0  0
   -3.9140    0.3900   -1.0719 C   0  0  0  0  0  0  0  0  0  0  0  0
   -3.4597    1.1084    1.2776 C   0  0  0  0  0  0  0  0  0  0  0  0
    1.9076    0.3468   -0.8548 O   0  0  0  0  0  0  0  0  0  0  0  0
    2.6990    0.8424    0.1099 C   0  0  0  0  0  0  0  0  0  0  0  0
    2.3714    0.7459    1.2690 O   0  0  0  0  0  0  0  0  0  0  0  0
    3.9957    1.5192   -0.2528 C   0  0  0  0  0  0  0  0  0  0  0  0
    2.3163   -2.2647    0.9583 H   0  0  0  0  0  0  0  0  0  0  0  0
    1.5451   -3.3862   -0.1888 H   0  0  0  0  0  0  0  0  0  0  0  0
    2.5276   -2.0308   -0.7935 H   0  0  0  0  0  0  0  0  0  0  0  0
   -0.3517    1.6728   -0.8244 H   0  0  0  0  0  0  0  0  0  0  0  0
   -2.6959   -1.5813    0.6247 H   0  0  0  0  0  0  0  0  0  0  0  0
   -0.6933   -3.0112    0.6692 H   0  0  0  0  0  0  0  0  0  0  0  0
   -2.6059    1.9991   -0.4884 H   0  0  0  0  0  0  0  0  0  0  0  0
   -4.8027    1.0207   -1.0929 H   0  0  0  0  0  0  0  0  0  0  0  0
   -3.4971    0.3160   -2.0763 H   0  0  0  0  0  0  0  0  0  0  0  0
   -4.1826   -0.6046   -0.7158 H   0  0  0  0  0  0  0  0  0  0  0  0
   -2.7192    1.5462    1.9469 H   0  0  0  0  0  0  0  0  0  0  0  0
   -4.3484    1.7391    1.2566 H   0  0  0  0  0  0  0  0  0  0  0  0
   -3.7283    0.1138    1.6336 H   0  0  0  0  0  0  0  0  0  0  0  0
    4.1194    1.5108   -1.3357 H   0  0  0  0  0  0  0  0  0  0  0  0
    3.9798    2.5494    0.1031 H   0  0  0  0  0  0  0  0  0  0  0  0
    4.8257    0.9870    0.2120 H   0  0  0  0  0  0  0  0  0  0  0  0
  1  2  1  0  0  0  0
  2  3  2  0  0  0  0
  3  4  1  0  0  0  0
  4  5  2  0  0  0  0
  5  6  1  0  0  0  0
  6  7  2  0  0  0  0
  2  7  1  0  0  0  0
  5  8  1  0  0  0  0
  8  9  1  0  0  0  0
  8 10  1  0  0  0  0
  3 11  1  0  0  0  0
 11 12  1  0  0  0  0
 12 13  2  0  0  0  0
 12 14  1  0  0  0  0
  1 15  1  0  0  0  0
  1 16  1  0  0  0  0
  1 17  1  0  0  0  0
  4 18  1  0  0  0  0
  6 19  1  0  0  0  0
  7 20  1  0  0  0  0
  8 21  1  0  0  0  0
  9 22  1  0  0  0  0
  9 23  1  0  0  0  0
  9 24  1  0  0  0  0
 10 25  1  0  0  0  0
 10 26  1  0  0  0  0
 10 27  1  0  0  0  0
 14 28  1  0  0  0  0
 14 29  1  0  0  0  0
 14 30  1  0  0  0  0
M  END
$$$$
