C10H14O3
APtclcactv06211806283D 0   0.00000     0.00000
 
 27 27  0  0  0  0  0  0  0  0999 V2000
   -0.0000    3.4778    0.2909 C   0  0  0  0  0  0  0  0  0  0  0  0
   -0.0000    1.9808    0.1179 C   0  0  0  0  0  0  0  0  0  0  0  0
    1.1982    1.2960    0.0392 C   0  0  0  0  0  0  0  0  0  0  0  0
    1.2025   -0.0814   -0.1204 C   0  0  0  0  0  0  0  0  0  0  0  0
    0.0000   -0.7735   -0.2008 C   0  0  0  0  0  0  0  0  0  0  0  0
   -1.2025   -0.0814   -0.1208 C   0  0  0  0  0  0  0  0  0  0  0  0
   -1.1982    1.2955    0.0440 C   0  0  0  0  0  0  0  0  0  0  0  0
   -2.3819   -0.7540   -0.1994 O   0  0  0  0  0  0  0  0  0  0  0  0
   -3.5785    0.0219   -0.1097 C   0  0  0  0  0  0  0  0  0  0  0  0
    0.0000   -2.1254   -0.3579 O   0  0  0  0  0  0  0  0  0  0  0  0
    0.0000   -2.9167    0.8320 C   0  0  0  0  0  0  0  0  0  0  0  0
    2.3819   -0.7541   -0.1986 O   0  0  0  0  0  0  0  0  0  0  0  0
    3.5785    0.0218   -0.1089 C   0  0  0  0  0  0  0  0  0  0  0  0
    0.0004    3.9567   -0.6883 H   0  0  0  0  0  0  0  0  0  0  0  0
   -0.8902    3.7798    0.8427 H   0  0  0  0  0  0  0  0  0  0  0  0
    0.8898    3.7798    0.8433 H   0  0  0  0  0  0  0  0  0  0  0  0
    2.1322    1.8346    0.1018 H   0  0  0  0  0  0  0  0  0  0  0  0
   -2.1322    1.8340    0.1066 H   0  0  0  0  0  0  0  0  0  0  0  0
   -3.6022    0.5438    0.8470 H   0  0  0  0  0  0  0  0  0  0  0  0
   -3.6016    0.7493   -0.9211 H   0  0  0  0  0  0  0  0  0  0  0  0
   -4.4445   -0.6356   -0.1864 H   0  0  0  0  0  0  0  0  0  0  0  0
    0.0000   -3.9736    0.5654 H   0  0  0  0  0  0  0  0  0  0  0  0
    0.8900   -2.6901    1.4191 H   0  0  0  0  0  0  0  0  0  0  0  0
   -0.8899   -2.6901    1.4191 H   0  0  0  0  0  0  0  0  0  0  0  0
    3.6017    0.7490   -0.9206 H   0  0  0  0  0  0  0  0  0  0  0  0
    3.6021    0.5441    0.8475 H   0  0  0  0  0  0  0  0  0  0  0  0
    4.4445   -0.6357   -0.1853 H   0  0  0  0  0  0  0  0  0  0  0  0
  1  2  1  0  0  0  0
  2  3  2  0  0  0  0
  3  4  1  0  0  0  0
  4  5  2  0  0  0  0
  5  6  1  0  0  0  0
  6  7  2  0  0  0  0
  2  7  1  0  0  0  0
  6  8  1  0  0  0  0
  8  9  1  0  0  0  0
  5 10  1  0  0  0  0
 10 11  1  0  0  0  0
  4 12  1  0  0  0  0
 12 13  1  0  0  0  0
  1 14  1  0  0  0  0
  1 15  1  0  0  0  0
  1 16  1  0  0  0  0
  3 17  1  0  0  0  0
  7 18  1  0  0  0  0
  9 19  1  0  0  0  0
  9 20  1  0  0  0  0
  9 21  1  0  0  0  0
 11 22  1  0  0  0  0
 11 23  1  0  0  0  0
 11 24  1  0  0  0  0
 13 25  1  0  0  0  0
 13 26  1  0  0  0  0
 13 27  1  0  0  0  0
M  END
$$$$
