C6H15N
APtclcactv06211804423D 0   0.00000     0.00000
 
 22 21  0  0  0  0  0  0  0  0999 V2000
    3.7777    0.3604    0.0047 C   0  0  0  0  0  0  0  0  0  0  0  0
    2.5243   -0.5166   -0.0229 C   0  0  0  0  0  0  0  0  0  0  0  0
    1.2793    0.3719    0.0162 C   0  0  0  0  0  0  0  0  0  0  0  0
    0.0259   -0.5050   -0.0114 C   0  0  0  0  0  0  0  0  0  0  0  0
   -1.2191    0.3835    0.0276 C   0  0  0  0  0  0  0  0  0  0  0  0
   -2.4726   -0.4935    0.0001 C   0  0  0  0  0  0  0  0  0  0  0  0
   -3.6679    0.3596    0.0375 N   0  0  0  0  0  0  0  0  0  0  0  0
    3.7847    0.9556    0.9178 H   0  0  0  0  0  0  0  0  0  0  0  0
    4.6647   -0.2726   -0.0231 H   0  0  0  0  0  0  0  0  0  0  0  0
    3.7768    1.0228   -0.8609 H   0  0  0  0  0  0  0  0  0  0  0  0
    2.5174   -1.1118   -0.9359 H   0  0  0  0  0  0  0  0  0  0  0  0
    2.5252   -1.1790    0.8428 H   0  0  0  0  0  0  0  0  0  0  0  0
    1.2863    0.9672    0.9293 H   0  0  0  0  0  0  0  0  0  0  0  0
    1.2784    1.0344   -0.8494 H   0  0  0  0  0  0  0  0  0  0  0  0
    0.0189   -1.1003   -0.9245 H   0  0  0  0  0  0  0  0  0  0  0  0
    0.0268   -1.1675    0.8542 H   0  0  0  0  0  0  0  0  0  0  0  0
   -1.2122    0.9787    0.9407 H   0  0  0  0  0  0  0  0  0  0  0  0
   -1.2200    1.0459   -0.8380 H   0  0  0  0  0  0  0  0  0  0  0  0
   -2.4795   -1.0887   -0.9130 H   0  0  0  0  0  0  0  0  0  0  0  0
   -2.4716   -1.1559    0.8657 H   0  0  0  0  0  0  0  0  0  0  0  0
   -3.6598    1.0269   -0.7192 H   0  0  0  0  0  0  0  0  0  0  0  0
   -4.5097   -0.1965    0.0203 H   0  0  0  0  0  0  0  0  0  0  0  0
  1  2  1  0  0  0  0
  2  3  1  0  0  0  0
  3  4  1  0  0  0  0
  4  5  1  0  0  0  0
  5  6  1  0  0  0  0
  6  7  1  0  0  0  0
  1  8  1  0  0  0  0
  1  9  1  0  0  0  0
  1 10  1  0  0  0  0
  2 11  1  0  0  0  0
  2 12  1  0  0  0  0
  3 13  1  0  0  0  0
  3 14  1  0  0  0  0
  4 15  1  0  0  0  0
  4 16  1  0  0  0  0
  5 17  1  0  0  0  0
  5 18  1  0  0  0  0
  6 19  1  0  0  0  0
  6 20  1  0  0  0  0
  7 21  1  0  0  0  0
  7 22  1  0  0  0  0
M  END
$$$$
