C5H6O4
APtclcactv06211804313D 0   0.00000     0.00000
 
 15 14  0  0  0  0  0  0  0  0999 V2000
    0.8952    1.9680    0.0459 C   0  0  0  0  0  0  0  0  0  0  0  0
    0.6026    0.7034    0.3394 C   0  0  0  0  0  0  0  0  0  0  0  0
   -0.7225    0.3638    0.9718 C   0  0  0  0  0  0  0  0  0  0  0  0
   -1.7033   -0.0353   -0.1004 C   0  0  0  0  0  0  0  0  0  0  0  0
   -1.3614   -0.0431   -1.2593 O   0  0  0  0  0  0  0  0  0  0  0  0
   -2.9567   -0.3820    0.2319 O   0  0  0  0  0  0  0  0  0  0  0  0
    1.5716   -0.3620    0.0468 C   0  0  0  0  0  0  0  0  0  0  0  0
    2.6402   -0.0881   -0.4633 O   0  0  0  0  0  0  0  0  0  0  0  0
    1.2752   -1.6429    0.3440 O   0  0  0  0  0  0  0  0  0  0  0  0
    1.8448    2.2114   -0.4073 H   0  0  0  0  0  0  0  0  0  0  0  0
    0.1813    2.7504    0.2569 H   0  0  0  0  0  0  0  0  0  0  0  0
   -0.5907   -0.4631    1.6697 H   0  0  0  0  0  0  0  0  0  0  0  0
   -1.1032    1.2337    1.5070 H   0  0  0  0  0  0  0  0  0  0  0  0
   -3.5497   -0.6303   -0.4905 H   0  0  0  0  0  0  0  0  0  0  0  0
    1.9440   -2.3086    0.1330 H   0  0  0  0  0  0  0  0  0  0  0  0
  1  2  2  0  0  0  0
  2  3  1  0  0  0  0
  3  4  1  0  0  0  0
  4  5  2  0  0  0  0
  4  6  1  0  0  0  0
  2  7  1  0  0  0  0
  7  8  2  0  0  0  0
  7  9  1  0  0  0  0
  1 10  1  0  0  0  0
  1 11  1  0  0  0  0
  3 12  1  0  0  0  0
  3 13  1  0  0  0  0
  6 14  1  0  0  0  0
  9 15  1  0  0  0  0
M  END
$$$$
