C2H6S5
APtclcactv06211806293D 0   0.00000     0.00000
 
 13 12  0  0  0  0  0  0  0  0999 V2000
    3.9994    0.5719   -0.0609 C   0  0  0  0  0  0  0  0  0  0  0  0
    2.6876   -0.6255   -0.4295 S   0  0  0  0  0  0  0  0  0  0  0  0
    1.2660   -0.2022    0.9855 S   0  0  0  0  0  0  0  0  0  0  0  0
   -0.0000    1.0739    0.0000 S   0  0  0  0  0  0  0  0  0  0  0  0
   -1.2660   -0.2022   -0.9855 S   0  0  0  0  0  0  0  0  0  0  0  0
   -2.6876   -0.6255    0.4295 S   0  0  0  0  0  0  0  0  0  0  0  0
   -3.9994    0.5719    0.0609 C   0  0  0  0  0  0  0  0  0  0  0  0
    3.6044    1.5836   -0.1535 H   0  0  0  0  0  0  0  0  0  0  0  0
    4.3601    0.4143    0.9555 H   0  0  0  0  0  0  0  0  0  0  0  0
    4.8220    0.4373   -0.7633 H   0  0  0  0  0  0  0  0  0  0  0  0
   -3.6044    1.5836    0.1535 H   0  0  0  0  0  0  0  0  0  0  0  0
   -4.3601    0.4143   -0.9555 H   0  0  0  0  0  0  0  0  0  0  0  0
   -4.8220    0.4373    0.7633 H   0  0  0  0  0  0  0  0  0  0  0  0
  1  2  1  0  0  0  0
  2  3  1  0  0  0  0
  3  4  1  0  0  0  0
  4  5  1  0  0  0  0
  5  6  1  0  0  0  0
  6  7  1  0  0  0  0
  1  8  1  0  0  0  0
  1  9  1  0  0  0  0
  1 10  1  0  0  0  0
  7 11  1  0  0  0  0
  7 12  1  0  0  0  0
  7 13  1  0  0  0  0
M  END
$$$$
