C17H34O2
APtclcactv06211804423D 0   0.00000     0.00000
 
 53 52  0  0  0  0  0  0  0  0999 V2000
   11.0986   -0.2319   -0.0000 C   0  0  0  0  0  0  0  0  0  0  0  0
    9.8232    0.6132    0.0000 C   0  0  0  0  0  0  0  0  0  0  0  0
    8.6012   -0.3075   -0.0000 C   0  0  0  0  0  0  0  0  0  0  0  0
    7.3259    0.5377    0.0000 C   0  0  0  0  0  0  0  0  0  0  0  0
    6.1039   -0.3831   -0.0000 C   0  0  0  0  0  0  0  0  0  0  0  0
    4.8285    0.4621    0.0000 C   0  0  0  0  0  0  0  0  0  0  0  0
    3.6066   -0.4586   -0.0000 C   0  0  0  0  0  0  0  0  0  0  0  0
    2.3312    0.3865    0.0000 C   0  0  0  0  0  0  0  0  0  0  0  0
    1.1092   -0.5342   -0.0000 C   0  0  0  0  0  0  0  0  0  0  0  0
   -0.1662    0.3109    0.0000 C   0  0  0  0  0  0  0  0  0  0  0  0
   -1.3881   -0.6098    0.0000 C   0  0  0  0  0  0  0  0  0  0  0  0
   -2.6635    0.2353    0.0000 C   0  0  0  0  0  0  0  0  0  0  0  0
   -3.8854   -0.6854    0.0000 C   0  0  0  0  0  0  0  0  0  0  0  0
   -5.1608    0.1598    0.0000 C   0  0  0  0  0  0  0  0  0  0  0  0
   -6.3828   -0.7610    0.0000 C   0  0  0  0  0  0  0  0  0  0  0  0
   -7.6390    0.0715   -0.0000 C   0  0  0  0  0  0  0  0  0  0  0  0
   -7.5646    1.2774   -0.0000 O   0  0  0  0  0  0  0  0  0  0  0  0
   -8.8406   -0.5268    0.0000 O   0  0  0  0  0  0  0  0  0  0  0  0
  -10.0073    0.3375   -0.0000 C   0  0  0  0  0  0  0  0  0  0  0  0
   11.9691    0.4240    0.0000 H   0  0  0  0  0  0  0  0  0  0  0  0
   11.1176   -0.8609    0.8900 H   0  0  0  0  0  0  0  0  0  0  0  0
   11.1176   -0.8609   -0.8900 H   0  0  0  0  0  0  0  0  0  0  0  0
    9.8042    1.2423    0.8900 H   0  0  0  0  0  0  0  0  0  0  0  0
    9.8042    1.2423   -0.8900 H   0  0  0  0  0  0  0  0  0  0  0  0
    8.6203   -0.9365   -0.8900 H   0  0  0  0  0  0  0  0  0  0  0  0
    8.6203   -0.9365    0.8900 H   0  0  0  0  0  0  0  0  0  0  0  0
    7.3068    1.1667    0.8900 H   0  0  0  0  0  0  0  0  0  0  0  0
    7.3068    1.1667   -0.8900 H   0  0  0  0  0  0  0  0  0  0  0  0
    6.1229   -1.0121   -0.8900 H   0  0  0  0  0  0  0  0  0  0  0  0
    6.1229   -1.0121    0.8900 H   0  0  0  0  0  0  0  0  0  0  0  0
    4.8095    1.0911    0.8900 H   0  0  0  0  0  0  0  0  0  0  0  0
    4.8095    1.0911   -0.8900 H   0  0  0  0  0  0  0  0  0  0  0  0
    3.6256   -1.0877   -0.8900 H   0  0  0  0  0  0  0  0  0  0  0  0
    3.6256   -1.0877    0.8900 H   0  0  0  0  0  0  0  0  0  0  0  0
    2.3121    1.0155    0.8900 H   0  0  0  0  0  0  0  0  0  0  0  0
    2.3121    1.0155   -0.8900 H   0  0  0  0  0  0  0  0  0  0  0  0
    1.1283   -1.1633   -0.8900 H   0  0  0  0  0  0  0  0  0  0  0  0
    1.1283   -1.1633    0.8900 H   0  0  0  0  0  0  0  0  0  0  0  0
   -0.1852    0.9399    0.8900 H   0  0  0  0  0  0  0  0  0  0  0  0
   -0.1852    0.9399   -0.8900 H   0  0  0  0  0  0  0  0  0  0  0  0
   -1.3691   -1.2388   -0.8900 H   0  0  0  0  0  0  0  0  0  0  0  0
   -1.3691   -1.2388    0.8900 H   0  0  0  0  0  0  0  0  0  0  0  0
   -2.6825    0.8644    0.8900 H   0  0  0  0  0  0  0  0  0  0  0  0
   -2.6825    0.8644   -0.8900 H   0  0  0  0  0  0  0  0  0  0  0  0
   -3.8664   -1.3144   -0.8900 H   0  0  0  0  0  0  0  0  0  0  0  0
   -3.8664   -1.3144    0.8900 H   0  0  0  0  0  0  0  0  0  0  0  0
   -5.1799    0.7888    0.8900 H   0  0  0  0  0  0  0  0  0  0  0  0
   -5.1799    0.7888   -0.8900 H   0  0  0  0  0  0  0  0  0  0  0  0
   -6.3637   -1.3900   -0.8900 H   0  0  0  0  0  0  0  0  0  0  0  0
   -6.3637   -1.3900    0.8900 H   0  0  0  0  0  0  0  0  0  0  0  0
  -10.9110   -0.2720   -0.0000 H   0  0  0  0  0  0  0  0  0  0  0  0
   -9.9934    0.9667    0.8900 H   0  0  0  0  0  0  0  0  0  0  0  0
   -9.9934    0.9667   -0.8900 H   0  0  0  0  0  0  0  0  0  0  0  0
  1  2  1  0  0  0  0
  2  3  1  0  0  0  0
  3  4  1  0  0  0  0
  4  5  1  0  0  0  0
  5  6  1  0  0  0  0
  6  7  1  0  0  0  0
  7  8  1  0  0  0  0
  8  9  1  0  0  0  0
  9 10  1  0  0  0  0
 10 11  1  0  0  0  0
 11 12  1  0  0  0  0
 12 13  1  0  0  0  0
 13 14  1  0  0  0  0
 14 15  1  0  0  0  0
 15 16  1  0  0  0  0
 16 17  2  0  0  0  0
 16 18  1  0  0  0  0
 18 19  1  0  0  0  0
  1 20  1  0  0  0  0
  1 21  1  0  0  0  0
  1 22  1  0  0  0  0
  2 23  1  0  0  0  0
  2 24  1  0  0  0  0
  3 25  1  0  0  0  0
  3 26  1  0  0  0  0
  4 27  1  0  0  0  0
  4 28  1  0  0  0  0
  5 29  1  0  0  0  0
  5 30  1  0  0  0  0
  6 31  1  0  0  0  0
  6 32  1  0  0  0  0
  7 33  1  0  0  0  0
  7 34  1  0  0  0  0
  8 35  1  0  0  0  0
  8 36  1  0  0  0  0
  9 37  1  0  0  0  0
  9 38  1  0  0  0  0
 10 39  1  0  0  0  0
 10 40  1  0  0  0  0
 11 41  1  0  0  0  0
 11 42  1  0  0  0  0
 12 43  1  0  0  0  0
 12 44  1  0  0  0  0
 13 45  1  0  0  0  0
 13 46  1  0  0  0  0
 14 47  1  0  0  0  0
 14 48  1  0  0  0  0
 15 49  1  0  0  0  0
 15 50  1  0  0  0  0
 19 51  1  0  0  0  0
 19 52  1  0  0  0  0
 19 53  1  0  0  0  0
M  END
$$$$
