C12H26
APtclcactv06211804423D 0   0.00000     0.00000
 
 38 37  0  0  0  0  0  0  0  0999 V2000
    6.8772   -0.3277   -0.0000 C   0  0  0  0  0  0  0  0  0  0  0  0
    5.6135    0.5348    0.0000 C   0  0  0  0  0  0  0  0  0  0  0  0
    4.3791   -0.3691   -0.0000 C   0  0  0  0  0  0  0  0  0  0  0  0
    3.1153    0.4934    0.0000 C   0  0  0  0  0  0  0  0  0  0  0  0
    1.8809   -0.4105   -0.0000 C   0  0  0  0  0  0  0  0  0  0  0  0
    0.6172    0.4520    0.0000 C   0  0  0  0  0  0  0  0  0  0  0  0
   -0.6172   -0.4520    0.0000 C   0  0  0  0  0  0  0  0  0  0  0  0
   -1.8809    0.4105   -0.0000 C   0  0  0  0  0  0  0  0  0  0  0  0
   -3.1153   -0.4934    0.0000 C   0  0  0  0  0  0  0  0  0  0  0  0
   -4.3791    0.3691   -0.0000 C   0  0  0  0  0  0  0  0  0  0  0  0
   -5.6135   -0.5348    0.0000 C   0  0  0  0  0  0  0  0  0  0  0  0
   -6.8772    0.3277   -0.0000 C   0  0  0  0  0  0  0  0  0  0  0  0
    7.7566    0.3163    0.0000 H   0  0  0  0  0  0  0  0  0  0  0  0
    6.8876   -0.9569    0.8900 H   0  0  0  0  0  0  0  0  0  0  0  0
    6.8876   -0.9569   -0.8900 H   0  0  0  0  0  0  0  0  0  0  0  0
    5.6030    1.1640    0.8900 H   0  0  0  0  0  0  0  0  0  0  0  0
    5.6030    1.1640   -0.8900 H   0  0  0  0  0  0  0  0  0  0  0  0
    4.3895   -0.9983   -0.8900 H   0  0  0  0  0  0  0  0  0  0  0  0
    4.3895   -0.9983    0.8900 H   0  0  0  0  0  0  0  0  0  0  0  0
    3.1049    1.1226    0.8900 H   0  0  0  0  0  0  0  0  0  0  0  0
    3.1049    1.1226   -0.8900 H   0  0  0  0  0  0  0  0  0  0  0  0
    1.8914   -1.0398   -0.8900 H   0  0  0  0  0  0  0  0  0  0  0  0
    1.8914   -1.0398    0.8900 H   0  0  0  0  0  0  0  0  0  0  0  0
    0.6068    1.0812    0.8900 H   0  0  0  0  0  0  0  0  0  0  0  0
    0.6068    1.0812   -0.8900 H   0  0  0  0  0  0  0  0  0  0  0  0
   -0.6068   -1.0812   -0.8900 H   0  0  0  0  0  0  0  0  0  0  0  0
   -0.6068   -1.0812    0.8900 H   0  0  0  0  0  0  0  0  0  0  0  0
   -1.8914    1.0398    0.8900 H   0  0  0  0  0  0  0  0  0  0  0  0
   -1.8914    1.0398   -0.8900 H   0  0  0  0  0  0  0  0  0  0  0  0
   -3.1049   -1.1226   -0.8900 H   0  0  0  0  0  0  0  0  0  0  0  0
   -3.1049   -1.1226    0.8900 H   0  0  0  0  0  0  0  0  0  0  0  0
   -4.3895    0.9983    0.8900 H   0  0  0  0  0  0  0  0  0  0  0  0
   -4.3895    0.9983   -0.8900 H   0  0  0  0  0  0  0  0  0  0  0  0
   -5.6030   -1.1640   -0.8900 H   0  0  0  0  0  0  0  0  0  0  0  0
   -5.6030   -1.1640    0.8900 H   0  0  0  0  0  0  0  0  0  0  0  0
   -7.7566   -0.3163    0.0000 H   0  0  0  0  0  0  0  0  0  0  0  0
   -6.8876    0.9569    0.8900 H   0  0  0  0  0  0  0  0  0  0  0  0
   -6.8876    0.9569   -0.8900 H   0  0  0  0  0  0  0  0  0  0  0  0
  1  2  1  0  0  0  0
  2  3  1  0  0  0  0
  3  4  1  0  0  0  0
  4  5  1  0  0  0  0
  5  6  1  0  0  0  0
  6  7  1  0  0  0  0
  7  8  1  0  0  0  0
  8  9  1  0  0  0  0
  9 10  1  0  0  0  0
 10 11  1  0  0  0  0
 11 12  1  0  0  0  0
  1 13  1  0  0  0  0
  1 14  1  0  0  0  0
  1 15  1  0  0  0  0
  2 16  1  0  0  0  0
  2 17  1  0  0  0  0
  3 18  1  0  0  0  0
  3 19  1  0  0  0  0
  4 20  1  0  0  0  0
  4 21  1  0  0  0  0
  5 22  1  0  0  0  0
  5 23  1  0  0  0  0
  6 24  1  0  0  0  0
  6 25  1  0  0  0  0
  7 26  1  0  0  0  0
  7 27  1  0  0  0  0
  8 28  1  0  0  0  0
  8 29  1  0  0  0  0
  9 30  1  0  0  0  0
  9 31  1  0  0  0  0
 10 32  1  0  0  0  0
 10 33  1  0  0  0  0
 11 34  1  0  0  0  0
 11 35  1  0  0  0  0
 12 36  1  0  0  0  0
 12 37  1  0  0  0  0
 12 38  1  0  0  0  0
M  END
$$$$
