C11H20O
APtclcactv06211804433D 0   0.00000     0.00000
 
 32 31  0  0  0  0  0  0  0  0999 V2000
    6.5849    0.0161    0.7707 C   0  0  0  0  0  0  0  0  0  0  0  0
    5.6782    0.2768   -0.1382 C   0  0  0  0  0  0  0  0  0  0  0  0
    4.4222   -0.5530   -0.2093 C   0  0  0  0  0  0  0  0  0  0  0  0
    3.2000    0.3637   -0.1273 C   0  0  0  0  0  0  0  0  0  0  0  0
    1.9249   -0.4788   -0.1995 C   0  0  0  0  0  0  0  0  0  0  0  0
    0.7026    0.4379   -0.1175 C   0  0  0  0  0  0  0  0  0  0  0  0
   -0.5725   -0.4046   -0.1897 C   0  0  0  0  0  0  0  0  0  0  0  0
   -1.7947    0.5121   -0.1077 C   0  0  0  0  0  0  0  0  0  0  0  0
   -3.0698   -0.3304   -0.1799 C   0  0  0  0  0  0  0  0  0  0  0  0
   -4.2921    0.5863   -0.0979 C   0  0  0  0  0  0  0  0  0  0  0  0
   -5.5480   -0.2436   -0.1690 C   0  0  0  0  0  0  0  0  0  0  0  0
   -6.3816   -0.1529    0.7000 O   0  0  0  0  0  0  0  0  0  0  0  0
    7.4850    0.6108    0.8216 H   0  0  0  0  0  0  0  0  0  0  0  0
    6.4303   -0.7907    1.4718 H   0  0  0  0  0  0  0  0  0  0  0  0
    5.8307    1.0864   -0.8365 H   0  0  0  0  0  0  0  0  0  0  0  0
    4.4022   -1.1019   -1.1508 H   0  0  0  0  0  0  0  0  0  0  0  0
    4.4046   -1.2574    0.6224 H   0  0  0  0  0  0  0  0  0  0  0  0
    3.2200    0.9126    0.8142 H   0  0  0  0  0  0  0  0  0  0  0  0
    3.2177    1.0680   -0.9589 H   0  0  0  0  0  0  0  0  0  0  0  0
    1.9049   -1.0277   -1.1410 H   0  0  0  0  0  0  0  0  0  0  0  0
    1.9072   -1.1832    0.6322 H   0  0  0  0  0  0  0  0  0  0  0  0
    0.7226    0.9868    0.8240 H   0  0  0  0  0  0  0  0  0  0  0  0
    0.7203    1.1422   -0.9491 H   0  0  0  0  0  0  0  0  0  0  0  0
   -0.5925   -0.9535   -1.1312 H   0  0  0  0  0  0  0  0  0  0  0  0
   -0.5901   -1.1090    0.6420 H   0  0  0  0  0  0  0  0  0  0  0  0
   -1.7747    1.0610    0.8338 H   0  0  0  0  0  0  0  0  0  0  0  0
   -1.7771    1.2164   -0.9393 H   0  0  0  0  0  0  0  0  0  0  0  0
   -3.0898   -0.8793   -1.1214 H   0  0  0  0  0  0  0  0  0  0  0  0
   -3.0875   -1.0348    0.6518 H   0  0  0  0  0  0  0  0  0  0  0  0
   -4.2721    1.1351    0.8436 H   0  0  0  0  0  0  0  0  0  0  0  0
   -4.2744    1.2906   -0.9295 H   0  0  0  0  0  0  0  0  0  0  0  0
   -5.7026   -0.9193   -0.9971 H   0  0  0  0  0  0  0  0  0  0  0  0
  1  2  2  0  0  0  0
  2  3  1  0  0  0  0
  3  4  1  0  0  0  0
  4  5  1  0  0  0  0
  5  6  1  0  0  0  0
  6  7  1  0  0  0  0
  7  8  1  0  0  0  0
  8  9  1  0  0  0  0
  9 10  1  0  0  0  0
 10 11  1  0  0  0  0
 11 12  2  0  0  0  0
  1 13  1  0  0  0  0
  1 14  1  0  0  0  0
  2 15  1  0  0  0  0
  3 16  1  0  0  0  0
  3 17  1  0  0  0  0
  4 18  1  0  0  0  0
  4 19  1  0  0  0  0
  5 20  1  0  0  0  0
  5 21  1  0  0  0  0
  6 22  1  0  0  0  0
  6 23  1  0  0  0  0
  7 24  1  0  0  0  0
  7 25  1  0  0  0  0
  8 26  1  0  0  0  0
  8 27  1  0  0  0  0
  9 28  1  0  0  0  0
  9 29  1  0  0  0  0
 10 30  1  0  0  0  0
 10 31  1  0  0  0  0
 11 32  1  0  0  0  0
M  END
$$$$
