C10H12
APtclcactv06211806293D 0   0.00000     0.00000
 
 22 22  0  0  0  0  0  0  0  0999 V2000
   -0.3132    2.2278   -0.1903 C   0  0  0  0  0  0  0  0  0  0  0  0
    0.4766    0.9489   -0.0828 C   0  0  0  0  0  0  0  0  0  0  0  0
    1.8552    0.9825   -0.1207 C   0  0  0  0  0  0  0  0  0  0  0  0
    2.5818   -0.1909   -0.0217 C   0  0  0  0  0  0  0  0  0  0  0  0
    1.9320   -1.4043    0.1153 C   0  0  0  0  0  0  0  0  0  0  0  0
    0.5534   -1.4516    0.1541 C   0  0  0  0  0  0  0  0  0  0  0  0
   -0.1849   -0.2715    0.0610 C   0  0  0  0  0  0  0  0  0  0  0  0
   -1.6618   -0.3148    0.1023 C   0  0  0  0  0  0  0  0  0  0  0  0
   -2.3057    0.0659    1.1968 C   0  0  0  0  0  0  0  0  0  0  0  0
   -2.4356   -0.7918   -1.0997 C   0  0  0  0  0  0  0  0  0  0  0  0
   -0.5292    2.4345   -1.2385 H   0  0  0  0  0  0  0  0  0  0  0  0
   -1.2484    2.1246    0.3599 H   0  0  0  0  0  0  0  0  0  0  0  0
    0.2668    3.0494    0.2300 H   0  0  0  0  0  0  0  0  0  0  0  0
    2.3684    1.9266   -0.2282 H   0  0  0  0  0  0  0  0  0  0  0  0
    3.6609   -0.1592   -0.0519 H   0  0  0  0  0  0  0  0  0  0  0  0
    2.5049   -2.3167    0.1917 H   0  0  0  0  0  0  0  0  0  0  0  0
    0.0473   -2.3997    0.2604 H   0  0  0  0  0  0  0  0  0  0  0  0
   -1.7512    0.4077    2.0582 H   0  0  0  0  0  0  0  0  0  0  0  0
   -3.3848    0.0343    1.2270 H   0  0  0  0  0  0  0  0  0  0  0  0
   -2.5839   -1.8695   -1.0321 H   0  0  0  0  0  0  0  0  0  0  0  0
   -3.4042   -0.2929   -1.1296 H   0  0  0  0  0  0  0  0  0  0  0  0
   -1.8783   -0.5579   -2.0068 H   0  0  0  0  0  0  0  0  0  0  0  0
  1  2  1  0  0  0  0
  2  3  2  0  0  0  0
  3  4  1  0  0  0  0
  4  5  2  0  0  0  0
  5  6  1  0  0  0  0
  6  7  2  0  0  0  0
  2  7  1  0  0  0  0
  7  8  1  0  0  0  0
  8  9  2  0  0  0  0
  8 10  1  0  0  0  0
  1 11  1  0  0  0  0
  1 12  1  0  0  0  0
  1 13  1  0  0  0  0
  3 14  1  0  0  0  0
  4 15  1  0  0  0  0
  5 16  1  0  0  0  0
  6 17  1  0  0  0  0
  9 18  1  0  0  0  0
  9 19  1  0  0  0  0
 10 20  1  0  0  0  0
 10 21  1  0  0  0  0
 10 22  1  0  0  0  0
M  END
$$$$
