C19H38O2
APtclcactv06211804433D 0   0.00000     0.00000
 
 59 58  0  0  0  0  0  0  0  0999 V2000
   12.3686   -0.2437   -0.0000 C   0  0  0  0  0  0  0  0  0  0  0  0
   11.0975    0.6079    0.0000 C   0  0  0  0  0  0  0  0  0  0  0  0
    9.8709   -0.3067   -0.0000 C   0  0  0  0  0  0  0  0  0  0  0  0
    8.5998    0.5448    0.0000 C   0  0  0  0  0  0  0  0  0  0  0  0
    7.3733   -0.3698   -0.0000 C   0  0  0  0  0  0  0  0  0  0  0  0
    6.1021    0.4818    0.0000 C   0  0  0  0  0  0  0  0  0  0  0  0
    4.8756   -0.4328   -0.0000 C   0  0  0  0  0  0  0  0  0  0  0  0
    3.6044    0.4187    0.0000 C   0  0  0  0  0  0  0  0  0  0  0  0
    2.3779   -0.4959   -0.0000 C   0  0  0  0  0  0  0  0  0  0  0  0
    1.1068    0.3557    0.0000 C   0  0  0  0  0  0  0  0  0  0  0  0
   -0.1198   -0.5589    0.0000 C   0  0  0  0  0  0  0  0  0  0  0  0
   -1.3909    0.2926    0.0000 C   0  0  0  0  0  0  0  0  0  0  0  0
   -2.6175   -0.6220    0.0000 C   0  0  0  0  0  0  0  0  0  0  0  0
   -3.8886    0.2296    0.0000 C   0  0  0  0  0  0  0  0  0  0  0  0
   -5.1152   -0.6850    0.0000 C   0  0  0  0  0  0  0  0  0  0  0  0
   -6.3863    0.1665    0.0000 C   0  0  0  0  0  0  0  0  0  0  0  0
   -7.6128   -0.7481    0.0000 C   0  0  0  0  0  0  0  0  0  0  0  0
   -8.8649    0.0907   -0.0000 C   0  0  0  0  0  0  0  0  0  0  0  0
   -8.7844    1.2963   -0.0000 O   0  0  0  0  0  0  0  0  0  0  0  0
  -10.0694   -0.5016    0.0000 O   0  0  0  0  0  0  0  0  0  0  0  0
  -11.2318    0.3686   -0.0000 C   0  0  0  0  0  0  0  0  0  0  0  0
   13.2424    0.4079    0.0000 H   0  0  0  0  0  0  0  0  0  0  0  0
   12.3845   -0.8728    0.8900 H   0  0  0  0  0  0  0  0  0  0  0  0
   12.3845   -0.8728   -0.8900 H   0  0  0  0  0  0  0  0  0  0  0  0
   11.0816    1.2370    0.8900 H   0  0  0  0  0  0  0  0  0  0  0  0
   11.0816    1.2370   -0.8900 H   0  0  0  0  0  0  0  0  0  0  0  0
    9.8868   -0.9358   -0.8900 H   0  0  0  0  0  0  0  0  0  0  0  0
    9.8868   -0.9358    0.8900 H   0  0  0  0  0  0  0  0  0  0  0  0
    8.5839    1.1739    0.8900 H   0  0  0  0  0  0  0  0  0  0  0  0
    8.5839    1.1739   -0.8900 H   0  0  0  0  0  0  0  0  0  0  0  0
    7.3891   -0.9989   -0.8900 H   0  0  0  0  0  0  0  0  0  0  0  0
    7.3891   -0.9989    0.8900 H   0  0  0  0  0  0  0  0  0  0  0  0
    6.0862    1.1109    0.8900 H   0  0  0  0  0  0  0  0  0  0  0  0
    6.0862    1.1109   -0.8900 H   0  0  0  0  0  0  0  0  0  0  0  0
    4.8915   -1.0619   -0.8900 H   0  0  0  0  0  0  0  0  0  0  0  0
    4.8915   -1.0619    0.8900 H   0  0  0  0  0  0  0  0  0  0  0  0
    3.5886    1.0478    0.8900 H   0  0  0  0  0  0  0  0  0  0  0  0
    3.5886    1.0478   -0.8900 H   0  0  0  0  0  0  0  0  0  0  0  0
    2.3938   -1.1250   -0.8900 H   0  0  0  0  0  0  0  0  0  0  0  0
    2.3938   -1.1250    0.8900 H   0  0  0  0  0  0  0  0  0  0  0  0
    1.0909    0.9848    0.8900 H   0  0  0  0  0  0  0  0  0  0  0  0
    1.0909    0.9848   -0.8900 H   0  0  0  0  0  0  0  0  0  0  0  0
   -0.1039   -1.1880   -0.8900 H   0  0  0  0  0  0  0  0  0  0  0  0
   -0.1039   -1.1880    0.8900 H   0  0  0  0  0  0  0  0  0  0  0  0
   -1.4068    0.9217    0.8900 H   0  0  0  0  0  0  0  0  0  0  0  0
   -1.4068    0.9217   -0.8900 H   0  0  0  0  0  0  0  0  0  0  0  0
   -2.6016   -1.2511   -0.8900 H   0  0  0  0  0  0  0  0  0  0  0  0
   -2.6016   -1.2511    0.8900 H   0  0  0  0  0  0  0  0  0  0  0  0
   -3.9045    0.8587    0.8900 H   0  0  0  0  0  0  0  0  0  0  0  0
   -3.9045    0.8587   -0.8900 H   0  0  0  0  0  0  0  0  0  0  0  0
   -5.0993   -1.3141   -0.8900 H   0  0  0  0  0  0  0  0  0  0  0  0
   -5.0993   -1.3141    0.8900 H   0  0  0  0  0  0  0  0  0  0  0  0
   -6.4022    0.7956    0.8900 H   0  0  0  0  0  0  0  0  0  0  0  0
   -6.4022    0.7956   -0.8900 H   0  0  0  0  0  0  0  0  0  0  0  0
   -7.5970   -1.3772   -0.8900 H   0  0  0  0  0  0  0  0  0  0  0  0
   -7.5970   -1.3772    0.8900 H   0  0  0  0  0  0  0  0  0  0  0  0
  -11.2148    0.9977    0.8900 H   0  0  0  0  0  0  0  0  0  0  0  0
  -11.2148    0.9977   -0.8900 H   0  0  0  0  0  0  0  0  0  0  0  0
  -12.1385   -0.2364   -0.0000 H   0  0  0  0  0  0  0  0  0  0  0  0
  1  2  1  0  0  0  0
  2  3  1  0  0  0  0
  3  4  1  0  0  0  0
  4  5  1  0  0  0  0
  5  6  1  0  0  0  0
  6  7  1  0  0  0  0
  7  8  1  0  0  0  0
  8  9  1  0  0  0  0
  9 10  1  0  0  0  0
 10 11  1  0  0  0  0
 11 12  1  0  0  0  0
 12 13  1  0  0  0  0
 13 14  1  0  0  0  0
 14 15  1  0  0  0  0
 15 16  1  0  0  0  0
 16 17  1  0  0  0  0
 17 18  1  0  0  0  0
 18 19  2  0  0  0  0
 18 20  1  0  0  0  0
 20 21  1  0  0  0  0
  1 22  1  0  0  0  0
  1 23  1  0  0  0  0
  1 24  1  0  0  0  0
  2 25  1  0  0  0  0
  2 26  1  0  0  0  0
  3 27  1  0  0  0  0
  3 28  1  0  0  0  0
  4 29  1  0  0  0  0
  4 30  1  0  0  0  0
  5 31  1  0  0  0  0
  5 32  1  0  0  0  0
  6 33  1  0  0  0  0
  6 34  1  0  0  0  0
  7 35  1  0  0  0  0
  7 36  1  0  0  0  0
  8 37  1  0  0  0  0
  8 38  1  0  0  0  0
  9 39  1  0  0  0  0
  9 40  1  0  0  0  0
 10 41  1  0  0  0  0
 10 42  1  0  0  0  0
 11 43  1  0  0  0  0
 11 44  1  0  0  0  0
 12 45  1  0  0  0  0
 12 46  1  0  0  0  0
 13 47  1  0  0  0  0
 13 48  1  0  0  0  0
 14 49  1  0  0  0  0
 14 50  1  0  0  0  0
 15 51  1  0  0  0  0
 15 52  1  0  0  0  0
 16 53  1  0  0  0  0
 16 54  1  0  0  0  0
 17 55  1  0  0  0  0
 17 56  1  0  0  0  0
 21 57  1  0  0  0  0
 21 58  1  0  0  0  0
 21 59  1  0  0  0  0
M  END
$$$$
