C22H42O2
APtclcactv06211804433D 0   0.00000     0.00000
 
 66 65  0  0  0  0  0  0  0  0999 V2000
   12.0497    3.9498    0.2935 C   0  0  0  0  0  0  0  0  0  0  0  0
   11.5046    2.6473   -0.2959 C   0  0  0  0  0  0  0  0  0  0  0  0
   10.1286    2.3524    0.3045 C   0  0  0  0  0  0  0  0  0  0  0  0
    9.5834    1.0500   -0.2849 C   0  0  0  0  0  0  0  0  0  0  0  0
    8.2074    0.7551    0.3155 C   0  0  0  0  0  0  0  0  0  0  0  0
    7.6623   -0.5473   -0.2738 C   0  0  0  0  0  0  0  0  0  0  0  0
    6.2863   -0.8422    0.3266 C   0  0  0  0  0  0  0  0  0  0  0  0
    5.7411   -2.1447   -0.2628 C   0  0  0  0  0  0  0  0  0  0  0  0
    4.3858   -2.4351    0.3286 C   0  0  0  0  0  0  0  0  0  0  0  0
    3.3553   -2.6253   -0.4574 C   0  0  0  0  0  0  0  0  0  0  0  0
    1.9999   -2.9157    0.1340 C   0  0  0  0  0  0  0  0  0  0  0  0
    0.9838   -1.9031   -0.3978 C   0  0  0  0  0  0  0  0  0  0  0  0
   -0.3922   -2.1980    0.2026 C   0  0  0  0  0  0  0  0  0  0  0  0
   -1.4084   -1.1853   -0.3292 C   0  0  0  0  0  0  0  0  0  0  0  0
   -2.7844   -1.4802    0.2712 C   0  0  0  0  0  0  0  0  0  0  0  0
   -3.8006   -0.4675   -0.2606 C   0  0  0  0  0  0  0  0  0  0  0  0
   -5.1766   -0.7624    0.3399 C   0  0  0  0  0  0  0  0  0  0  0  0
   -6.1927    0.2503   -0.1919 C   0  0  0  0  0  0  0  0  0  0  0  0
   -7.5688   -0.0446    0.4085 C   0  0  0  0  0  0  0  0  0  0  0  0
   -8.5849    0.9681   -0.1233 C   0  0  0  0  0  0  0  0  0  0  0  0
   -9.9609    0.6732    0.4771 C   0  0  0  0  0  0  0  0  0  0  0  0
  -10.9618    1.6706   -0.0467 C   0  0  0  0  0  0  0  0  0  0  0  0
  -10.6106    2.5292   -0.8208 O   0  0  0  0  0  0  0  0  0  0  0  0
  -12.2435    1.6052    0.3468 O   0  0  0  0  0  0  0  0  0  0  0  0
   13.0300    4.1599   -0.1343 H   0  0  0  0  0  0  0  0  0  0  0  0
   11.3683    4.7677    0.0594 H   0  0  0  0  0  0  0  0  0  0  0  0
   12.1392    3.8496    1.3752 H   0  0  0  0  0  0  0  0  0  0  0  0
   11.4151    2.7475   -1.3776 H   0  0  0  0  0  0  0  0  0  0  0  0
   12.1860    1.8294   -0.0619 H   0  0  0  0  0  0  0  0  0  0  0  0
   10.2180    2.2523    1.3862 H   0  0  0  0  0  0  0  0  0  0  0  0
    9.4471    3.1704    0.0705 H   0  0  0  0  0  0  0  0  0  0  0  0
    9.4939    1.1501   -1.3666 H   0  0  0  0  0  0  0  0  0  0  0  0
   10.2648    0.2321   -0.0508 H   0  0  0  0  0  0  0  0  0  0  0  0
    8.2969    0.6550    1.3972 H   0  0  0  0  0  0  0  0  0  0  0  0
    7.5260    1.5730    0.0815 H   0  0  0  0  0  0  0  0  0  0  0  0
    7.5728   -0.4472   -1.3555 H   0  0  0  0  0  0  0  0  0  0  0  0
    8.3437   -1.3653   -0.0398 H   0  0  0  0  0  0  0  0  0  0  0  0
    6.3757   -0.9424    1.4083 H   0  0  0  0  0  0  0  0  0  0  0  0
    5.6049   -0.0243    0.0926 H   0  0  0  0  0  0  0  0  0  0  0  0
    5.6517   -2.0446   -1.3445 H   0  0  0  0  0  0  0  0  0  0  0  0
    6.4226   -2.9626   -0.0287 H   0  0  0  0  0  0  0  0  0  0  0  0
    4.2641   -2.4866    1.4005 H   0  0  0  0  0  0  0  0  0  0  0  0
    3.4769   -2.5739   -1.5293 H   0  0  0  0  0  0  0  0  0  0  0  0
    1.6898   -3.9226   -0.1455 H   0  0  0  0  0  0  0  0  0  0  0  0
    2.0537   -2.8404    1.2200 H   0  0  0  0  0  0  0  0  0  0  0  0
    1.2939   -0.8962   -0.1184 H   0  0  0  0  0  0  0  0  0  0  0  0
    0.9300   -1.9784   -1.4839 H   0  0  0  0  0  0  0  0  0  0  0  0
   -0.7024   -3.2048   -0.0768 H   0  0  0  0  0  0  0  0  0  0  0  0
   -0.3385   -2.1226    1.2887 H   0  0  0  0  0  0  0  0  0  0  0  0
   -1.0983   -0.1784   -0.0498 H   0  0  0  0  0  0  0  0  0  0  0  0
   -1.4622   -1.2606   -1.4153 H   0  0  0  0  0  0  0  0  0  0  0  0
   -3.0946   -2.4871   -0.0082 H   0  0  0  0  0  0  0  0  0  0  0  0
   -2.7306   -1.4048    1.3573 H   0  0  0  0  0  0  0  0  0  0  0  0
   -3.4904    0.5394    0.0189 H   0  0  0  0  0  0  0  0  0  0  0  0
   -3.8543   -0.5429   -1.3466 H   0  0  0  0  0  0  0  0  0  0  0  0
   -5.4867   -1.7693    0.0604 H   0  0  0  0  0  0  0  0  0  0  0  0
   -5.1228   -0.6870    1.4259 H   0  0  0  0  0  0  0  0  0  0  0  0
   -5.8826    1.2572    0.0875 H   0  0  0  0  0  0  0  0  0  0  0  0
   -6.2465    0.1749   -1.2780 H   0  0  0  0  0  0  0  0  0  0  0  0
   -7.8789   -1.0515    0.1291 H   0  0  0  0  0  0  0  0  0  0  0  0
   -7.5150    0.0307    1.4946 H   0  0  0  0  0  0  0  0  0  0  0  0
   -8.2748    1.9749    0.1561 H   0  0  0  0  0  0  0  0  0  0  0  0
   -8.6387    0.8927   -1.2094 H   0  0  0  0  0  0  0  0  0  0  0  0
  -10.2711   -0.3337    0.1977 H   0  0  0  0  0  0  0  0  0  0  0  0
   -9.9072    0.7485    1.5632 H   0  0  0  0  0  0  0  0  0  0  0  0
  -12.8484    2.2665   -0.0162 H   0  0  0  0  0  0  0  0  0  0  0  0
  1  2  1  0  0  0  0
  2  3  1  0  0  0  0
  3  4  1  0  0  0  0
  4  5  1  0  0  0  0
  5  6  1  0  0  0  0
  6  7  1  0  0  0  0
  7  8  1  0  0  0  0
  8  9  1  0  0  0  0
  9 10  2  0  0  0  0
 10 11  1  0  0  0  0
 11 12  1  0  0  0  0
 12 13  1  0  0  0  0
 13 14  1  0  0  0  0
 14 15  1  0  0  0  0
 15 16  1  0  0  0  0
 16 17  1  0  0  0  0
 17 18  1  0  0  0  0
 18 19  1  0  0  0  0
 19 20  1  0  0  0  0
 20 21  1  0  0  0  0
 21 22  1  0  0  0  0
 22 23  2  0  0  0  0
 22 24  1  0  0  0  0
  1 25  1  0  0  0  0
  1 26  1  0  0  0  0
  1 27  1  0  0  0  0
  2 28  1  0  0  0  0
  2 29  1  0  0  0  0
  3 30  1  0  0  0  0
  3 31  1  0  0  0  0
  4 32  1  0  0  0  0
  4 33  1  0  0  0  0
  5 34  1  0  0  0  0
  5 35  1  0  0  0  0
  6 36  1  0  0  0  0
  6 37  1  0  0  0  0
  7 38  1  0  0  0  0
  7 39  1  0  0  0  0
  8 40  1  0  0  0  0
  8 41  1  0  0  0  0
  9 42  1  0  0  0  0
 10 43  1  0  0  0  0
 11 44  1  0  0  0  0
 11 45  1  0  0  0  0
 12 46  1  0  0  0  0
 12 47  1  0  0  0  0
 13 48  1  0  0  0  0
 13 49  1  0  0  0  0
 14 50  1  0  0  0  0
 14 51  1  0  0  0  0
 15 52  1  0  0  0  0
 15 53  1  0  0  0  0
 16 54  1  0  0  0  0
 16 55  1  0  0  0  0
 17 56  1  0  0  0  0
 17 57  1  0  0  0  0
 18 58  1  0  0  0  0
 18 59  1  0  0  0  0
 19 60  1  0  0  0  0
 19 61  1  0  0  0  0
 20 62  1  0  0  0  0
 20 63  1  0  0  0  0
 21 64  1  0  0  0  0
 21 65  1  0  0  0  0
 24 66  1  0  0  0  0
M  END
$$$$
