C18H38O
APtclcactv06211801223D 0   0.00000     0.00000
 
 57 56  0  0  0  0  0  0  0  0999 V2000
   11.3203    0.4070    0.0000 C   0  0  0  0  0  0  0  0  0  0  0  0
   10.0700   -0.4749   -0.0000 C   0  0  0  0  0  0  0  0  0  0  0  0
    8.8218    0.4099    0.0000 C   0  0  0  0  0  0  0  0  0  0  0  0
    7.5715   -0.4720   -0.0000 C   0  0  0  0  0  0  0  0  0  0  0  0
    6.3233    0.4128    0.0000 C   0  0  0  0  0  0  0  0  0  0  0  0
    5.0731   -0.4691   -0.0000 C   0  0  0  0  0  0  0  0  0  0  0  0
    3.8249    0.4157    0.0000 C   0  0  0  0  0  0  0  0  0  0  0  0
    2.5746   -0.4662   -0.0000 C   0  0  0  0  0  0  0  0  0  0  0  0
    1.3264    0.4186    0.0000 C   0  0  0  0  0  0  0  0  0  0  0  0
    0.0761   -0.4633   -0.0000 C   0  0  0  0  0  0  0  0  0  0  0  0
   -1.1721    0.4215   -0.0000 C   0  0  0  0  0  0  0  0  0  0  0  0
   -2.4224   -0.4604    0.0000 C   0  0  0  0  0  0  0  0  0  0  0  0
   -3.6706    0.4244   -0.0000 C   0  0  0  0  0  0  0  0  0  0  0  0
   -4.9208   -0.4575    0.0000 C   0  0  0  0  0  0  0  0  0  0  0  0
   -6.1691    0.4273   -0.0000 C   0  0  0  0  0  0  0  0  0  0  0  0
   -7.4193   -0.4546    0.0000 C   0  0  0  0  0  0  0  0  0  0  0  0
   -8.6675    0.4302   -0.0000 C   0  0  0  0  0  0  0  0  0  0  0  0
   -9.9178   -0.4517    0.0000 C   0  0  0  0  0  0  0  0  0  0  0  0
  -11.0836    0.3746   -0.0000 O   0  0  0  0  0  0  0  0  0  0  0  0
   11.3210    1.0363    0.8900 H   0  0  0  0  0  0  0  0  0  0  0  0
   12.2095   -0.2234   -0.0000 H   0  0  0  0  0  0  0  0  0  0  0  0
   11.3210    1.0363   -0.8900 H   0  0  0  0  0  0  0  0  0  0  0  0
   10.0693   -1.1042   -0.8900 H   0  0  0  0  0  0  0  0  0  0  0  0
   10.0693   -1.1042    0.8900 H   0  0  0  0  0  0  0  0  0  0  0  0
    8.8225    1.0392    0.8900 H   0  0  0  0  0  0  0  0  0  0  0  0
    8.8225    1.0392   -0.8900 H   0  0  0  0  0  0  0  0  0  0  0  0
    7.5708   -1.1013   -0.8900 H   0  0  0  0  0  0  0  0  0  0  0  0
    7.5708   -1.1013    0.8900 H   0  0  0  0  0  0  0  0  0  0  0  0
    6.3241    1.0421    0.8900 H   0  0  0  0  0  0  0  0  0  0  0  0
    6.3241    1.0421   -0.8900 H   0  0  0  0  0  0  0  0  0  0  0  0
    5.0723   -1.0984   -0.8900 H   0  0  0  0  0  0  0  0  0  0  0  0
    5.0723   -1.0984    0.8900 H   0  0  0  0  0  0  0  0  0  0  0  0
    3.8256    1.0450    0.8900 H   0  0  0  0  0  0  0  0  0  0  0  0
    3.8256    1.0450   -0.8900 H   0  0  0  0  0  0  0  0  0  0  0  0
    2.5739   -1.0955   -0.8900 H   0  0  0  0  0  0  0  0  0  0  0  0
    2.5739   -1.0955    0.8900 H   0  0  0  0  0  0  0  0  0  0  0  0
    1.3271    1.0479    0.8900 H   0  0  0  0  0  0  0  0  0  0  0  0
    1.3271    1.0479   -0.8900 H   0  0  0  0  0  0  0  0  0  0  0  0
    0.0754   -1.0926   -0.8900 H   0  0  0  0  0  0  0  0  0  0  0  0
    0.0754   -1.0926    0.8900 H   0  0  0  0  0  0  0  0  0  0  0  0
   -1.1714    1.0508    0.8900 H   0  0  0  0  0  0  0  0  0  0  0  0
   -1.1714    1.0508   -0.8900 H   0  0  0  0  0  0  0  0  0  0  0  0
   -2.4231   -1.0897   -0.8900 H   0  0  0  0  0  0  0  0  0  0  0  0
   -2.4231   -1.0897    0.8900 H   0  0  0  0  0  0  0  0  0  0  0  0
   -3.6699    1.0537    0.8900 H   0  0  0  0  0  0  0  0  0  0  0  0
   -3.6699    1.0537   -0.8900 H   0  0  0  0  0  0  0  0  0  0  0  0
   -4.9216   -1.0868   -0.8900 H   0  0  0  0  0  0  0  0  0  0  0  0
   -4.9216   -1.0868    0.8900 H   0  0  0  0  0  0  0  0  0  0  0  0
   -6.1683    1.0566    0.8900 H   0  0  0  0  0  0  0  0  0  0  0  0
   -6.1683    1.0566   -0.8900 H   0  0  0  0  0  0  0  0  0  0  0  0
   -7.4201   -1.0840   -0.8900 H   0  0  0  0  0  0  0  0  0  0  0  0
   -7.4201   -1.0840    0.8900 H   0  0  0  0  0  0  0  0  0  0  0  0
   -8.6668    1.0595    0.8900 H   0  0  0  0  0  0  0  0  0  0  0  0
   -8.6668    1.0595   -0.8900 H   0  0  0  0  0  0  0  0  0  0  0  0
   -9.9185   -1.0811   -0.8900 H   0  0  0  0  0  0  0  0  0  0  0  0
   -9.9185   -1.0811    0.8900 H   0  0  0  0  0  0  0  0  0  0  0  0
  -11.9154   -0.1186    0.0000 H   0  0  0  0  0  0  0  0  0  0  0  0
  1  2  1  0  0  0  0
  2  3  1  0  0  0  0
  3  4  1  0  0  0  0
  4  5  1  0  0  0  0
  5  6  1  0  0  0  0
  6  7  1  0  0  0  0
  7  8  1  0  0  0  0
  8  9  1  0  0  0  0
  9 10  1  0  0  0  0
 10 11  1  0  0  0  0
 11 12  1  0  0  0  0
 12 13  1  0  0  0  0
 13 14  1  0  0  0  0
 14 15  1  0  0  0  0
 15 16  1  0  0  0  0
 16 17  1  0  0  0  0
 17 18  1  0  0  0  0
 18 19  1  0  0  0  0
  1 20  1  0  0  0  0
  1 21  1  0  0  0  0
  1 22  1  0  0  0  0
  2 23  1  0  0  0  0
  2 24  1  0  0  0  0
  3 25  1  0  0  0  0
  3 26  1  0  0  0  0
  4 27  1  0  0  0  0
  4 28  1  0  0  0  0
  5 29  1  0  0  0  0
  5 30  1  0  0  0  0
  6 31  1  0  0  0  0
  6 32  1  0  0  0  0
  7 33  1  0  0  0  0
  7 34  1  0  0  0  0
  8 35  1  0  0  0  0
  8 36  1  0  0  0  0
  9 37  1  0  0  0  0
  9 38  1  0  0  0  0
 10 39  1  0  0  0  0
 10 40  1  0  0  0  0
 11 41  1  0  0  0  0
 11 42  1  0  0  0  0
 12 43  1  0  0  0  0
 12 44  1  0  0  0  0
 13 45  1  0  0  0  0
 13 46  1  0  0  0  0
 14 47  1  0  0  0  0
 14 48  1  0  0  0  0
 15 49  1  0  0  0  0
 15 50  1  0  0  0  0
 16 51  1  0  0  0  0
 16 52  1  0  0  0  0
 17 53  1  0  0  0  0
 17 54  1  0  0  0  0
 18 55  1  0  0  0  0
 18 56  1  0  0  0  0
 19 57  1  0  0  0  0
M  END
$$$$
