C2H6O
APtclcactv06211802253D 0   0.00000     0.00000
 
  9  8  0  0  0  0  0  0  0  0999 V2000
    1.1985   -0.2443   -0.0000 C   0  0  0  0  0  0  0  0  0  0  0  0
   -0.0000    0.5340    0.0000 O   0  0  0  0  0  0  0  0  0  0  0  0
   -1.1985   -0.2443    0.0000 C   0  0  0  0  0  0  0  0  0  0  0  0
    1.2233   -0.8732    0.8900 H   0  0  0  0  0  0  0  0  0  0  0  0
    1.2233   -0.8732   -0.8900 H   0  0  0  0  0  0  0  0  0  0  0  0
    2.0629    0.4197   -0.0000 H   0  0  0  0  0  0  0  0  0  0  0  0
   -1.2233   -0.8732   -0.8900 H   0  0  0  0  0  0  0  0  0  0  0  0
   -1.2233   -0.8732    0.8900 H   0  0  0  0  0  0  0  0  0  0  0  0
   -2.0629    0.4197    0.0000 H   0  0  0  0  0  0  0  0  0  0  0  0
  1  2  1  0  0  0  0
  2  3  1  0  0  0  0
  1  4  1  0  0  0  0
  1  5  1  0  0  0  0
  1  6  1  0  0  0  0
  3  7  1  0  0  0  0
  3  8  1  0  0  0  0
  3  9  1  0  0  0  0
M  END
$$$$
