C5H10O
APtclcactv06211804433D 0   0.00000     0.00000
 
 16 15  0  0  0  0  0  0  0  0999 V2000
    1.1396    0.4300   -1.2492 C   0  0  0  0  0  0  0  0  0  0  0  0
    0.3534    0.0272   -0.0000 C   0  0  0  0  0  0  0  0  0  0  0  0
    1.1396    0.4300    1.2492 C   0  0  0  0  0  0  0  0  0  0  0  0
   -0.9820    0.7255   -0.0000 C   0  0  0  0  0  0  0  0  0  0  0  0
   -2.0881    0.0237   -0.0000 C   0  0  0  0  0  0  0  0  0  0  0  0
    0.1513   -1.3874    0.0000 O   0  0  0  0  0  0  0  0  0  0  0  0
    2.1055   -0.0751   -1.2492 H   0  0  0  0  0  0  0  0  0  0  0  0
    0.5795    0.1430   -2.1392 H   0  0  0  0  0  0  0  0  0  0  0  0
    1.2938    1.5091   -1.2492 H   0  0  0  0  0  0  0  0  0  0  0  0
    1.2938    1.5091    1.2492 H   0  0  0  0  0  0  0  0  0  0  0  0
    0.5795    0.1430    2.1392 H   0  0  0  0  0  0  0  0  0  0  0  0
    2.1055   -0.0751    1.2492 H   0  0  0  0  0  0  0  0  0  0  0  0
   -1.0271    1.8046   -0.0000 H   0  0  0  0  0  0  0  0  0  0  0  0
   -2.0430   -1.0554    0.0000 H   0  0  0  0  0  0  0  0  0  0  0  0
   -3.0452    0.5241   -0.0000 H   0  0  0  0  0  0  0  0  0  0  0  0
    0.9701   -1.9018    0.0000 H   0  0  0  0  0  0  0  0  0  0  0  0
  1  2  1  0  0  0  0
  2  3  1  0  0  0  0
  2  4  1  0  0  0  0
  4  5  2  0  0  0  0
  2  6  1  0  0  0  0
  1  7  1  0  0  0  0
  1  8  1  0  0  0  0
  1  9  1  0  0  0  0
  3 10  1  0  0  0  0
  3 11  1  0  0  0  0
  3 12  1  0  0  0  0
  4 13  1  0  0  0  0
  5 14  1  0  0  0  0
  5 15  1  0  0  0  0
  6 16  1  0  0  0  0
M  END
$$$$
