C8H10O3
APtclcactv06211806293D 0   0.00000     0.00000
 
 21 21  0  0  0  0  0  0  0  0999 V2000
    0.1370   -1.4516   -0.2519 C   0  0  0  0  0  0  0  0  0  0  0  0
   -1.2125   -1.5959    0.0110 C   0  0  0  0  0  0  0  0  0  0  0  0
   -2.0252   -0.4769    0.0966 C   0  0  0  0  0  0  0  0  0  0  0  0
   -1.4797    0.7907   -0.0825 C   0  0  0  0  0  0  0  0  0  0  0  0
   -0.1263    0.9283   -0.3457 C   0  0  0  0  0  0  0  0  0  0  0  0
    0.6789   -0.1922   -0.4299 C   0  0  0  0  0  0  0  0  0  0  0  0
    2.1507   -0.0406   -0.7163 C   0  0  0  0  0  0  0  0  0  0  0  0
    2.9153    0.0959    0.6019 C   0  0  0  0  0  0  0  0  0  0  0  0
    4.3109    0.2396    0.3303 O   0  0  0  0  0  0  0  0  0  0  0  0
   -2.2733    1.8920    0.0002 O   0  0  0  0  0  0  0  0  0  0  0  0
   -3.3530   -0.6172    0.3548 O   0  0  0  0  0  0  0  0  0  0  0  0
    0.7702   -2.3243   -0.3140 H   0  0  0  0  0  0  0  0  0  0  0  0
   -1.6334   -2.5809    0.1492 H   0  0  0  0  0  0  0  0  0  0  0  0
    0.2994    1.9110   -0.4855 H   0  0  0  0  0  0  0  0  0  0  0  0
    2.5083   -0.9184   -1.2546 H   0  0  0  0  0  0  0  0  0  0  0  0
    2.3127    0.8495   -1.3242 H   0  0  0  0  0  0  0  0  0  0  0  0
    2.5576    0.9736    1.1402 H   0  0  0  0  0  0  0  0  0  0  0  0
    2.7532   -0.7942    1.2098 H   0  0  0  0  0  0  0  0  0  0  0  0
    4.8582    0.3313    1.1222 H   0  0  0  0  0  0  0  0  0  0  0  0
   -2.3399    2.2628    0.8908 H   0  0  0  0  0  0  0  0  0  0  0  0
   -3.5741   -0.6057    1.2961 H   0  0  0  0  0  0  0  0  0  0  0  0
  1  2  2  0  0  0  0
  2  3  1  0  0  0  0
  3  4  2  0  0  0  0
  4  5  1  0  0  0  0
  5  6  2  0  0  0  0
  1  6  1  0  0  0  0
  6  7  1  0  0  0  0
  7  8  1  0  0  0  0
  8  9  1  0  0  0  0
  4 10  1  0  0  0  0
  3 11  1  0  0  0  0
  1 12  1  0  0  0  0
  2 13  1  0  0  0  0
  5 14  1  0  0  0  0
  7 15  1  0  0  0  0
  7 16  1  0  0  0  0
  8 17  1  0  0  0  0
  8 18  1  0  0  0  0
  9 19  1  0  0  0  0
 10 20  1  0  0  0  0
 11 21  1  0  0  0  0
M  END
$$$$
