C6H6O6
APtclcactv06211804323D 0   0.00000     0.00000
 
 18 18  0  0  0  0  0  0  0  0999 V2000
    2.5159    0.8509   -0.2614 C   0  0  0  0  0  0  0  0  0  0  0  0
    1.4866   -0.1791    0.2082 C   0  0  0  0  0  0  0  0  0  0  0  0
    0.2377   -0.0896   -0.6711 C   0  0  0  0  0  0  0  0  0  0  0  0
   -0.7867   -1.1047   -0.2146 C   0  0  0  0  0  0  0  0  0  0  0  0
   -0.6666   -2.3060   -0.1737 O   0  0  0  0  0  0  0  0  0  0  0  0
   -1.9798   -0.2936    0.1755 C   0  0  0  0  0  0  0  0  0  0  0  0
   -3.0316   -0.7104    0.5994 O   0  0  0  0  0  0  0  0  0  0  0  0
   -1.6143    1.1327   -0.0630 C   0  0  0  0  0  0  0  0  0  0  0  0
   -2.3447    2.0783    0.1443 O   0  0  0  0  0  0  0  0  0  0  0  0
   -0.3664    1.2212   -0.5375 O   0  0  0  0  0  0  0  0  0  0  0  0
    2.0458   -1.4904    0.1094 O   0  0  0  0  0  0  0  0  0  0  0  0
    3.6331    0.8483    0.6295 O   0  0  0  0  0  0  0  0  0  0  0  0
    2.8521    0.5964   -1.2666 H   0  0  0  0  0  0  0  0  0  0  0  0
    2.0607    1.8413   -0.2705 H   0  0  0  0  0  0  0  0  0  0  0  0
    1.2166    0.0236    1.2446 H   0  0  0  0  0  0  0  0  0  0  0  0
    0.5035   -0.2736   -1.7121 H   0  0  0  0  0  0  0  0  0  0  0  0
    2.3096   -1.7390   -0.7870 H   0  0  0  0  0  0  0  0  0  0  0  0
    4.3268    1.4789    0.3924 H   0  0  0  0  0  0  0  0  0  0  0  0
  1  2  1  0  0  0  0
  2  3  1  0  0  0  0
  3  4  1  0  0  0  0
  4  5  2  0  0  0  0
  4  6  1  0  0  0  0
  6  7  2  0  0  0  0
  6  8  1  0  0  0  0
  8  9  2  0  0  0  0
  8 10  1  0  0  0  0
  3 10  1  0  0  0  0
  2 11  1  0  0  0  0
  1 12  1  0  0  0  0
  1 13  1  0  0  0  0
  1 14  1  0  0  0  0
  2 15  1  0  0  0  0
  3 16  1  0  0  0  0
 11 17  1  0  0  0  0
 12 18  1  0  0  0  0
M  END
$$$$
