C5H8O
APtclcactv06211806293D 0   0.00000     0.00000
 
 14 13  0  0  0  0  0  0  0  0999 V2000
    2.2860   -0.5866   -0.1565 C   0  0  0  0  0  0  0  0  0  0  0  0
    0.9365    0.0635    0.0085 C   0  0  0  0  0  0  0  0  0  0  0  0
    0.8333    1.2650   -0.0554 O   0  0  0  0  0  0  0  0  0  0  0  0
   -0.2841   -0.7857    0.2532 C   0  0  0  0  0  0  0  0  0  0  0  0
   -1.4957    0.1012    0.3811 C   0  0  0  0  0  0  0  0  0  0  0  0
   -2.5378   -0.0985   -0.3872 C   0  0  0  0  0  0  0  0  0  0  0  0
    3.0413    0.1813   -0.3240 H   0  0  0  0  0  0  0  0  0  0  0  0
    2.5319   -1.1474    0.7453 H   0  0  0  0  0  0  0  0  0  0  0  0
    2.2611   -1.2640   -1.0101 H   0  0  0  0  0  0  0  0  0  0  0  0
   -0.4227   -1.4719   -0.5823 H   0  0  0  0  0  0  0  0  0  0  0  0
   -0.1520   -1.3553    1.1731 H   0  0  0  0  0  0  0  0  0  0  0  0
   -1.5049    0.9015    1.1062 H   0  0  0  0  0  0  0  0  0  0  0  0
   -2.5285   -0.8988   -1.1124 H   0  0  0  0  0  0  0  0  0  0  0  0
   -3.4061    0.5371   -0.2956 H   0  0  0  0  0  0  0  0  0  0  0  0
  1  2  1  0  0  0  0
  2  3  2  0  0  0  0
  2  4  1  0  0  0  0
  4  5  1  0  0  0  0
  5  6  2  0  0  0  0
  1  7  1  0  0  0  0
  1  8  1  0  0  0  0
  1  9  1  0  0  0  0
  4 10  1  0  0  0  0
  4 11  1  0  0  0  0
  5 12  1  0  0  0  0
  6 13  1  0  0  0  0
  6 14  1  0  0  0  0
M  END
$$$$
