C18H22O11
APtclcactv06211806293D 0   0.00000     0.00000
 
 51 54  0  0  0  0  0  0  0  0999 V2000
    5.7225    3.4770   -0.2330 C   0  0  0  0  0  0  0  0  0  0  0  0
    4.2699    3.0765   -0.2045 C   0  0  0  0  0  0  0  0  0  0  0  0
    3.4224    3.8502   -0.5826 O   0  0  0  0  0  0  0  0  0  0  0  0
    3.9177    1.8604    0.2411 O   0  0  0  0  0  0  0  0  0  0  0  0
    2.5008    1.5429    0.2403 C   0  0  0  0  0  0  0  0  0  0  0  0
    2.2985    0.1466    0.7698 C   0  0  0  0  0  0  0  0  0  0  0  0
    3.2645   -0.6500    1.1679 C   0  0  0  0  0  0  0  0  0  0  0  0
    2.7199   -1.9835    1.6338 C   0  0  0  0  0  0  0  0  0  0  0  0
    1.3236   -2.0388    0.9144 C   0  0  0  0  0  0  0  0  0  0  0  0
    0.9607   -0.5275    0.9223 C   0  0  0  0  0  0  0  0  0  0  0  0
    0.0074   -0.2380   -0.2197 C   0  0  0  0  0  0  0  0  0  0  0  0
    0.4278   -0.7510   -1.4958 O   0  0  0  0  0  0  0  0  0  0  0  0
    1.3456   -1.7239   -1.5959 C   0  0  0  0  0  0  0  0  0  0  0  0
    1.8458   -2.3052   -0.5021 C   0  0  0  0  0  0  0  0  0  0  0  0
    3.0013   -3.0959   -0.3371 C   0  0  0  0  0  0  0  0  0  0  0  0
    3.5564   -3.7105   -1.2284 O   0  0  0  0  0  0  0  0  0  0  0  0
    3.4060   -3.0613    0.9616 O   0  0  0  0  0  0  0  0  0  0  0  0
   -1.2651   -0.8049    0.0987 O   0  0  0  0  0  0  0  0  0  0  0  0
   -2.2894   -0.5042   -0.8513 C   0  0  0  0  0  0  0  0  0  0  0  0
   -3.5682   -1.2593   -0.4794 C   0  0  0  0  0  0  0  0  0  0  0  0
   -4.0527   -0.7822    0.8932 C   0  0  0  0  0  0  0  0  0  0  0  0
   -4.2650    0.7341    0.8488 C   0  0  0  0  0  0  0  0  0  0  0  0
   -2.9593    1.4122    0.4257 C   0  0  0  0  0  0  0  0  0  0  0  0
   -2.5484    0.9012   -0.8441 O   0  0  0  0  0  0  0  0  0  0  0  0
   -3.1794    2.9226    0.3208 C   0  0  0  0  0  0  0  0  0  0  0  0
   -1.9352    3.5670    0.0400 O   0  0  0  0  0  0  0  0  0  0  0  0
   -5.2922    1.0451   -0.0947 O   0  0  0  0  0  0  0  0  0  0  0  0
   -5.2857   -1.4283    1.2160 O   0  0  0  0  0  0  0  0  0  0  0  0
   -4.5769   -1.0011   -1.4581 O   0  0  0  0  0  0  0  0  0  0  0  0
    5.8122    4.4910   -0.6226 H   0  0  0  0  0  0  0  0  0  0  0  0
    6.1299    3.4385    0.7772 H   0  0  0  0  0  0  0  0  0  0  0  0
    6.2759    2.7911   -0.8744 H   0  0  0  0  0  0  0  0  0  0  0  0
    1.9691    2.2525    0.8744 H   0  0  0  0  0  0  0  0  0  0  0  0
    2.1151    1.6050   -0.7772 H   0  0  0  0  0  0  0  0  0  0  0  0
    4.3120   -0.3874    1.1631 H   0  0  0  0  0  0  0  0  0  0  0  0
    2.6698   -2.0833    2.7181 H   0  0  0  0  0  0  0  0  0  0  0  0
    0.5777   -2.7241    1.3171 H   0  0  0  0  0  0  0  0  0  0  0  0
    0.5086   -0.2577    1.8766 H   0  0  0  0  0  0  0  0  0  0  0  0
   -0.1117    0.8421   -0.3043 H   0  0  0  0  0  0  0  0  0  0  0  0
    1.6824   -2.0442   -2.5708 H   0  0  0  0  0  0  0  0  0  0  0  0
   -1.9636   -0.8088   -1.8459 H   0  0  0  0  0  0  0  0  0  0  0  0
   -3.3617   -2.3288   -0.4413 H   0  0  0  0  0  0  0  0  0  0  0  0
   -3.3044   -1.0237    1.6481 H   0  0  0  0  0  0  0  0  0  0  0  0
   -4.5567    1.0901    1.8369 H   0  0  0  0  0  0  0  0  0  0  0  0
   -2.1867    1.2079    1.1670 H   0  0  0  0  0  0  0  0  0  0  0  0
   -3.8863    3.1319   -0.4821 H   0  0  0  0  0  0  0  0  0  0  0  0
   -3.5784    3.2980    1.2631 H   0  0  0  0  0  0  0  0  0  0  0  0
   -1.9995    4.5285   -0.0402 H   0  0  0  0  0  0  0  0  0  0  0  0
   -6.1479    0.6435    0.1089 H   0  0  0  0  0  0  0  0  0  0  0  0
   -5.2262   -2.3927    1.2544 H   0  0  0  0  0  0  0  0  0  0  0  0
   -4.3351   -1.2741   -2.3537 H   0  0  0  0  0  0  0  0  0  0  0  0
  1  2  1  0  0  0  0
  2  3  2  0  0  0  0
  2  4  1  0  0  0  0
  4  5  1  0  0  0  0
  5  6  1  0  0  0  0
  6  7  2  0  0  0  0
  7  8  1  0  0  0  0
  8  9  1  0  0  0  0
  9 10  1  0  0  0  0
  6 10  1  0  0  0  0
 10 11  1  0  0  0  0
 11 12  1  0  0  0  0
 12 13  1  0  0  0  0
 13 14  2  0  0  0  0
  9 14  1  0  0  0  0
 14 15  1  0  0  0  0
 15 16  2  0  0  0  0
 15 17  1  0  0  0  0
  8 17  1  0  0  0  0
 11 18  1  0  0  0  0
 18 19  1  0  0  0  0
 19 20  1  0  0  0  0
 20 21  1  0  0  0  0
 21 22  1  0  0  0  0
 22 23  1  0  0  0  0
 23 24  1  0  0  0  0
 19 24  1  0  0  0  0
 23 25  1  0  0  0  0
 25 26  1  0  0  0  0
 22 27  1  0  0  0  0
 21 28  1  0  0  0  0
 20 29  1  0  0  0  0
  1 30  1  0  0  0  0
  1 31  1  0  0  0  0
  1 32  1  0  0  0  0
  5 33  1  0  0  0  0
  5 34  1  0  0  0  0
  7 35  1  0  0  0  0
  8 36  1  0  0  0  0
  9 37  1  0  0  0  0
 10 38  1  0  0  0  0
 11 39  1  0  0  0  0
 13 40  1  0  0  0  0
 19 41  1  0  0  0  0
 20 42  1  0  0  0  0
 21 43  1  0  0  0  0
 22 44  1  0  0  0  0
 23 45  1  0  0  0  0
 25 46  1  0  0  0  0
 25 47  1  0  0  0  0
 26 48  1  0  0  0  0
 27 49  1  0  0  0  0
 28 50  1  0  0  0  0
 29 51  1  0  0  0  0
M  END
$$$$
