C9H10O3
APtclcactv06201806443D 0   0.00000     0.00000
 
 22 22  0  0  0  0  0  0  0  0999 V2000
    4.4149    1.2534    0.0047 C   0  0  0  0  0  0  0  0  0  0  0  0
    3.5391   -0.0012    0.0066 C   0  0  0  0  0  0  0  0  0  0  0  0
    2.1396    0.3855    0.0002 O   0  0  0  0  0  0  0  0  0  0  0  0
    1.2302   -0.6088    0.0010 C   0  0  0  0  0  0  0  0  0  0  0  0
    1.5967   -1.7673    0.0068 O   0  0  0  0  0  0  0  0  0  0  0  0
   -0.2098   -0.2910   -0.0053 C   0  0  0  0  0  0  0  0  0  0  0  0
   -1.1549   -1.3211   -0.0046 C   0  0  0  0  0  0  0  0  0  0  0  0
   -2.4984   -1.0200   -0.0105 C   0  0  0  0  0  0  0  0  0  0  0  0
   -2.9155    0.3060   -0.0172 C   0  0  0  0  0  0  0  0  0  0  0  0
   -1.9790    1.3334   -0.0180 C   0  0  0  0  0  0  0  0  0  0  0  0
   -0.6336    1.0411   -0.0063 C   0  0  0  0  0  0  0  0  0  0  0  0
   -4.2406    0.5985   -0.0235 O   0  0  0  0  0  0  0  0  0  0  0  0
    4.2046    1.8420   -0.8883 H   0  0  0  0  0  0  0  0  0  0  0  0
    4.1984    1.8490    0.8916 H   0  0  0  0  0  0  0  0  0  0  0  0
    5.4655    0.9632    0.0095 H   0  0  0  0  0  0  0  0  0  0  0  0
    3.7556   -0.5967   -0.8803 H   0  0  0  0  0  0  0  0  0  0  0  0
    3.7494   -0.5897    0.8997 H   0  0  0  0  0  0  0  0  0  0  0  0
   -0.8317   -2.3516    0.0003 H   0  0  0  0  0  0  0  0  0  0  0  0
   -3.2292   -1.8152   -0.0103 H   0  0  0  0  0  0  0  0  0  0  0  0
   -2.3072    2.3623   -0.0232 H   0  0  0  0  0  0  0  0  0  0  0  0
    0.0933    1.8398   -0.0065 H   0  0  0  0  0  0  0  0  0  0  0  0
   -4.6281    0.6866    0.8581 H   0  0  0  0  0  0  0  0  0  0  0  0
  1  2  1  0  0  0  0
  2  3  1  0  0  0  0
  3  4  1  0  0  0  0
  4  5  2  0  0  0  0
  4  6  1  0  0  0  0
  6  7  2  0  0  0  0
  7  8  1  0  0  0  0
  8  9  2  0  0  0  0
  9 10  1  0  0  0  0
 10 11  2  0  0  0  0
  6 11  1  0  0  0  0
  9 12  1  0  0  0  0
  1 13  1  0  0  0  0
  1 14  1  0  0  0  0
  1 15  1  0  0  0  0
  2 16  1  0  0  0  0
  2 17  1  0  0  0  0
  7 18  1  0  0  0  0
  8 19  1  0  0  0  0
 10 20  1  0  0  0  0
 11 21  1  0  0  0  0
 12 22  1  0  0  0  0
M  END
$$$$
