C5H8O
APtclcactv06211804433D 0   0.00000     0.00000
 
 14 14  0  0  0  0  0  0  0  0999 V2000
   -1.4231    0.7599    0.2933 C   0  0  0  0  0  0  0  0  0  0  0  0
   -1.4911   -0.7229   -0.1525 C   0  0  0  0  0  0  0  0  0  0  0  0
   -0.0440   -1.2266    0.0271 C   0  0  0  0  0  0  0  0  0  0  0  0
    0.8544   -0.0083   -0.0233 C   0  0  0  0  0  0  0  0  0  0  0  0
    2.0569   -0.0009    0.0867 O   0  0  0  0  0  0  0  0  0  0  0  0
   -0.0371    1.2020   -0.2383 C   0  0  0  0  0  0  0  0  0  0  0  0
   -2.2197    1.3412   -0.1709 H   0  0  0  0  0  0  0  0  0  0  0  0
   -1.4654    0.8404    1.3795 H   0  0  0  0  0  0  0  0  0  0  0  0
   -2.1738   -1.2837    0.4857 H   0  0  0  0  0  0  0  0  0  0  0  0
   -1.7949   -0.7952   -1.1968 H   0  0  0  0  0  0  0  0  0  0  0  0
    0.0597   -1.7262    0.9903 H   0  0  0  0  0  0  0  0  0  0  0  0
    0.2142   -1.9134   -0.7789 H   0  0  0  0  0  0  0  0  0  0  0  0
   -0.0966    1.4474   -1.2986 H   0  0  0  0  0  0  0  0  0  0  0  0
    0.3346    2.0544    0.3304 H   0  0  0  0  0  0  0  0  0  0  0  0
  1  2  1  0  0  0  0
  2  3  1  0  0  0  0
  3  4  1  0  0  0  0
  4  5  2  0  0  0  0
  4  6  1  0  0  0  0
  1  6  1  0  0  0  0
  1  7  1  0  0  0  0
  1  8  1  0  0  0  0
  2  9  1  0  0  0  0
  2 10  1  0  0  0  0
  3 11  1  0  0  0  0
  3 12  1  0  0  0  0
  6 13  1  0  0  0  0
  6 14  1  0  0  0  0
M  END
$$$$
