C5H11NO3S
APtclcactv06211804323D 0   0.00000     0.00000
 
 21 20  0  0  0  0  0  0  0  0999 V2000
    3.7991   -0.4386    0.7549 C   0  0  0  0  0  0  0  0  0  0  0  0
    2.4363    0.4948    0.0052 S   0  0  0  0  0  0  0  0  0  0  0  0
    2.5299    0.4149   -1.4104 O   0  0  0  0  0  0  0  0  0  0  0  0
    0.9662   -0.4080    0.5659 C   0  0  0  0  0  0  0  0  0  0  0  0
   -0.2894    0.2658    0.0088 C   0  0  0  0  0  0  0  0  0  0  0  0
   -1.5293   -0.4957    0.4817 C   0  0  0  0  0  0  0  0  0  0  0  0
   -2.7688    0.2366    0.0361 C   0  0  0  0  0  0  0  0  0  0  0  0
   -3.3723   -0.1368   -0.9417 O   0  0  0  0  0  0  0  0  0  0  0  0
   -3.2023    1.3036    0.7256 O   0  0  0  0  0  0  0  0  0  0  0  0
   -1.5243   -1.8464   -0.0958 N   0  0  0  0  0  0  0  0  0  0  0  0
    4.7485    0.0214    0.4810 H   0  0  0  0  0  0  0  0  0  0  0  0
    3.6912   -0.4311    1.8396 H   0  0  0  0  0  0  0  0  0  0  0  0
    3.7764   -1.4672    0.3947 H   0  0  0  0  0  0  0  0  0  0  0  0
    1.0144   -1.4372    0.2104 H   0  0  0  0  0  0  0  0  0  0  0  0
    0.9292   -0.4012    1.6553 H   0  0  0  0  0  0  0  0  0  0  0  0
   -0.3375    1.2951    0.3643 H   0  0  0  0  0  0  0  0  0  0  0  0
   -0.2524    0.2590   -1.0806 H   0  0  0  0  0  0  0  0  0  0  0  0
   -1.5198   -0.5655    1.5694 H   0  0  0  0  0  0  0  0  0  0  0  0
   -4.0017    1.7405    0.4014 H   0  0  0  0  0  0  0  0  0  0  0  0
   -1.5328   -1.8086   -1.1040 H   0  0  0  0  0  0  0  0  0  0  0  0
   -0.7362   -2.3800    0.2394 H   0  0  0  0  0  0  0  0  0  0  0  0
  1  2  1  0  0  0  0
  2  3  2  0  0  0  0
  2  4  1  0  0  0  0
  4  5  1  0  0  0  0
  5  6  1  0  0  0  0
  6  7  1  0  0  0  0
  7  8  2  0  0  0  0
  7  9  1  0  0  0  0
  6 10  1  0  0  0  0
  1 11  1  0  0  0  0
  1 12  1  0  0  0  0
  1 13  1  0  0  0  0
  4 14  1  0  0  0  0
  4 15  1  0  0  0  0
  5 16  1  0  0  0  0
  5 17  1  0  0  0  0
  6 18  1  0  0  0  0
  9 19  1  0  0  0  0
 10 20  1  0  0  0  0
 10 21  1  0  0  0  0
M  END
$$$$
