C9H13N
APtclcactv06211804433D 0   0.00000     0.00000
 
 23 23  0  0  0  0  0  0  0  0999 V2000
    2.8900    1.4699   -0.0439 C   0  0  0  0  0  0  0  0  0  0  0  0
    1.7939    0.4361   -0.0150 C   0  0  0  0  0  0  0  0  0  0  0  0
    0.4713    0.8328   -0.0219 C   0  0  0  0  0  0  0  0  0  0  0  0
   -0.5386   -0.1210    0.0047 C   0  0  0  0  0  0  0  0  0  0  0  0
   -0.2138   -1.4709    0.0382 C   0  0  0  0  0  0  0  0  0  0  0  0
    1.1113   -1.8609    0.0450 C   0  0  0  0  0  0  0  0  0  0  0  0
    2.1138   -0.9092    0.0127 C   0  0  0  0  0  0  0  0  0  0  0  0
   -1.8774    0.2769   -0.0018 N   0  0  0  0  0  0  0  0  0  0  0  0
   -2.2196    1.6984    0.0898 C   0  0  0  0  0  0  0  0  0  0  0  0
   -2.9395   -0.7273   -0.1001 C   0  0  0  0  0  0  0  0  0  0  0  0
    3.1567    1.7452    0.9765 H   0  0  0  0  0  0  0  0  0  0  0  0
    3.7638    1.0589   -0.5495 H   0  0  0  0  0  0  0  0  0  0  0  0
    2.5422    2.3532   -0.5795 H   0  0  0  0  0  0  0  0  0  0  0  0
    0.2222    1.8834   -0.0477 H   0  0  0  0  0  0  0  0  0  0  0  0
   -0.9964   -2.2149    0.0593 H   0  0  0  0  0  0  0  0  0  0  0  0
    1.3645   -2.9105    0.0711 H   0  0  0  0  0  0  0  0  0  0  0  0
    3.1490   -1.2168    0.0177 H   0  0  0  0  0  0  0  0  0  0  0  0
   -2.2780    2.1234   -0.9122 H   0  0  0  0  0  0  0  0  0  0  0  0
   -3.1828    1.8089    0.5880 H   0  0  0  0  0  0  0  0  0  0  0  0
   -1.4527    2.2206    0.6618 H   0  0  0  0  0  0  0  0  0  0  0  0
   -2.5007   -1.7246   -0.0685 H   0  0  0  0  0  0  0  0  0  0  0  0
   -3.6309   -0.6079    0.7341 H   0  0  0  0  0  0  0  0  0  0  0  0
   -3.4773   -0.5967   -1.0392 H   0  0  0  0  0  0  0  0  0  0  0  0
  1  2  1  0  0  0  0
  2  3  2  0  0  0  0
  3  4  1  0  0  0  0
  4  5  2  0  0  0  0
  5  6  1  0  0  0  0
  6  7  2  0  0  0  0
  2  7  1  0  0  0  0
  4  8  1  0  0  0  0
  8  9  1  0  0  0  0
  8 10  1  0  0  0  0
  1 11  1  0  0  0  0
  1 12  1  0  0  0  0
  1 13  1  0  0  0  0
  3 14  1  0  0  0  0
  5 15  1  0  0  0  0
  6 16  1  0  0  0  0
  7 17  1  0  0  0  0
  9 18  1  0  0  0  0
  9 19  1  0  0  0  0
  9 20  1  0  0  0  0
 10 21  1  0  0  0  0
 10 22  1  0  0  0  0
 10 23  1  0  0  0  0
M  END
$$$$
