C6H11NO2
APtclcactv06211804323D 0   0.00000     0.00000
 
 20 20  0  0  0  0  0  0  0  0999 V2000
   -1.8636    1.3175    0.0634 C   0  0  0  0  0  0  0  0  0  0  0  0
   -2.5602   -0.0255    0.2990 C   0  0  0  0  0  0  0  0  0  0  0  0
   -1.8625   -1.1084   -0.5271 C   0  0  0  0  0  0  0  0  0  0  0  0
   -0.4505   -1.1932   -0.1326 N   0  0  0  0  0  0  0  0  0  0  0  0
    0.2506    0.0704   -0.3937 C   0  0  0  0  0  0  0  0  0  0  0  0
   -0.3841    1.1885    0.4364 C   0  0  0  0  0  0  0  0  0  0  0  0
    1.7023   -0.0735   -0.0158 C   0  0  0  0  0  0  0  0  0  0  0  0
    2.0456   -0.9512    0.7403 O   0  0  0  0  0  0  0  0  0  0  0  0
    2.6140    0.7735   -0.5191 O   0  0  0  0  0  0  0  0  0  0  0  0
   -1.9516    1.5942   -0.9872 H   0  0  0  0  0  0  0  0  0  0  0  0
   -2.3299    2.0835    0.6831 H   0  0  0  0  0  0  0  0  0  0  0  0
   -2.5058   -0.2831    1.3567 H   0  0  0  0  0  0  0  0  0  0  0  0
   -3.6044    0.0479   -0.0050 H   0  0  0  0  0  0  0  0  0  0  0  0
   -2.3472   -2.0686   -0.3506 H   0  0  0  0  0  0  0  0  0  0  0  0
   -1.9293   -0.8571   -1.5857 H   0  0  0  0  0  0  0  0  0  0  0  0
   -0.3612   -1.4629    0.8356 H   0  0  0  0  0  0  0  0  0  0  0  0
    0.1738    0.3161   -1.4529 H   0  0  0  0  0  0  0  0  0  0  0  0
    0.1265    2.1293    0.2305 H   0  0  0  0  0  0  0  0  0  0  0  0
   -0.2954    0.9500    1.4963 H   0  0  0  0  0  0  0  0  0  0  0  0
    3.5327    0.6417   -0.2476 H   0  0  0  0  0  0  0  0  0  0  0  0
  1  2  1  0  0  0  0
  2  3  1  0  0  0  0
  3  4  1  0  0  0  0
  4  5  1  0  0  0  0
  5  6  1  0  0  0  0
  1  6  1  0  0  0  0
  5  7  1  0  0  0  0
  7  8  2  0  0  0  0
  7  9  1  0  0  0  0
  1 10  1  0  0  0  0
  1 11  1  0  0  0  0
  2 12  1  0  0  0  0
  2 13  1  0  0  0  0
  3 14  1  0  0  0  0
  3 15  1  0  0  0  0
  4 16  1  0  0  0  0
  5 17  1  0  0  0  0
  6 18  1  0  0  0  0
  6 19  1  0  0  0  0
  9 20  1  0  0  0  0
M  END
$$$$
