C9H10O
APtclcactv06211804433D 0   0.00000     0.00000
 
 20 20  0  0  0  0  0  0  0  0999 V2000
    3.6336   -0.0721    0.0014 C   0  0  0  0  0  0  0  0  0  0  0  0
    2.1271   -0.0306    0.0011 C   0  0  0  0  0  0  0  0  0  0  0  0
    1.4721    1.1887   -0.0003 C   0  0  0  0  0  0  0  0  0  0  0  0
    0.0940    1.2351   -0.0006 C   0  0  0  0  0  0  0  0  0  0  0  0
   -0.6419    0.0458    0.0000 C   0  0  0  0  0  0  0  0  0  0  0  0
    0.0274   -1.1822    0.0010 C   0  0  0  0  0  0  0  0  0  0  0  0
    1.4059   -1.2118   -0.0036 C   0  0  0  0  0  0  0  0  0  0  0  0
   -2.1130    0.0864    0.0002 C   0  0  0  0  0  0  0  0  0  0  0  0
   -2.6901    1.1528   -0.0003 O   0  0  0  0  0  0  0  0  0  0  0  0
   -2.9022   -1.1974    0.0009 C   0  0  0  0  0  0  0  0  0  0  0  0
    3.9966   -0.0810    1.0292 H   0  0  0  0  0  0  0  0  0  0  0  0
    3.9723   -0.9723   -0.5114 H   0  0  0  0  0  0  0  0  0  0  0  0
    4.0214    0.8070   -0.5133 H   0  0  0  0  0  0  0  0  0  0  0  0
    2.0419    2.1062   -0.0008 H   0  0  0  0  0  0  0  0  0  0  0  0
   -0.4157    2.1872   -0.0010 H   0  0  0  0  0  0  0  0  0  0  0  0
   -0.5341   -2.1048    0.0018 H   0  0  0  0  0  0  0  0  0  0  0  0
    1.9242   -2.1593   -0.0032 H   0  0  0  0  0  0  0  0  0  0  0  0
   -3.0924   -1.5065    1.0287 H   0  0  0  0  0  0  0  0  0  0  0  0
   -3.8507   -1.0411   -0.5129 H   0  0  0  0  0  0  0  0  0  0  0  0
   -2.3344   -1.9733   -0.5127 H   0  0  0  0  0  0  0  0  0  0  0  0
  1  2  1  0  0  0  0
  2  3  2  0  0  0  0
  3  4  1  0  0  0  0
  4  5  2  0  0  0  0
  5  6  1  0  0  0  0
  6  7  2  0  0  0  0
  2  7  1  0  0  0  0
  5  8  1  0  0  0  0
  8  9  2  0  0  0  0
  8 10  1  0  0  0  0
  1 11  1  0  0  0  0
  1 12  1  0  0  0  0
  1 13  1  0  0  0  0
  3 14  1  0  0  0  0
  4 15  1  0  0  0  0
  6 16  1  0  0  0  0
  7 17  1  0  0  0  0
 10 18  1  0  0  0  0
 10 19  1  0  0  0  0
 10 20  1  0  0  0  0
M  END
$$$$
