C19H22O6
APtclcactv06291803003D 0   0.00000     0.00000
 
 47 52  0  0  0  0  0  0  0  0999 V2000
   -3.0545    1.8186   -0.8311 C   0  0  0  0  0  0  0  0  0  0  0  0
   -2.3913    0.5164   -0.3767 C   0  0  0  0  0  0  0  0  0  0  0  0
   -0.9066    0.5710   -0.4117 C   0  0  0  0  0  0  0  0  0  0  0  0
    0.1252    1.1336    0.5131 C   0  0  0  0  0  0  0  0  0  0  0  0
    1.3774    0.3432    0.1064 C   0  0  0  0  0  0  0  0  0  0  0  0
    2.1637   -0.1049    1.3533 C   0  0  0  0  0  0  0  0  0  0  0  0
    3.4076   -0.7232    0.6525 C   0  0  0  0  0  0  0  0  0  0  0  0
    2.9628   -2.1201    0.2246 C   0  0  0  0  0  0  0  0  0  0  0  0
    1.7431   -2.0948   -0.6661 C   0  0  0  0  0  0  0  0  0  0  0  0
    0.8918   -0.8866   -0.6942 C   0  0  0  0  0  0  0  0  0  0  0  0
   -0.5804   -0.9773   -0.3758 C   0  0  0  0  0  0  0  0  0  0  0  0
   -0.7919   -1.4891    1.0410 C   0  0  0  0  0  0  0  0  0  0  0  0
   -2.1712   -1.1397    1.5943 C   0  0  0  0  0  0  0  0  0  0  0  0
   -2.9597   -0.0021    0.9444 C   0  0  0  0  0  0  0  0  0  0  0  0
   -2.2697    0.1784    2.1662 O   0  0  0  0  0  0  0  0  0  0  0  0
   -0.6608   -2.9122    1.0472 O   0  0  0  0  0  0  0  0  0  0  0  0
   -1.5378   -1.4759   -1.3088 O   0  0  0  0  0  0  0  0  0  0  0  0
   -2.6126   -0.6427   -1.3827 C   0  0  0  0  0  0  0  0  0  0  0  0
   -3.5707   -0.7747   -2.1032 O   0  0  0  0  0  0  0  0  0  0  0  0
    3.6627    0.1569   -0.5567 C   0  0  0  0  0  0  0  0  0  0  0  0
    4.7282    0.1525   -1.3168 C   0  0  0  0  0  0  0  0  0  0  0  0
    2.4362    1.0585   -0.7253 C   0  0  0  0  0  0  0  0  0  0  0  0
    0.2868    2.6128    0.2998 C   0  0  0  0  0  0  0  0  0  0  0  0
    0.1291    3.0852   -0.8010 O   0  0  0  0  0  0  0  0  0  0  0  0
    0.6063    3.4088    1.3323 O   0  0  0  0  0  0  0  0  0  0  0  0
   -2.7577    2.0390   -1.8565 H   0  0  0  0  0  0  0  0  0  0  0  0
   -4.1381    1.7110   -0.7816 H   0  0  0  0  0  0  0  0  0  0  0  0
   -2.7401    2.6333   -0.1787 H   0  0  0  0  0  0  0  0  0  0  0  0
   -0.6265    0.8917   -1.4207 H   0  0  0  0  0  0  0  0  0  0  0  0
   -0.1371    0.9259    1.5522 H   0  0  0  0  0  0  0  0  0  0  0  0
    2.4473    0.7510    1.9713 H   0  0  0  0  0  0  0  0  0  0  0  0
    1.6314   -0.8479    1.9406 H   0  0  0  0  0  0  0  0  0  0  0  0
    4.2690   -0.7605    1.3142 H   0  0  0  0  0  0  0  0  0  0  0  0
    3.7794   -2.6041   -0.3066 H   0  0  0  0  0  0  0  0  0  0  0  0
    2.7304   -2.6996    1.1175 H   0  0  0  0  0  0  0  0  0  0  0  0
    2.0933   -2.2646   -1.6898 H   0  0  0  0  0  0  0  0  0  0  0  0
    1.1206   -2.9474   -0.4052 H   0  0  0  0  0  0  0  0  0  0  0  0
    0.9244   -0.5549   -1.7530 H   0  0  0  0  0  0  0  0  0  0  0  0
   -0.0434   -1.0632    1.7010 H   0  0  0  0  0  0  0  0  0  0  0  0
   -2.7218   -1.9484    2.0620 H   0  0  0  0  0  0  0  0  0  0  0  0
   -4.0511   -0.0639    0.9884 H   0  0  0  0  0  0  0  0  0  0  0  0
   -0.7826   -3.3146    1.9180 H   0  0  0  0  0  0  0  0  0  0  0  0
    5.5394   -0.5285   -1.1055 H   0  0  0  0  0  0  0  0  0  0  0  0
    4.7963    0.8298   -2.1552 H   0  0  0  0  0  0  0  0  0  0  0  0
    2.1374    1.1037   -1.7686 H   0  0  0  0  0  0  0  0  0  0  0  0
    2.6643    2.0440   -0.3310 H   0  0  0  0  0  0  0  0  0  0  0  0
    0.6994    4.3531    1.1462 H   0  0  0  0  0  0  0  0  0  0  0  0
  1  2  1  0  0  0  0
  2  3  1  0  0  0  0
  3  4  1  0  0  0  0
  4  5  1  0  0  0  0
  5  6  1  0  0  0  0
  6  7  1  0  0  0  0
  7  8  1  0  0  0  0
  8  9  1  0  0  0  0
  9 10  1  0  0  0  0
  5 10  1  0  0  0  0
 10 11  1  0  0  0  0
  3 11  1  0  0  0  0
 11 12  1  0  0  0  0
 12 13  1  0  0  0  0
 13 14  1  0  0  0  0
  2 14  1  0  0  0  0
 14 15  1  0  0  0  0
 13 15  1  0  0  0  0
 12 16  1  0  0  0  0
 11 17  1  0  0  0  0
 17 18  1  0  0  0  0
  2 18  1  0  0  0  0
 18 19  2  0  0  0  0
  7 20  1  0  0  0  0
 20 21  2  0  0  0  0
 20 22  1  0  0  0  0
  5 22  1  0  0  0  0
  4 23  1  0  0  0  0
 23 24  2  0  0  0  0
 23 25  1  0  0  0  0
  1 26  1  0  0  0  0
  1 27  1  0  0  0  0
  1 28  1  0  0  0  0
  3 29  1  0  0  0  0
  4 30  1  0  0  0  0
  6 31  1  0  0  0  0
  6 32  1  0  0  0  0
  7 33  1  0  0  0  0
  8 34  1  0  0  0  0
  8 35  1  0  0  0  0
  9 36  1  0  0  0  0
  9 37  1  0  0  0  0
 10 38  1  0  0  0  0
 12 39  1  0  0  0  0
 13 40  1  0  0  0  0
 14 41  1  0  0  0  0
 16 42  1  0  0  0  0
 21 43  1  0  0  0  0
 21 44  1  0  0  0  0
 22 45  1  0  0  0  0
 22 46  1  0  0  0  0
 25 47  1  0  0  0  0
M  END
$$$$
