C3H7NO2Se
APtclcactv06211804323D 0   0.00000     0.00000
 
 14 13  0  0  0  0  0  0  0  0999 V2000
    0.0421    0.4449   -0.5655 C   0  0  0  0  0  0  0  0  0  0  0  0
   -0.9381   -0.2168    0.4053 C   0  0  0  0  0  0  0  0  0  0  0  0
   -2.3485    0.1557    0.0269 C   0  0  0  0  0  0  0  0  0  0  0  0
   -3.0299   -0.6191   -0.6018 O   0  0  0  0  0  0  0  0  0  0  0  0
   -2.8477    1.3481    0.3883 O   0  0  0  0  0  0  0  0  0  0  0  0
   -0.7826   -1.6760    0.3394 N   0  0  0  0  0  0  0  0  0  0  0  0
    1.8792    0.0924    0.0194 Se  0  0  0  0  0  0  0  0  0  0  0  0
    2.6913    0.8387   -1.0838 H   0  0  0  0  0  0  0  0  0  0  0  0
   -0.1056    0.0368   -1.5653 H   0  0  0  0  0  0  0  0  0  0  0  0
   -0.1337    1.5205   -0.5824 H   0  0  0  0  0  0  0  0  0  0  0  0
   -0.7317    0.1252    1.4195 H   0  0  0  0  0  0  0  0  0  0  0  0
   -3.7570    1.5421    0.1227 H   0  0  0  0  0  0  0  0  0  0  0  0
   -1.3732   -2.1336    1.0175 H   0  0  0  0  0  0  0  0  0  0  0  0
   -0.9687   -2.0178   -0.5915 H   0  0  0  0  0  0  0  0  0  0  0  0
  1  2  1  0  0  0  0
  2  3  1  0  0  0  0
  3  4  2  0  0  0  0
  3  5  1  0  0  0  0
  2  6  1  0  0  0  0
  1  7  1  0  0  0  0
  7  8  1  0  0  0  0
  1  9  1  0  0  0  0
  1 10  1  0  0  0  0
  2 11  1  0  0  0  0
  5 12  1  0  0  0  0
  6 13  1  0  0  0  0
  6 14  1  0  0  0  0
M  END
$$$$
