C16H18O9
APtclcactv06291803003D 0   0.00000     0.00000
 
 43 45  0  0  0  0  0  0  0  0999 V2000
    1.9070    3.8740   -0.1264 C   0  0  0  0  0  0  0  0  0  0  0  0
    2.2489    2.4083   -0.0502 C   0  0  0  0  0  0  0  0  0  0  0  0
    3.5440    2.0513   -0.0109 C   0  0  0  0  0  0  0  0  0  0  0  0
    3.8914    0.6746    0.0611 C   0  0  0  0  0  0  0  0  0  0  0  0
    5.0561    0.3145    0.0988 O   0  0  0  0  0  0  0  0  0  0  0  0
    2.7874   -0.2978    0.0888 C   0  0  0  0  0  0  0  0  0  0  0  0
    1.4690    0.1888    0.0429 C   0  0  0  0  0  0  0  0  0  0  0  0
    1.2501    1.5187   -0.0192 O   0  0  0  0  0  0  0  0  0  0  0  0
    0.4112   -0.7070    0.0677 C   0  0  0  0  0  0  0  0  0  0  0  0
    0.6577   -2.0691    0.1377 C   0  0  0  0  0  0  0  0  0  0  0  0
    1.9610   -2.5531    0.1832 C   0  0  0  0  0  0  0  0  0  0  0  0
    3.0291   -1.6758    0.1586 C   0  0  0  0  0  0  0  0  0  0  0  0
    4.3013   -2.1458    0.2030 O   0  0  0  0  0  0  0  0  0  0  0  0
   -0.3834   -2.9398    0.1624 O   0  0  0  0  0  0  0  0  0  0  0  0
   -1.0070   -0.1996    0.0190 C   0  0  0  0  0  0  0  0  0  0  0  0
   -1.5897   -0.4457   -1.3751 C   0  0  0  0  0  0  0  0  0  0  0  0
   -3.0496    0.0175   -1.3987 C   0  0  0  0  0  0  0  0  0  0  0  0
   -3.8262   -0.7223   -0.3051 C   0  0  0  0  0  0  0  0  0  0  0  0
   -3.1571   -0.4655    1.0477 C   0  0  0  0  0  0  0  0  0  0  0  0
   -1.7938   -0.8903    0.9916 O   0  0  0  0  0  0  0  0  0  0  0  0
   -3.2128    1.0294    1.3689 C   0  0  0  0  0  0  0  0  0  0  0  0
   -2.7280    1.2501    2.6949 O   0  0  0  0  0  0  0  0  0  0  0  0
   -5.1728   -0.2453   -0.2700 O   0  0  0  0  0  0  0  0  0  0  0  0
   -3.1086    1.4248   -1.1582 O   0  0  0  0  0  0  0  0  0  0  0  0
   -0.8394    0.2905   -2.3431 O   0  0  0  0  0  0  0  0  0  0  0  0
    1.8421    4.1781   -1.1711 H   0  0  0  0  0  0  0  0  0  0  0  0
    0.9491    4.0496    0.3632 H   0  0  0  0  0  0  0  0  0  0  0  0
    2.6824    4.4545    0.3735 H   0  0  0  0  0  0  0  0  0  0  0  0
    4.3164    2.8059   -0.0343 H   0  0  0  0  0  0  0  0  0  0  0  0
    2.1390   -3.6169    0.2376 H   0  0  0  0  0  0  0  0  0  0  0  0
    4.6850   -2.3249   -0.6664 H   0  0  0  0  0  0  0  0  0  0  0  0
   -0.6704   -3.2347   -0.7127 H   0  0  0  0  0  0  0  0  0  0  0  0
   -1.0183    0.8689    0.2343 H   0  0  0  0  0  0  0  0  0  0  0  0
   -1.5413   -1.5095   -1.6075 H   0  0  0  0  0  0  0  0  0  0  0  0
   -3.4873   -0.2062   -2.3716 H   0  0  0  0  0  0  0  0  0  0  0  0
   -3.8230   -1.7917   -0.5160 H   0  0  0  0  0  0  0  0  0  0  0  0
   -3.6803   -1.0240    1.8238 H   0  0  0  0  0  0  0  0  0  0  0  0
   -2.5923    1.5769    0.6594 H   0  0  0  0  0  0  0  0  0  0  0  0
   -4.2428    1.3786    1.2958 H   0  0  0  0  0  0  0  0  0  0  0  0
   -2.7347    2.1780    2.9668 H   0  0  0  0  0  0  0  0  0  0  0  0
   -5.6565   -0.3715   -1.0978 H   0  0  0  0  0  0  0  0  0  0  0  0
   -4.0052    1.7868   -1.1593 H   0  0  0  0  0  0  0  0  0  0  0  0
   -1.1541    0.1811   -3.2509 H   0  0  0  0  0  0  0  0  0  0  0  0
  1  2  1  0  0  0  0
  2  3  2  0  0  0  0
  3  4  1  0  0  0  0
  4  5  2  0  0  0  0
  4  6  1  0  0  0  0
  6  7  2  0  0  0  0
  7  8  1  0  0  0  0
  2  8  1  0  0  0  0
  7  9  1  0  0  0  0
  9 10  2  0  0  0  0
 10 11  1  0  0  0  0
 11 12  2  0  0  0  0
  6 12  1  0  0  0  0
 12 13  1  0  0  0  0
 10 14  1  0  0  0  0
  9 15  1  0  0  0  0
 15 16  1  0  0  0  0
 16 17  1  0  0  0  0
 17 18  1  0  0  0  0
 18 19  1  0  0  0  0
 19 20  1  0  0  0  0
 15 20  1  0  0  0  0
 19 21  1  0  0  0  0
 21 22  1  0  0  0  0
 18 23  1  0  0  0  0
 17 24  1  0  0  0  0
 16 25  1  0  0  0  0
  1 26  1  0  0  0  0
  1 27  1  0  0  0  0
  1 28  1  0  0  0  0
  3 29  1  0  0  0  0
 11 30  1  0  0  0  0
 13 31  1  0  0  0  0
 14 32  1  0  0  0  0
 15 33  1  0  0  0  0
 16 34  1  0  0  0  0
 17 35  1  0  0  0  0
 18 36  1  0  0  0  0
 19 37  1  0  0  0  0
 21 38  1  0  0  0  0
 21 39  1  0  0  0  0
 22 40  1  0  0  0  0
 23 41  1  0  0  0  0
 24 42  1  0  0  0  0
 25 43  1  0  0  0  0
M  END
$$$$
