C17H14O7
APtclcactv06291803003D 0   0.00000     0.00000
 
 38 42  0  0  0  0  0  0  0  0999 V2000
    6.1787    1.2865    0.3807 C   0  0  0  0  0  0  0  0  0  0  0  0
    5.6231   -0.0299    0.3635 O   0  0  0  0  0  0  0  0  0  0  0  0
    4.2995   -0.1376    0.0706 C   0  0  0  0  0  0  0  0  0  0  0  0
    3.6985   -1.3921    0.0379 C   0  0  0  0  0  0  0  0  0  0  0  0
    2.3449   -1.4967   -0.2526 C   0  0  0  0  0  0  0  0  0  0  0  0
    1.6138   -0.3670   -0.5086 C   0  0  0  0  0  0  0  0  0  0  0  0
    0.1505   -0.3635   -0.8046 C   0  0  0  0  0  0  0  0  0  0  0  0
   -0.3919    0.7997    0.0967 C   0  0  0  0  0  0  0  0  0  0  0  0
    0.0731    2.0873   -0.5361 C   0  0  0  0  0  0  0  0  0  0  0  0
    1.4834    2.0130   -0.7765 O   0  0  0  0  0  0  0  0  0  0  0  0
    2.2083    0.9031   -0.4942 C   0  0  0  0  0  0  0  0  0  0  0  0
    3.5571    1.0022   -0.1877 C   0  0  0  0  0  0  0  0  0  0  0  0
   -1.8379    0.4632    0.1096 C   0  0  0  0  0  0  0  0  0  0  0  0
   -2.9619    1.2477    0.3065 C   0  0  0  0  0  0  0  0  0  0  0  0
   -4.1751    0.5599    0.2604 C   0  0  0  0  0  0  0  0  0  0  0  0
   -4.2471   -0.8210    0.0323 C   0  0  0  0  0  0  0  0  0  0  0  0
   -3.1156   -1.6095   -0.1719 C   0  0  0  0  0  0  0  0  0  0  0  0
   -1.8997   -0.9242   -0.1336 C   0  0  0  0  0  0  0  0  0  0  0  0
   -0.6508   -1.4406   -0.3382 O   0  0  0  0  0  0  0  0  0  0  0  0
   -5.5484   -1.1973    0.0500 O   0  0  0  0  0  0  0  0  0  0  0  0
   -6.3044    0.0209   -0.1080 C   0  0  0  0  0  0  0  0  0  0  0  0
   -5.4313    1.0440    0.4134 O   0  0  0  0  0  0  0  0  0  0  0  0
    0.1487    0.6847    1.4144 O   0  0  0  0  0  0  0  0  0  0  0  0
    4.4331   -2.5097    0.2886 O   0  0  0  0  0  0  0  0  0  0  0  0
    6.0577    1.7448   -0.6009 H   0  0  0  0  0  0  0  0  0  0  0  0
    5.6633    1.8887    1.1288 H   0  0  0  0  0  0  0  0  0  0  0  0
    7.2390    1.2302    0.6271 H   0  0  0  0  0  0  0  0  0  0  0  0
    1.8697   -2.4662   -0.2770 H   0  0  0  0  0  0  0  0  0  0  0  0
   -0.0312   -0.1616   -1.8602 H   0  0  0  0  0  0  0  0  0  0  0  0
   -0.4497    2.2383   -1.4805 H   0  0  0  0  0  0  0  0  0  0  0  0
   -0.1384    2.9198    0.1350 H   0  0  0  0  0  0  0  0  0  0  0  0
    4.0313    1.9719   -0.1547 H   0  0  0  0  0  0  0  0  0  0  0  0
   -2.9038    2.3117    0.4828 H   0  0  0  0  0  0  0  0  0  0  0  0
   -3.1753   -2.6735   -0.3474 H   0  0  0  0  0  0  0  0  0  0  0  0
   -6.5202    0.2029   -1.1609 H   0  0  0  0  0  0  0  0  0  0  0  0
   -7.2275   -0.0246    0.4698 H   0  0  0  0  0  0  0  0  0  0  0  0
   -0.1479    1.3752    2.0229 H   0  0  0  0  0  0  0  0  0  0  0  0
    4.4559   -2.7644    1.2212 H   0  0  0  0  0  0  0  0  0  0  0  0
  1  2  1  0  0  0  0
  2  3  1  0  0  0  0
  3  4  2  0  0  0  0
  4  5  1  0  0  0  0
  5  6  2  0  0  0  0
  6  7  1  0  0  0  0
  7  8  1  0  0  0  0
  8  9  1  0  0  0  0
  9 10  1  0  0  0  0
 10 11  1  0  0  0  0
  6 11  1  0  0  0  0
 11 12  2  0  0  0  0
  3 12  1  0  0  0  0
  8 13  1  0  0  0  0
 13 14  2  0  0  0  0
 14 15  1  0  0  0  0
 15 16  2  0  0  0  0
 16 17  1  0  0  0  0
 17 18  2  0  0  0  0
 13 18  1  0  0  0  0
 18 19  1  0  0  0  0
  7 19  1  0  0  0  0
 16 20  1  0  0  0  0
 20 21  1  0  0  0  0
 21 22  1  0  0  0  0
 15 22  1  0  0  0  0
  8 23  1  0  0  0  0
  4 24  1  0  0  0  0
  1 25  1  0  0  0  0
  1 26  1  0  0  0  0
  1 27  1  0  0  0  0
  5 28  1  0  0  0  0
  7 29  1  0  0  0  0
  9 30  1  0  0  0  0
  9 31  1  0  0  0  0
 12 32  1  0  0  0  0
 14 33  1  0  0  0  0
 17 34  1  0  0  0  0
 21 35  1  0  0  0  0
 21 36  1  0  0  0  0
 23 37  1  0  0  0  0
 24 38  1  0  0  0  0
M  END
$$$$
