C20H24O5
APtclcactv06291803003D 0   0.00000     0.00000
 
 49 51  0  0  0  0  0  0  0  0999 V2000
    5.2549   -0.2513   -0.7034 C   0  0  0  0  0  0  0  0  0  0  0  0
    4.3792   -0.8263    0.4117 C   0  0  0  0  0  0  0  0  0  0  0  0
    4.8698   -0.3068    1.7646 C   0  0  0  0  0  0  0  0  0  0  0  0
    2.9504   -0.4002    0.1983 C   0  0  0  0  0  0  0  0  0  0  0  0
    1.9583   -1.3495    0.0222 C   0  0  0  0  0  0  0  0  0  0  0  0
    0.6259   -0.9633   -0.1577 C   0  0  0  0  0  0  0  0  0  0  0  0
    0.2673    0.3832   -0.1437 C   0  0  0  0  0  0  0  0  0  0  0  0
    1.2791    1.3299   -0.0346 C   0  0  0  0  0  0  0  0  0  0  0  0
    2.6182    0.9284    0.1598 C   0  0  0  0  0  0  0  0  0  0  0  0
    1.0985    2.7822   -0.1645 C   0  0  0  0  0  0  0  0  0  0  0  0
    2.0398    3.5280    0.0061 O   0  0  0  0  0  0  0  0  0  0  0  0
   -1.2146    0.6943   -0.2345 C   0  0  0  0  0  0  0  0  0  0  0  0
   -1.6041    2.0299    0.3594 C   0  0  0  0  0  0  0  0  0  0  0  0
   -3.1203    2.1758    0.5197 C   0  0  0  0  0  0  0  0  0  0  0  0
   -3.6692    1.0582    1.3969 C   0  0  0  0  0  0  0  0  0  0  0  0
   -3.4070   -0.2966    0.7220 C   0  0  0  0  0  0  0  0  0  0  0  0
   -1.9346   -0.4608    0.4573 C   0  0  0  0  0  0  0  0  0  0  0  0
   -1.5785   -1.7293   -0.2797 C   0  0  0  0  0  0  0  0  0  0  0  0
   -2.3860   -2.5068   -0.7249 O   0  0  0  0  0  0  0  0  0  0  0  0
   -0.2577   -1.9619   -0.4113 O   0  0  0  0  0  0  0  0  0  0  0  0
   -3.8589   -1.3930    1.7128 C   0  0  0  0  0  0  0  0  0  0  0  0
   -4.2741   -0.4141   -0.5307 C   0  0  0  0  0  0  0  0  0  0  0  0
   -1.5443    0.7012   -1.7107 C   0  0  0  0  0  0  0  0  0  0  0  0
   -0.6786    0.4824   -2.5237 O   0  0  0  0  0  0  0  0  0  0  0  0
    2.2810   -2.6685    0.0244 O   0  0  0  0  0  0  0  0  0  0  0  0
    6.2889   -0.5597   -0.5490 H   0  0  0  0  0  0  0  0  0  0  0  0
    4.9054   -0.6214   -1.6672 H   0  0  0  0  0  0  0  0  0  0  0  0
    5.1942    0.8369   -0.6884 H   0  0  0  0  0  0  0  0  0  0  0  0
    4.4399   -1.9145    0.3967 H   0  0  0  0  0  0  0  0  0  0  0  0
    4.8091    0.7814    1.7796 H   0  0  0  0  0  0  0  0  0  0  0  0
    4.2459   -0.7165    2.5590 H   0  0  0  0  0  0  0  0  0  0  0  0
    5.9038   -0.6152    1.9190 H   0  0  0  0  0  0  0  0  0  0  0  0
    3.3779    1.6871    0.2831 H   0  0  0  0  0  0  0  0  0  0  0  0
    0.1277    3.1857   -0.4118 H   0  0  0  0  0  0  0  0  0  0  0  0
   -1.1220    2.1756    1.3256 H   0  0  0  0  0  0  0  0  0  0  0  0
   -1.3071    2.8354   -0.3305 H   0  0  0  0  0  0  0  0  0  0  0  0
   -3.3273    3.1377    1.0061 H   0  0  0  0  0  0  0  0  0  0  0  0
   -3.6046    2.1795   -0.4516 H   0  0  0  0  0  0  0  0  0  0  0  0
   -3.1742    1.0769    2.3674 H   0  0  0  0  0  0  0  0  0  0  0  0
   -4.7414    1.1913    1.5338 H   0  0  0  0  0  0  0  0  0  0  0  0
   -1.4488   -0.5601    1.4629 H   0  0  0  0  0  0  0  0  0  0  0  0
   -4.9200   -1.2710    1.9304 H   0  0  0  0  0  0  0  0  0  0  0  0
   -3.6892   -2.3747    1.2706 H   0  0  0  0  0  0  0  0  0  0  0  0
   -3.2863   -1.3066    2.6362 H   0  0  0  0  0  0  0  0  0  0  0  0
   -4.0254    0.3915   -1.2216 H   0  0  0  0  0  0  0  0  0  0  0  0
   -4.0898   -1.3748   -1.0114 H   0  0  0  0  0  0  0  0  0  0  0  0
   -5.3257   -0.3426   -0.2528 H   0  0  0  0  0  0  0  0  0  0  0  0
   -2.5539    0.9017   -2.0376 H   0  0  0  0  0  0  0  0  0  0  0  0
    2.2476   -3.0801    0.8988 H   0  0  0  0  0  0  0  0  0  0  0  0
  1  2  1  0  0  0  0
  2  3  1  0  0  0  0
  2  4  1  0  0  0  0
  4  5  2  0  0  0  0
  5  6  1  0  0  0  0
  6  7  2  0  0  0  0
  7  8  1  0  0  0  0
  8  9  2  0  0  0  0
  4  9  1  0  0  0  0
  8 10  1  0  0  0  0
 10 11  2  0  0  0  0
  7 12  1  0  0  0  0
 12 13  1  0  0  0  0
 13 14  1  0  0  0  0
 14 15  1  0  0  0  0
 15 16  1  0  0  0  0
 16 17  1  0  0  0  0
 12 17  1  0  0  0  0
 17 18  1  0  0  0  0
 18 19  2  0  0  0  0
 18 20  1  0  0  0  0
  6 20  1  0  0  0  0
 16 21  1  0  0  0  0
 16 22  1  0  0  0  0
 12 23  1  0  0  0  0
 23 24  2  0  0  0  0
  5 25  1  0  0  0  0
  1 26  1  0  0  0  0
  1 27  1  0  0  0  0
  1 28  1  0  0  0  0
  2 29  1  0  0  0  0
  3 30  1  0  0  0  0
  3 31  1  0  0  0  0
  3 32  1  0  0  0  0
  9 33  1  0  0  0  0
 10 34  1  0  0  0  0
 13 35  1  0  0  0  0
 13 36  1  0  0  0  0
 14 37  1  0  0  0  0
 14 38  1  0  0  0  0
 15 39  1  0  0  0  0
 15 40  1  0  0  0  0
 17 41  1  0  0  0  0
 21 42  1  0  0  0  0
 21 43  1  0  0  0  0
 21 44  1  0  0  0  0
 22 45  1  0  0  0  0
 22 46  1  0  0  0  0
 22 47  1  0  0  0  0
 23 48  1  0  0  0  0
 25 49  1  0  0  0  0
M  END
$$$$
