C19H24O7
APtclcactv06291803013D 0   0.00000     0.00000
 
 50 54  0  0  0  0  0  0  0  0999 V2000
   -2.7801    2.1110   -0.8342 C   0  0  0  0  0  0  0  0  0  0  0  0
   -2.1809    0.7669   -0.4008 C   0  0  0  0  0  0  0  0  0  0  0  0
   -0.6889    0.7406   -0.5324 C   0  0  0  0  0  0  0  0  0  0  0  0
    0.3722    1.2053    0.4269 C   0  0  0  0  0  0  0  0  0  0  0  0
    1.5525    0.2851    0.0885 C   0  0  0  0  0  0  0  0  0  0  0  0
    2.1788   -0.2906    1.3737 C   0  0  0  0  0  0  0  0  0  0  0  0
    3.4018   -1.0217    0.7491 C   0  0  0  0  0  0  0  0  0  0  0  0
    2.8489   -2.3386    0.2106 C   0  0  0  0  0  0  0  0  0  0  0  0
    1.7380   -2.1337   -0.7921 C   0  0  0  0  0  0  0  0  0  0  0  0
    0.9870   -0.8607   -0.7824 C   0  0  0  0  0  0  0  0  0  0  0  0
   -0.4883   -0.8321   -0.4991 C   0  0  0  0  0  0  0  0  0  0  0  0
   -0.7911   -1.3118    0.9198 C   0  0  0  0  0  0  0  0  0  0  0  0
   -2.2587   -1.0981    1.2795 C   0  0  0  0  0  0  0  0  0  0  0  0
   -2.6792    0.3381    0.9756 C   0  0  0  0  0  0  0  0  0  0  0  0
   -2.1813    1.2216    1.9838 O   0  0  0  0  0  0  0  0  0  0  0  0
   -3.0844   -2.0300    0.5827 O   0  0  0  0  0  0  0  0  0  0  0  0
   -0.4944   -2.7078    1.0275 O   0  0  0  0  0  0  0  0  0  0  0  0
   -1.4987   -1.2522   -1.4130 O   0  0  0  0  0  0  0  0  0  0  0  0
   -2.5289   -0.3583   -1.3985 C   0  0  0  0  0  0  0  0  0  0  0  0
   -3.5395   -0.4273   -2.0547 O   0  0  0  0  0  0  0  0  0  0  0  0
    3.8606   -0.1275   -0.3882 C   0  0  0  0  0  0  0  0  0  0  0  0
    4.9949   -0.2075   -1.0367 C   0  0  0  0  0  0  0  0  0  0  0  0
    2.7462    0.8913   -0.6388 C   0  0  0  0  0  0  0  0  0  0  0  0
    0.6965    2.6559    0.1949 C   0  0  0  0  0  0  0  0  0  0  0  0
    0.6246    3.1205   -0.9181 O   0  0  0  0  0  0  0  0  0  0  0  0
    1.0658    3.4341    1.2244 O   0  0  0  0  0  0  0  0  0  0  0  0
   -2.5299    2.3007   -1.8780 H   0  0  0  0  0  0  0  0  0  0  0  0
   -3.8636    2.0795   -0.7202 H   0  0  0  0  0  0  0  0  0  0  0  0
   -2.3723    2.9079   -0.2122 H   0  0  0  0  0  0  0  0  0  0  0  0
   -0.4227    1.0941   -1.5354 H   0  0  0  0  0  0  0  0  0  0  0  0
    0.0581    1.0518    1.4608 H   0  0  0  0  0  0  0  0  0  0  0  0
    2.4994    0.5062    2.0489 H   0  0  0  0  0  0  0  0  0  0  0  0
    1.5200   -0.9902    1.8814 H   0  0  0  0  0  0  0  0  0  0  0  0
    4.1921   -1.1847    1.4777 H   0  0  0  0  0  0  0  0  0  0  0  0
    3.6568   -2.8906   -0.2663 H   0  0  0  0  0  0  0  0  0  0  0  0
    2.4656   -2.9243    1.0451 H   0  0  0  0  0  0  0  0  0  0  0  0
    2.1807   -2.2398   -1.7874 H   0  0  0  0  0  0  0  0  0  0  0  0
    1.0281   -2.9509   -0.6780 H   0  0  0  0  0  0  0  0  0  0  0  0
    1.0716   -0.4834   -1.8190 H   0  0  0  0  0  0  0  0  0  0  0  0
   -0.1779   -0.7672    1.6363 H   0  0  0  0  0  0  0  0  0  0  0  0
   -2.3775   -1.2772    2.3594 H   0  0  0  0  0  0  0  0  0  0  0  0
   -3.7789    0.3941    0.9877 H   0  0  0  0  0  0  0  0  0  0  0  0
   -2.4989    1.0205    2.8748 H   0  0  0  0  0  0  0  0  0  0  0  0
   -4.0280   -1.9392    0.7741 H   0  0  0  0  0  0  0  0  0  0  0  0
   -0.6637   -3.0795    1.9040 H   0  0  0  0  0  0  0  0  0  0  0  0
    5.7137   -0.9701   -0.7754 H   0  0  0  0  0  0  0  0  0  0  0  0
    5.2119    0.4891   -1.8330 H   0  0  0  0  0  0  0  0  0  0  0  0
    2.5430    0.9776   -1.7030 H   0  0  0  0  0  0  0  0  0  0  0  0
    3.0407    1.8464   -0.2119 H   0  0  0  0  0  0  0  0  0  0  0  0
    1.2642    4.3595    1.0262 H   0  0  0  0  0  0  0  0  0  0  0  0
  1  2  1  0  0  0  0
  2  3  1  0  0  0  0
  3  4  1  0  0  0  0
  4  5  1  0  0  0  0
  5  6  1  0  0  0  0
  6  7  1  0  0  0  0
  7  8  1  0  0  0  0
  8  9  1  0  0  0  0
  9 10  1  0  0  0  0
  5 10  1  0  0  0  0
 10 11  1  0  0  0  0
  3 11  1  0  0  0  0
 11 12  1  0  0  0  0
 12 13  1  0  0  0  0
 13 14  1  0  0  0  0
  2 14  1  0  0  0  0
 14 15  1  0  0  0  0
 13 16  1  0  0  0  0
 12 17  1  0  0  0  0
 11 18  1  0  0  0  0
 18 19  1  0  0  0  0
  2 19  1  0  0  0  0
 19 20  2  0  0  0  0
  7 21  1  0  0  0  0
 21 22  2  0  0  0  0
 21 23  1  0  0  0  0
  5 23  1  0  0  0  0
  4 24  1  0  0  0  0
 24 25  2  0  0  0  0
 24 26  1  0  0  0  0
  1 27  1  0  0  0  0
  1 28  1  0  0  0  0
  1 29  1  0  0  0  0
  3 30  1  0  0  0  0
  4 31  1  0  0  0  0
  6 32  1  0  0  0  0
  6 33  1  0  0  0  0
  7 34  1  0  0  0  0
  8 35  1  0  0  0  0
  8 36  1  0  0  0  0
  9 37  1  0  0  0  0
  9 38  1  0  0  0  0
 10 39  1  0  0  0  0
 12 40  1  0  0  0  0
 13 41  1  0  0  0  0
 14 42  1  0  0  0  0
 15 43  1  0  0  0  0
 16 44  1  0  0  0  0
 17 45  1  0  0  0  0
 22 46  1  0  0  0  0
 22 47  1  0  0  0  0
 23 48  1  0  0  0  0
 23 49  1  0  0  0  0
 26 50  1  0  0  0  0
M  END
$$$$
