C22H34O8
APtclcactv06291803013D 0   0.00000     0.00000
 
 64 68  0  0  0  0  0  0  0  0999 V2000
    4.3075    0.1997    1.6487 C   0  0  0  0  0  0  0  0  0  0  0  0
    2.9408    0.8049    1.3218 C   0  0  0  0  0  0  0  0  0  0  0  0
    3.1246    1.9298    0.3088 C   0  0  0  0  0  0  0  0  0  0  0  0
    1.7775    2.5031   -0.1650 C   0  0  0  0  0  0  0  0  0  0  0  0
    0.9931    1.3501   -0.7571 C   0  0  0  0  0  0  0  0  0  0  0  0
   -0.4314    1.6315   -1.2275 C   0  0  0  0  0  0  0  0  0  0  0  0
   -1.2741    2.1879   -0.0642 C   0  0  0  0  0  0  0  0  0  0  0  0
   -1.1980    1.3167    1.1893 C   0  0  0  0  0  0  0  0  0  0  0  0
   -1.5763   -0.1539    0.9197 C   0  0  0  0  0  0  0  0  0  0  0  0
   -2.8630   -0.3010    0.0999 C   0  0  0  0  0  0  0  0  0  0  0  0
   -2.4993    0.3383   -1.2529 C   0  0  0  0  0  0  0  0  0  0  0  0
   -0.9701    0.1599   -1.3994 C   0  0  0  0  0  0  0  0  0  0  0  0
   -0.4372   -0.5215   -0.0977 C   0  0  0  0  0  0  0  0  0  0  0  0
    0.7154    0.3589    0.4022 C   0  0  0  0  0  0  0  0  0  0  0  0
    2.0173   -0.3029    0.7821 C   0  0  0  0  0  0  0  0  0  0  0  0
    2.6172   -0.9239   -0.3853 O   0  0  0  0  0  0  0  0  0  0  0  0
    3.3713   -2.0143   -0.1757 C   0  0  0  0  0  0  0  0  0  0  0  0
    3.5251   -2.4360    0.9461 O   0  0  0  0  0  0  0  0  0  0  0  0
    4.0263   -2.7126   -1.3395 C   0  0  0  0  0  0  0  0  0  0  0  0
    0.2190    1.1640    1.4972 O   0  0  0  0  0  0  0  0  0  0  0  0
   -0.1445   -1.9152   -0.2161 O   0  0  0  0  0  0  0  0  0  0  0  0
   -0.5726   -0.4744   -2.6166 O   0  0  0  0  0  0  0  0  0  0  0  0
   -3.2215   -1.7774   -0.0805 C   0  0  0  0  0  0  0  0  0  0  0  0
   -3.8696   -2.3051    1.2011 C   0  0  0  0  0  0  0  0  0  0  0  0
   -4.2016   -1.9255   -1.2460 C   0  0  0  0  0  0  0  0  0  0  0  0
   -3.9383    0.4078    0.7189 O   0  0  0  0  0  0  0  0  0  0  0  0
   -1.5795   -1.0107    2.1873 C   0  0  0  0  0  0  0  0  0  0  0  0
   -1.9446    1.8737    2.2729 O   0  0  0  0  0  0  0  0  0  0  0  0
   -0.4986    2.4905   -2.4918 C   0  0  0  0  0  0  0  0  0  0  0  0
    1.7445    0.7236   -1.7988 O   0  0  0  0  0  0  0  0  0  0  0  0
    4.9549    0.9697    2.0683 H   0  0  0  0  0  0  0  0  0  0  0  0
    4.1845   -0.6057    2.3727 H   0  0  0  0  0  0  0  0  0  0  0  0
    4.7569   -0.1960    0.7379 H   0  0  0  0  0  0  0  0  0  0  0  0
    2.5068    1.2151    2.2336 H   0  0  0  0  0  0  0  0  0  0  0  0
    3.7081    2.7281    0.7673 H   0  0  0  0  0  0  0  0  0  0  0  0
    3.6691    1.5450   -0.5535 H   0  0  0  0  0  0  0  0  0  0  0  0
    1.2353    2.9271    0.6802 H   0  0  0  0  0  0  0  0  0  0  0  0
    1.9444    3.2682   -0.9233 H   0  0  0  0  0  0  0  0  0  0  0  0
   -0.9184    3.1887    0.1808 H   0  0  0  0  0  0  0  0  0  0  0  0
   -2.3141    2.2548   -0.3835 H   0  0  0  0  0  0  0  0  0  0  0  0
   -3.0178   -0.1742   -2.0633 H   0  0  0  0  0  0  0  0  0  0  0  0
   -2.7566    1.3975   -1.2504 H   0  0  0  0  0  0  0  0  0  0  0  0
    1.8427   -1.0515    1.5549 H   0  0  0  0  0  0  0  0  0  0  0  0
    4.6989   -2.0208   -1.8465 H   0  0  0  0  0  0  0  0  0  0  0  0
    4.5930   -3.5701   -0.9765 H   0  0  0  0  0  0  0  0  0  0  0  0
    3.2607   -3.0521   -2.0371 H   0  0  0  0  0  0  0  0  0  0  0  0
   -0.8410   -2.4280   -0.6485 H   0  0  0  0  0  0  0  0  0  0  0  0
   -0.8661   -1.3924   -2.6958 H   0  0  0  0  0  0  0  0  0  0  0  0
   -2.3170   -2.3478   -0.2917 H   0  0  0  0  0  0  0  0  0  0  0  0
   -4.0296   -3.3795    1.1115 H   0  0  0  0  0  0  0  0  0  0  0  0
   -3.2144   -2.1047    2.0487 H   0  0  0  0  0  0  0  0  0  0  0  0
   -4.8267   -1.8069    1.3559 H   0  0  0  0  0  0  0  0  0  0  0  0
   -3.6943   -1.6846   -2.1802 H   0  0  0  0  0  0  0  0  0  0  0  0
   -4.5671   -2.9516   -1.2852 H   0  0  0  0  0  0  0  0  0  0  0  0
   -5.0416   -1.2458   -1.1029 H   0  0  0  0  0  0  0  0  0  0  0  0
   -4.7764    0.3473    0.2403 H   0  0  0  0  0  0  0  0  0  0  0  0
   -2.4376   -0.7437    2.8041 H   0  0  0  0  0  0  0  0  0  0  0  0
   -1.6422   -2.0639    1.9137 H   0  0  0  0  0  0  0  0  0  0  0  0
   -0.6609   -0.8347    2.7470 H   0  0  0  0  0  0  0  0  0  0  0  0
   -1.6535    2.7569    2.5382 H   0  0  0  0  0  0  0  0  0  0  0  0
   -0.0038    1.9698   -3.3116 H   0  0  0  0  0  0  0  0  0  0  0  0
   -1.5413    2.6716   -2.7531 H   0  0  0  0  0  0  0  0  0  0  0  0
    0.0012    3.4422   -2.3115 H   0  0  0  0  0  0  0  0  0  0  0  0
    1.9069    1.2928   -2.5635 H   0  0  0  0  0  0  0  0  0  0  0  0
  1  2  1  0  0  0  0
  2  3  1  0  0  0  0
  3  4  1  0  0  0  0
  4  5  1  0  0  0  0
  5  6  1  0  0  0  0
  6  7  1  0  0  0  0
  7  8  1  0  0  0  0
  8  9  1  0  0  0  0
  9 10  1  0  0  0  0
 10 11  1  0  0  0  0
 11 12  1  0  0  0  0
  6 12  1  0  0  0  0
 12 13  1  0  0  0  0
  9 13  1  0  0  0  0
 13 14  1  0  0  0  0
  5 14  1  0  0  0  0
 14 15  1  0  0  0  0
  2 15  1  0  0  0  0
 15 16  1  0  0  0  0
 16 17  1  0  0  0  0
 17 18  2  0  0  0  0
 17 19  1  0  0  0  0
 14 20  1  0  0  0  0
  8 20  1  0  0  0  0
 13 21  1  0  0  0  0
 12 22  1  0  0  0  0
 10 23  1  0  0  0  0
 23 24  1  0  0  0  0
 23 25  1  0  0  0  0
 10 26  1  0  0  0  0
  9 27  1  0  0  0  0
  8 28  1  0  0  0  0
  6 29  1  0  0  0  0
  5 30  1  0  0  0  0
  1 31  1  0  0  0  0
  1 32  1  0  0  0  0
  1 33  1  0  0  0  0
  2 34  1  0  0  0  0
  3 35  1  0  0  0  0
  3 36  1  0  0  0  0
  4 37  1  0  0  0  0
  4 38  1  0  0  0  0
  7 39  1  0  0  0  0
  7 40  1  0  0  0  0
 11 41  1  0  0  0  0
 11 42  1  0  0  0  0
 15 43  1  0  0  0  0
 19 44  1  0  0  0  0
 19 45  1  0  0  0  0
 19 46  1  0  0  0  0
 21 47  1  0  0  0  0
 22 48  1  0  0  0  0
 23 49  1  0  0  0  0
 24 50  1  0  0  0  0
 24 51  1  0  0  0  0
 24 52  1  0  0  0  0
 25 53  1  0  0  0  0
 25 54  1  0  0  0  0
 25 55  1  0  0  0  0
 26 56  1  0  0  0  0
 27 57  1  0  0  0  0
 27 58  1  0  0  0  0
 27 59  1  0  0  0  0
 28 60  1  0  0  0  0
 29 61  1  0  0  0  0
 29 62  1  0  0  0  0
 29 63  1  0  0  0  0
 30 64  1  0  0  0  0
M  END
$$$$
