C6H10S2
APtclcactv06291803013D 0   0.00000     0.00000
 
 18 19  0  0  0  0  0  0  0  0999 V2000
    1.8891    1.6758   -0.3588 C   0  0  0  0  0  0  0  0  0  0  0  0
    1.1288    0.3807   -0.6516 C   0  0  0  0  0  0  0  0  0  0  0  0
    1.0955   -0.5249    0.6068 C   0  0  0  0  0  0  0  0  0  0  0  0
   -0.4337   -0.6719    0.9383 C   0  0  0  0  0  0  0  0  0  0  0  0
   -1.0191    1.0565    0.7333 S   0  0  0  0  0  0  0  0  0  0  0  0
   -0.3837    0.6866   -0.9494 C   0  0  0  0  0  0  0  0  0  0  0  0
   -1.2848   -0.9012   -0.6826 S   0  0  0  0  0  0  0  0  0  0  0  0
    1.7100   -1.8918    0.2987 C   0  0  0  0  0  0  0  0  0  0  0  0
    2.9118    1.4384   -0.0659 H   0  0  0  0  0  0  0  0  0  0  0  0
    1.9026    2.2992   -1.2528 H   0  0  0  0  0  0  0  0  0  0  0  0
    1.3944    2.2123    0.4509 H   0  0  0  0  0  0  0  0  0  0  0  0
    1.5851   -0.1471   -1.4891 H   0  0  0  0  0  0  0  0  0  0  0  0
    1.6207   -0.0475    1.4340 H   0  0  0  0  0  0  0  0  0  0  0  0
   -0.7223   -1.2617    1.8083 H   0  0  0  0  0  0  0  0  0  0  0  0
   -0.6268    1.3310   -1.7942 H   0  0  0  0  0  0  0  0  0  0  0  0
    2.7451   -1.7620   -0.0171 H   0  0  0  0  0  0  0  0  0  0  0  0
    1.6782   -2.5143    1.1929 H   0  0  0  0  0  0  0  0  0  0  0  0
    1.1443   -2.3730   -0.4992 H   0  0  0  0  0  0  0  0  0  0  0  0
  1  2  1  0  0  0  0
  2  3  1  0  0  0  0
  3  4  1  0  0  0  0
  4  5  1  0  0  0  0
  5  6  1  0  0  0  0
  2  6  1  0  0  0  0
  6  7  1  0  0  0  0
  4  7  1  0  0  0  0
  3  8  1  0  0  0  0
  1  9  1  0  0  0  0
  1 10  1  0  0  0  0
  1 11  1  0  0  0  0
  2 12  1  0  0  0  0
  3 13  1  0  0  0  0
  4 14  1  0  0  0  0
  6 15  1  0  0  0  0
  8 16  1  0  0  0  0
  8 17  1  0  0  0  0
  8 18  1  0  0  0  0
M  END
$$$$
