C31H64O
APtclcactv06291803013D 0   0.00000     0.00000
 
 96 95  0  0  0  0  0  0  0  0999 V2000
   18.8105    0.5972    0.1372 C   0  0  0  0  0  0  0  0  0  0  0  0
   17.5602   -0.1788    0.5562 C   0  0  0  0  0  0  0  0  0  0  0  0
   16.3140    0.5505    0.0504 C   0  0  0  0  0  0  0  0  0  0  0  0
   15.0637   -0.2255    0.4693 C   0  0  0  0  0  0  0  0  0  0  0  0
   13.8174    0.5038   -0.0365 C   0  0  0  0  0  0  0  0  0  0  0  0
   12.5672   -0.2722    0.3825 C   0  0  0  0  0  0  0  0  0  0  0  0
   11.3209    0.4571   -0.1233 C   0  0  0  0  0  0  0  0  0  0  0  0
   10.0706   -0.3189    0.2956 C   0  0  0  0  0  0  0  0  0  0  0  0
    8.8244    0.4104   -0.2102 C   0  0  0  0  0  0  0  0  0  0  0  0
    7.5741   -0.3657    0.2088 C   0  0  0  0  0  0  0  0  0  0  0  0
    6.3278    0.3636   -0.2971 C   0  0  0  0  0  0  0  0  0  0  0  0
    5.0776   -0.4124    0.1219 C   0  0  0  0  0  0  0  0  0  0  0  0
    3.8313    0.3169   -0.3839 C   0  0  0  0  0  0  0  0  0  0  0  0
    2.5810   -0.4591    0.0351 C   0  0  0  0  0  0  0  0  0  0  0  0
    1.3348    0.2702   -0.4708 C   0  0  0  0  0  0  0  0  0  0  0  0
    0.0845   -0.5058   -0.0518 C   0  0  0  0  0  0  0  0  0  0  0  0
   -1.1618    0.2235   -0.5576 C   0  0  0  0  0  0  0  0  0  0  0  0
   -2.4120   -0.5525   -0.1387 C   0  0  0  0  0  0  0  0  0  0  0  0
   -3.6601    0.2388   -0.5350 C   0  0  0  0  0  0  0  0  0  0  0  0
   -4.9058   -0.4753   -0.0066 C   0  0  0  0  0  0  0  0  0  0  0  0
   -6.1539    0.3160   -0.4029 C   0  0  0  0  0  0  0  0  0  0  0  0
   -7.3996   -0.3980    0.1255 C   0  0  0  0  0  0  0  0  0  0  0  0
   -8.6477    0.3933   -0.2709 C   0  0  0  0  0  0  0  0  0  0  0  0
   -9.8934   -0.3207    0.2575 C   0  0  0  0  0  0  0  0  0  0  0  0
  -11.1415    0.4706   -0.1388 C   0  0  0  0  0  0  0  0  0  0  0  0
  -12.3872   -0.2435    0.3896 C   0  0  0  0  0  0  0  0  0  0  0  0
  -13.6352    0.5478   -0.0068 C   0  0  0  0  0  0  0  0  0  0  0  0
  -14.8810   -0.1662    0.5216 C   0  0  0  0  0  0  0  0  0  0  0  0
  -16.1290    0.6251    0.1253 C   0  0  0  0  0  0  0  0  0  0  0  0
  -17.3748   -0.0889    0.6537 C   0  0  0  0  0  0  0  0  0  0  0  0
  -18.6228    0.7024    0.2574 C   0  0  0  0  0  0  0  0  0  0  0  0
   -2.4257   -1.8229   -0.7930 O   0  0  0  0  0  0  0  0  0  0  0  0
   18.7769    1.5990    0.5655 H   0  0  0  0  0  0  0  0  0  0  0  0
   19.6984    0.0777    0.4976 H   0  0  0  0  0  0  0  0  0  0  0  0
   18.8470    0.6678   -0.9499 H   0  0  0  0  0  0  0  0  0  0  0  0
   17.5939   -1.1806    0.1279 H   0  0  0  0  0  0  0  0  0  0  0  0
   17.5237   -0.2494    1.6433 H   0  0  0  0  0  0  0  0  0  0  0  0
   16.2803    1.5523    0.4786 H   0  0  0  0  0  0  0  0  0  0  0  0
   16.3505    0.6211   -1.0367 H   0  0  0  0  0  0  0  0  0  0  0  0
   15.0973   -1.2273    0.0411 H   0  0  0  0  0  0  0  0  0  0  0  0
   15.0272   -0.2961    1.5564 H   0  0  0  0  0  0  0  0  0  0  0  0
   13.7838    1.5056    0.3918 H   0  0  0  0  0  0  0  0  0  0  0  0
   13.8539    0.5744   -1.1236 H   0  0  0  0  0  0  0  0  0  0  0  0
   12.6008   -1.2740   -0.0458 H   0  0  0  0  0  0  0  0  0  0  0  0
   12.5307   -0.3429    1.4696 H   0  0  0  0  0  0  0  0  0  0  0  0
   11.2873    1.4588    0.3049 H   0  0  0  0  0  0  0  0  0  0  0  0
   11.3574    0.5277   -1.2104 H   0  0  0  0  0  0  0  0  0  0  0  0
   10.1043   -1.3207   -0.1326 H   0  0  0  0  0  0  0  0  0  0  0  0
   10.0341   -0.3896    1.3827 H   0  0  0  0  0  0  0  0  0  0  0  0
    8.7907    1.4121    0.2181 H   0  0  0  0  0  0  0  0  0  0  0  0
    8.8609    0.4810   -1.2973 H   0  0  0  0  0  0  0  0  0  0  0  0
    7.6078   -1.3674   -0.2195 H   0  0  0  0  0  0  0  0  0  0  0  0
    7.5376   -0.4363    1.2959 H   0  0  0  0  0  0  0  0  0  0  0  0
    6.2942    1.3654    0.1312 H   0  0  0  0  0  0  0  0  0  0  0  0
    6.3643    0.4343   -1.3842 H   0  0  0  0  0  0  0  0  0  0  0  0
    5.1112   -1.4142   -0.3063 H   0  0  0  0  0  0  0  0  0  0  0  0
    5.0411   -0.4830    1.2090 H   0  0  0  0  0  0  0  0  0  0  0  0
    3.7977    1.3187    0.0443 H   0  0  0  0  0  0  0  0  0  0  0  0
    3.8678    0.3875   -1.4710 H   0  0  0  0  0  0  0  0  0  0  0  0
    2.6147   -1.4609   -0.3932 H   0  0  0  0  0  0  0  0  0  0  0  0
    2.5445   -0.5297    1.1222 H   0  0  0  0  0  0  0  0  0  0  0  0
    1.3011    1.2720   -0.0425 H   0  0  0  0  0  0  0  0  0  0  0  0
    1.3713    0.3408   -1.5579 H   0  0  0  0  0  0  0  0  0  0  0  0
    0.1182   -1.5076   -0.4801 H   0  0  0  0  0  0  0  0  0  0  0  0
    0.0480   -0.5764    1.0353 H   0  0  0  0  0  0  0  0  0  0  0  0
   -1.1954    1.2253   -0.1294 H   0  0  0  0  0  0  0  0  0  0  0  0
   -1.1253    0.2941   -1.6447 H   0  0  0  0  0  0  0  0  0  0  0  0
   -2.4031   -0.7001    0.9413 H   0  0  0  0  0  0  0  0  0  0  0  0
   -3.6064    1.2400   -0.1075 H   0  0  0  0  0  0  0  0  0  0  0  0
   -3.7154    0.3100   -1.6213 H   0  0  0  0  0  0  0  0  0  0  0  0
   -4.9595   -1.4765   -0.4341 H   0  0  0  0  0  0  0  0  0  0  0  0
   -4.8505   -0.5464    1.0797 H   0  0  0  0  0  0  0  0  0  0  0  0
   -6.1002    1.3173    0.0245 H   0  0  0  0  0  0  0  0  0  0  0  0
   -6.2092    0.3872   -1.4892 H   0  0  0  0  0  0  0  0  0  0  0  0
   -7.4533   -1.3992   -0.3020 H   0  0  0  0  0  0  0  0  0  0  0  0
   -7.3443   -0.4692    1.2117 H   0  0  0  0  0  0  0  0  0  0  0  0
   -8.5940    1.3946    0.1566 H   0  0  0  0  0  0  0  0  0  0  0  0
   -8.7030    0.4645   -1.3571 H   0  0  0  0  0  0  0  0  0  0  0  0
   -9.9471   -1.3220   -0.1699 H   0  0  0  0  0  0  0  0  0  0  0  0
   -9.8381   -0.3919    1.3438 H   0  0  0  0  0  0  0  0  0  0  0  0
  -11.0878    1.4718    0.2886 H   0  0  0  0  0  0  0  0  0  0  0  0
  -11.1968    0.5418   -1.2251 H   0  0  0  0  0  0  0  0  0  0  0  0
  -12.4408   -1.2447   -0.0379 H   0  0  0  0  0  0  0  0  0  0  0  0
  -12.3319   -0.3146    1.4759 H   0  0  0  0  0  0  0  0  0  0  0  0
  -13.5816    1.5491    0.4207 H   0  0  0  0  0  0  0  0  0  0  0  0
  -13.6906    0.6190   -1.0930 H   0  0  0  0  0  0  0  0  0  0  0  0
  -14.9346   -1.1674    0.0942 H   0  0  0  0  0  0  0  0  0  0  0  0
  -14.8257   -0.2374    1.6079 H   0  0  0  0  0  0  0  0  0  0  0  0
  -16.0754    1.6264    0.5528 H   0  0  0  0  0  0  0  0  0  0  0  0
  -16.1844    0.6963   -0.9610 H   0  0  0  0  0  0  0  0  0  0  0  0
  -17.4284   -1.0902    0.2262 H   0  0  0  0  0  0  0  0  0  0  0  0
  -17.3194   -0.1601    1.7400 H   0  0  0  0  0  0  0  0  0  0  0  0
  -18.5692    1.7036    0.6848 H   0  0  0  0  0  0  0  0  0  0  0  0
  -18.6781    0.7736   -0.8289 H   0  0  0  0  0  0  0  0  0  0  0  0
  -19.5103    0.1937    0.6338 H   0  0  0  0  0  0  0  0  0  0  0  0
   -2.4341   -1.7680   -1.7584 H   0  0  0  0  0  0  0  0  0  0  0  0
  1  2  1  0  0  0  0
  2  3  1  0  0  0  0
  3  4  1  0  0  0  0
  4  5  1  0  0  0  0
  5  6  1  0  0  0  0
  6  7  1  0  0  0  0
  7  8  1  0  0  0  0
  8  9  1  0  0  0  0
  9 10  1  0  0  0  0
 10 11  1  0  0  0  0
 11 12  1  0  0  0  0
 12 13  1  0  0  0  0
 13 14  1  0  0  0  0
 14 15  1  0  0  0  0
 15 16  1  0  0  0  0
 16 17  1  0  0  0  0
 17 18  1  0  0  0  0
 18 19  1  0  0  0  0
 19 20  1  0  0  0  0
 20 21  1  0  0  0  0
 21 22  1  0  0  0  0
 22 23  1  0  0  0  0
 23 24  1  0  0  0  0
 24 25  1  0  0  0  0
 25 26  1  0  0  0  0
 26 27  1  0  0  0  0
 27 28  1  0  0  0  0
 28 29  1  0  0  0  0
 29 30  1  0  0  0  0
 30 31  1  0  0  0  0
 18 32  1  0  0  0  0
  1 33  1  0  0  0  0
  1 34  1  0  0  0  0
  1 35  1  0  0  0  0
  2 36  1  0  0  0  0
  2 37  1  0  0  0  0
  3 38  1  0  0  0  0
  3 39  1  0  0  0  0
  4 40  1  0  0  0  0
  4 41  1  0  0  0  0
  5 42  1  0  0  0  0
  5 43  1  0  0  0  0
  6 44  1  0  0  0  0
  6 45  1  0  0  0  0
  7 46  1  0  0  0  0
  7 47  1  0  0  0  0
  8 48  1  0  0  0  0
  8 49  1  0  0  0  0
  9 50  1  0  0  0  0
  9 51  1  0  0  0  0
 10 52  1  0  0  0  0
 10 53  1  0  0  0  0
 11 54  1  0  0  0  0
 11 55  1  0  0  0  0
 12 56  1  0  0  0  0
 12 57  1  0  0  0  0
 13 58  1  0  0  0  0
 13 59  1  0  0  0  0
 14 60  1  0  0  0  0
 14 61  1  0  0  0  0
 15 62  1  0  0  0  0
 15 63  1  0  0  0  0
 16 64  1  0  0  0  0
 16 65  1  0  0  0  0
 17 66  1  0  0  0  0
 17 67  1  0  0  0  0
 18 68  1  0  0  0  0
 19 69  1  0  0  0  0
 19 70  1  0  0  0  0
 20 71  1  0  0  0  0
 20 72  1  0  0  0  0
 21 73  1  0  0  0  0
 21 74  1  0  0  0  0
 22 75  1  0  0  0  0
 22 76  1  0  0  0  0
 23 77  1  0  0  0  0
 23 78  1  0  0  0  0
 24 79  1  0  0  0  0
 24 80  1  0  0  0  0
 25 81  1  0  0  0  0
 25 82  1  0  0  0  0
 26 83  1  0  0  0  0
 26 84  1  0  0  0  0
 27 85  1  0  0  0  0
 27 86  1  0  0  0  0
 28 87  1  0  0  0  0
 28 88  1  0  0  0  0
 29 89  1  0  0  0  0
 29 90  1  0  0  0  0
 30 91  1  0  0  0  0
 30 92  1  0  0  0  0
 31 93  1  0  0  0  0
 31 94  1  0  0  0  0
 31 95  1  0  0  0  0
 32 96  1  0  0  0  0
M  END
$$$$
