C10H16O4
APtclcactv06291803013D 0   0.00000     0.00000
 
 30 30  0  0  0  0  0  0  0  0999 V2000
   -0.9807   -1.7303   -1.5074 C   0  0  0  0  0  0  0  0  0  0  0  0
   -0.7103   -0.9733   -0.2056 C   0  0  0  0  0  0  0  0  0  0  0  0
    0.5251   -0.0616   -0.3676 C   0  0  0  0  0  0  0  0  0  0  0  0
    0.1485    1.2122    0.4293 C   0  0  0  0  0  0  0  0  0  0  0  0
   -1.3374    1.3762    0.1287 C   0  0  0  0  0  0  0  0  0  0  0  0
   -1.9419    2.4044   -0.0603 O   0  0  0  0  0  0  0  0  0  0  0  0
   -1.8894   -0.0385    0.1185 C   0  0  0  0  0  0  0  0  0  0  0  0
   -2.9717   -0.1701   -0.9549 C   0  0  0  0  0  0  0  0  0  0  0  0
   -2.4306   -0.3612    1.4010 O   0  0  0  0  0  0  0  0  0  0  0  0
    1.7656   -0.7251    0.2339 C   0  0  0  0  0  0  0  0  0  0  0  0
    2.9765    0.1273   -0.0454 C   0  0  0  0  0  0  0  0  0  0  0  0
    2.8594    1.1596   -0.6623 O   0  0  0  0  0  0  0  0  0  0  0  0
    4.1852   -0.2602    0.3911 O   0  0  0  0  0  0  0  0  0  0  0  0
   -0.4890   -1.9614    0.9414 C   0  0  0  0  0  0  0  0  0  0  0  0
   -0.1148   -2.3431   -1.7579 H   0  0  0  0  0  0  0  0  0  0  0  0
   -1.8542   -2.3700   -1.3810 H   0  0  0  0  0  0  0  0  0  0  0  0
   -1.1658   -1.0172   -2.3107 H   0  0  0  0  0  0  0  0  0  0  0  0
    0.6890    0.1782   -1.4182 H   0  0  0  0  0  0  0  0  0  0  0  0
    0.3118    1.0618    1.4965 H   0  0  0  0  0  0  0  0  0  0  0  0
    0.7121    2.0729    0.0694 H   0  0  0  0  0  0  0  0  0  0  0  0
   -2.5502    0.0800   -1.9285 H   0  0  0  0  0  0  0  0  0  0  0  0
   -3.3435   -1.1946   -0.9723 H   0  0  0  0  0  0  0  0  0  0  0  0
   -3.7925    0.5105   -0.7286 H   0  0  0  0  0  0  0  0  0  0  0  0
   -3.1662    0.2053    1.6713 H   0  0  0  0  0  0  0  0  0  0  0  0
    1.6355   -0.8297    1.3110 H   0  0  0  0  0  0  0  0  0  0  0  0
    1.9036   -1.7098   -0.2127 H   0  0  0  0  0  0  0  0  0  0  0  0
    4.9321    0.3194    0.1877 H   0  0  0  0  0  0  0  0  0  0  0  0
    0.3740   -2.5889    0.7190 H   0  0  0  0  0  0  0  0  0  0  0  0
   -0.3099   -1.4114    1.8653 H   0  0  0  0  0  0  0  0  0  0  0  0
   -1.3736   -2.5877    1.0572 H   0  0  0  0  0  0  0  0  0  0  0  0
  1  2  1  0  0  0  0
  2  3  1  0  0  0  0
  3  4  1  0  0  0  0
  4  5  1  0  0  0  0
  5  6  2  0  0  0  0
  5  7  1  0  0  0  0
  2  7  1  0  0  0  0
  7  8  1  0  0  0  0
  7  9  1  0  0  0  0
  3 10  1  0  0  0  0
 10 11  1  0  0  0  0
 11 12  2  0  0  0  0
 11 13  1  0  0  0  0
  2 14  1  0  0  0  0
  1 15  1  0  0  0  0
  1 16  1  0  0  0  0
  1 17  1  0  0  0  0
  3 18  1  0  0  0  0
  4 19  1  0  0  0  0
  4 20  1  0  0  0  0
  8 21  1  0  0  0  0
  8 22  1  0  0  0  0
  8 23  1  0  0  0  0
  9 24  1  0  0  0  0
 10 25  1  0  0  0  0
 10 26  1  0  0  0  0
 13 27  1  0  0  0  0
 14 28  1  0  0  0  0
 14 29  1  0  0  0  0
 14 30  1  0  0  0  0
M  END
$$$$
