C17H18O4
APtclcactv06291803013D 0   0.00000     0.00000
 
 39 41  0  0  0  0  0  0  0  0999 V2000
   -4.3328    2.1601    0.0094 C   0  0  0  0  0  0  0  0  0  0  0  0
   -3.8363    0.8229    0.0958 O   0  0  0  0  0  0  0  0  0  0  0  0
   -2.4869    0.6612    0.0503 C   0  0  0  0  0  0  0  0  0  0  0  0
   -1.9393   -0.6143    0.1295 C   0  0  0  0  0  0  0  0  0  0  0  0
   -0.5606   -0.7782    0.0924 C   0  0  0  0  0  0  0  0  0  0  0  0
    0.2655    0.3387   -0.0241 C   0  0  0  0  0  0  0  0  0  0  0  0
   -0.2918    1.6143   -0.1234 C   0  0  0  0  0  0  0  0  0  0  0  0
   -1.6620    1.7697   -0.0808 C   0  0  0  0  0  0  0  0  0  0  0  0
    0.6009    2.8117   -0.3118 C   0  0  0  0  0  0  0  0  0  0  0  0
    1.9012    2.6440    0.4684 C   0  0  0  0  0  0  0  0  0  0  0  0
    2.5379    1.3151    0.1605 C   0  0  0  0  0  0  0  0  0  0  0  0
    1.7395    0.1958   -0.0612 C   0  0  0  0  0  0  0  0  0  0  0  0
    2.3295   -1.0420   -0.3256 C   0  0  0  0  0  0  0  0  0  0  0  0
    3.7105   -1.1444   -0.3792 C   0  0  0  0  0  0  0  0  0  0  0  0
    4.4958   -0.0256   -0.1706 C   0  0  0  0  0  0  0  0  0  0  0  0
    3.9125    1.1995    0.0991 C   0  0  0  0  0  0  0  0  0  0  0  0
    1.5543   -2.1393   -0.5286 O   0  0  0  0  0  0  0  0  0  0  0  0
   -0.0189   -2.0228    0.1700 O   0  0  0  0  0  0  0  0  0  0  0  0
    0.1432   -2.5796    1.4760 C   0  0  0  0  0  0  0  0  0  0  0  0
   -2.7524   -1.6997    0.2435 O   0  0  0  0  0  0  0  0  0  0  0  0
   -3.2718   -2.2514   -0.9681 C   0  0  0  0  0  0  0  0  0  0  0  0
   -4.0162    2.6050   -0.9339 H   0  0  0  0  0  0  0  0  0  0  0  0
   -5.4217    2.1472    0.0577 H   0  0  0  0  0  0  0  0  0  0  0  0
   -3.9393    2.7480    0.8386 H   0  0  0  0  0  0  0  0  0  0  0  0
   -2.0938    2.7577   -0.1417 H   0  0  0  0  0  0  0  0  0  0  0  0
    0.8302    2.9253   -1.3713 H   0  0  0  0  0  0  0  0  0  0  0  0
    0.0835    3.7041    0.0405 H   0  0  0  0  0  0  0  0  0  0  0  0
    2.5895    3.4439    0.1954 H   0  0  0  0  0  0  0  0  0  0  0  0
    1.6894    2.7021    1.5360 H   0  0  0  0  0  0  0  0  0  0  0  0
    4.1735   -2.0984   -0.5835 H   0  0  0  0  0  0  0  0  0  0  0  0
    5.5715   -0.1087   -0.2186 H   0  0  0  0  0  0  0  0  0  0  0  0
    4.5338    2.0677    0.2620 H   0  0  0  0  0  0  0  0  0  0  0  0
    1.3800   -2.3309   -1.4603 H   0  0  0  0  0  0  0  0  0  0  0  0
    0.5020   -3.6054    1.3917 H   0  0  0  0  0  0  0  0  0  0  0  0
    0.8660   -1.9868    2.0366 H   0  0  0  0  0  0  0  0  0  0  0  0
   -0.8147   -2.5714    1.9960 H   0  0  0  0  0  0  0  0  0  0  0  0
   -3.9716   -3.0529   -0.7317 H   0  0  0  0  0  0  0  0  0  0  0  0
   -3.7875   -1.4727   -1.5300 H   0  0  0  0  0  0  0  0  0  0  0  0
   -2.4523   -2.6493   -1.5667 H   0  0  0  0  0  0  0  0  0  0  0  0
  1  2  1  0  0  0  0
  2  3  1  0  0  0  0
  3  4  2  0  0  0  0
  4  5  1  0  0  0  0
  5  6  2  0  0  0  0
  6  7  1  0  0  0  0
  7  8  2  0  0  0  0
  3  8  1  0  0  0  0
  7  9  1  0  0  0  0
  9 10  1  0  0  0  0
 10 11  1  0  0  0  0
 11 12  2  0  0  0  0
  6 12  1  0  0  0  0
 12 13  1  0  0  0  0
 13 14  2  0  0  0  0
 14 15  1  0  0  0  0
 15 16  2  0  0  0  0
 11 16  1  0  0  0  0
 13 17  1  0  0  0  0
  5 18  1  0  0  0  0
 18 19  1  0  0  0  0
  4 20  1  0  0  0  0
 20 21  1  0  0  0  0
  1 22  1  0  0  0  0
  1 23  1  0  0  0  0
  1 24  1  0  0  0  0
  8 25  1  0  0  0  0
  9 26  1  0  0  0  0
  9 27  1  0  0  0  0
 10 28  1  0  0  0  0
 10 29  1  0  0  0  0
 14 30  1  0  0  0  0
 15 31  1  0  0  0  0
 16 32  1  0  0  0  0
 17 33  1  0  0  0  0
 19 34  1  0  0  0  0
 19 35  1  0  0  0  0
 19 36  1  0  0  0  0
 21 37  1  0  0  0  0
 21 38  1  0  0  0  0
 21 39  1  0  0  0  0
M  END
$$$$
