C6H13NO2
APtclcactv06211804323D 0   0.00000     0.00000
 
 22 21  0  0  0  0  0  0  0  0999 V2000
   -3.0462   -0.1059   -1.0961 C   0  0  0  0  0  0  0  0  0  0  0  0
   -1.9869    0.1883   -0.0321 C   0  0  0  0  0  0  0  0  0  0  0  0
   -2.2834   -0.6337    1.2238 C   0  0  0  0  0  0  0  0  0  0  0  0
   -0.6047   -0.1852   -0.5716 C   0  0  0  0  0  0  0  0  0  0  0  0
    0.4669    0.2366    0.4357 C   0  0  0  0  0  0  0  0  0  0  0  0
    1.8197   -0.2149   -0.0515 C   0  0  0  0  0  0  0  0  0  0  0  0
    2.5574    0.5699   -0.5989 O   0  0  0  0  0  0  0  0  0  0  0  0
    2.2049   -1.4888    0.1228 O   0  0  0  0  0  0  0  0  0  0  0  0
    0.4596    1.6989    0.5750 N   0  0  0  0  0  0  0  0  0  0  0  0
   -2.9693   -1.1478   -1.4070 H   0  0  0  0  0  0  0  0  0  0  0  0
   -4.0378    0.0774   -0.6821 H   0  0  0  0  0  0  0  0  0  0  0  0
   -2.8864    0.5430   -1.9572 H   0  0  0  0  0  0  0  0  0  0  0  0
   -2.0056    1.2496    0.2155 H   0  0  0  0  0  0  0  0  0  0  0  0
   -2.2647   -1.6950    0.9762 H   0  0  0  0  0  0  0  0  0  0  0  0
   -1.5287   -0.4241    1.9818 H   0  0  0  0  0  0  0  0  0  0  0  0
   -3.2681   -0.3676    1.6081 H   0  0  0  0  0  0  0  0  0  0  0  0
   -0.5541   -1.2630   -0.7260 H   0  0  0  0  0  0  0  0  0  0  0  0
   -0.4342    0.3260   -1.5190 H   0  0  0  0  0  0  0  0  0  0  0  0
    0.2574   -0.2215    1.4023 H   0  0  0  0  0  0  0  0  0  0  0  0
    3.0812   -1.7314   -0.2064 H   0  0  0  0  0  0  0  0  0  0  0  0
    1.1142    1.9981    1.2821 H   0  0  0  0  0  0  0  0  0  0  0  0
    0.6515    2.1472   -0.3084 H   0  0  0  0  0  0  0  0  0  0  0  0
  1  2  1  0  0  0  0
  2  3  1  0  0  0  0
  2  4  1  0  0  0  0
  4  5  1  0  0  0  0
  5  6  1  0  0  0  0
  6  7  2  0  0  0  0
  6  8  1  0  0  0  0
  5  9  1  0  0  0  0
  1 10  1  0  0  0  0
  1 11  1  0  0  0  0
  1 12  1  0  0  0  0
  2 13  1  0  0  0  0
  3 14  1  0  0  0  0
  3 15  1  0  0  0  0
  3 16  1  0  0  0  0
  4 17  1  0  0  0  0
  4 18  1  0  0  0  0
  5 19  1  0  0  0  0
  8 20  1  0  0  0  0
  9 21  1  0  0  0  0
  9 22  1  0  0  0  0
M  END
$$$$
