C28H34O14
APtclcactv06211806293D 0   0.00000     0.00000
 
 76 80  0  0  0  0  0  0  0  0999 V2000
   -6.4192    2.4894    1.9466 C   0  0  0  0  0  0  0  0  0  0  0  0
   -5.9775    2.5112    0.4819 C   0  0  0  0  0  0  0  0  0  0  0  0
   -5.2412    3.8213    0.1901 C   0  0  0  0  0  0  0  0  0  0  0  0
   -3.9804    3.8933    1.0570 C   0  0  0  0  0  0  0  0  0  0  0  0
   -3.1112    2.6633    0.7778 C   0  0  0  0  0  0  0  0  0  0  0  0
   -3.9297    1.3979    1.0468 C   0  0  0  0  0  0  0  0  0  0  0  0
   -5.1032    1.4089    0.2314 O   0  0  0  0  0  0  0  0  0  0  0  0
   -3.1433    0.2463    0.7348 O   0  0  0  0  0  0  0  0  0  0  0  0
   -3.7754   -0.9940    1.0577 C   0  0  0  0  0  0  0  0  0  0  0  0
   -2.8479   -2.1517    0.6830 C   0  0  0  0  0  0  0  0  0  0  0  0
   -3.4699   -3.4732    1.1419 C   0  0  0  0  0  0  0  0  0  0  0  0
   -2.5652   -4.6314    0.7102 C   0  0  0  0  0  0  0  0  0  0  0  0
   -2.3728   -4.5759   -0.8084 C   0  0  0  0  0  0  0  0  0  0  0  0
   -1.7932   -3.2118   -1.1920 C   0  0  0  0  0  0  0  0  0  0  0  0
   -2.6677   -2.1784   -0.7344 O   0  0  0  0  0  0  0  0  0  0  0  0
   -0.5089   -3.0523   -0.5860 O   0  0  0  0  0  0  0  0  0  0  0  0
    0.1908   -1.9361   -0.9103 C   0  0  0  0  0  0  0  0  0  0  0  0
   -0.3552   -1.0157   -1.7961 C   0  0  0  0  0  0  0  0  0  0  0  0
    0.3498    0.1272   -2.1301 C   0  0  0  0  0  0  0  0  0  0  0  0
    1.6159    0.3481   -1.5661 C   0  0  0  0  0  0  0  0  0  0  0  0
    2.3800    1.5572   -1.8920 C   0  0  0  0  0  0  0  0  0  0  0  0
    1.8737    2.4942   -2.4743 O   0  0  0  0  0  0  0  0  0  0  0  0
    3.8363    1.5768   -1.4633 C   0  0  0  0  0  0  0  0  0  0  0  0
    3.9078    0.9372   -0.0690 C   0  0  0  0  0  0  0  0  0  0  0  0
    3.3933   -0.3928   -0.1326 O   0  0  0  0  0  0  0  0  0  0  0  0
    2.1684   -0.5901   -0.6742 C   0  0  0  0  0  0  0  0  0  0  0  0
    1.4434   -1.7225   -0.3485 C   0  0  0  0  0  0  0  0  0  0  0  0
    5.3413    0.9004    0.3946 C   0  0  0  0  0  0  0  0  0  0  0  0
    5.8054    1.8565    1.2790 C   0  0  0  0  0  0  0  0  0  0  0  0
    7.1190    1.8250    1.7054 C   0  0  0  0  0  0  0  0  0  0  0  0
    7.9727    0.8329    1.2455 C   0  0  0  0  0  0  0  0  0  0  0  0
    7.5046   -0.1253    0.3581 C   0  0  0  0  0  0  0  0  0  0  0  0
    6.1886   -0.0927   -0.0609 C   0  0  0  0  0  0  0  0  0  0  0  0
    9.2655    0.8000    1.6632 O   0  0  0  0  0  0  0  0  0  0  0  0
   10.0870   -0.2499    1.1485 C   0  0  0  0  0  0  0  0  0  0  0  0
   -0.1785    1.0269   -2.9964 O   0  0  0  0  0  0  0  0  0  0  0  0
   -1.4720   -5.6086   -1.2137 O   0  0  0  0  0  0  0  0  0  0  0  0
   -1.2966   -4.5139    1.3574 O   0  0  0  0  0  0  0  0  0  0  0  0
   -3.5978   -3.4720    2.5652 O   0  0  0  0  0  0  0  0  0  0  0  0
   -2.6883    2.6773   -0.5872 O   0  0  0  0  0  0  0  0  0  0  0  0
   -3.2482    5.0784    0.7383 O   0  0  0  0  0  0  0  0  0  0  0  0
   -4.8748    3.8659   -1.1904 O   0  0  0  0  0  0  0  0  0  0  0  0
   -7.0853    3.3308    2.1378 H   0  0  0  0  0  0  0  0  0  0  0  0
   -6.9434    1.5566    2.1542 H   0  0  0  0  0  0  0  0  0  0  0  0
   -5.5436    2.5654    2.5913 H   0  0  0  0  0  0  0  0  0  0  0  0
   -6.8530    2.4348   -0.1630 H   0  0  0  0  0  0  0  0  0  0  0  0
   -5.8918    4.6644    0.4227 H   0  0  0  0  0  0  0  0  0  0  0  0
   -4.2621    3.9093    2.1098 H   0  0  0  0  0  0  0  0  0  0  0  0
   -2.2384    2.6782    1.4306 H   0  0  0  0  0  0  0  0  0  0  0  0
   -4.2176    1.3678    2.0977 H   0  0  0  0  0  0  0  0  0  0  0  0
   -3.9847   -1.0276    2.1269 H   0  0  0  0  0  0  0  0  0  0  0  0
   -4.7088   -1.0817    0.5017 H   0  0  0  0  0  0  0  0  0  0  0  0
   -1.8822   -2.0161    1.1699 H   0  0  0  0  0  0  0  0  0  0  0  0
   -4.4535   -3.5902    0.6870 H   0  0  0  0  0  0  0  0  0  0  0  0
   -3.0296   -5.5786    0.9845 H   0  0  0  0  0  0  0  0  0  0  0  0
   -3.3342   -4.7152   -1.3027 H   0  0  0  0  0  0  0  0  0  0  0  0
   -1.6941   -3.1507   -2.2757 H   0  0  0  0  0  0  0  0  0  0  0  0
   -1.3306   -1.1925   -2.2247 H   0  0  0  0  0  0  0  0  0  0  0  0
    4.4380    1.0015   -2.1669 H   0  0  0  0  0  0  0  0  0  0  0  0
    4.1964    2.6046   -1.4192 H   0  0  0  0  0  0  0  0  0  0  0  0
    3.3134    1.5241    0.6314 H   0  0  0  0  0  0  0  0  0  0  0  0
    1.8544   -2.4449    0.3411 H   0  0  0  0  0  0  0  0  0  0  0  0
    5.1405    2.6289    1.6365 H   0  0  0  0  0  0  0  0  0  0  0  0
    7.4811    2.5723    2.3960 H   0  0  0  0  0  0  0  0  0  0  0  0
    8.1672   -0.8987   -0.0013 H   0  0  0  0  0  0  0  0  0  0  0  0
    5.8237   -0.8384   -0.7517 H   0  0  0  0  0  0  0  0  0  0  0  0
   10.1321   -0.1765    0.0619 H   0  0  0  0  0  0  0  0  0  0  0  0
   11.0921   -0.1601    1.5607 H   0  0  0  0  0  0  0  0  0  0  0  0
    9.6636   -1.2139    1.4302 H   0  0  0  0  0  0  0  0  0  0  0  0
   -0.7075    1.7169   -2.5729 H   0  0  0  0  0  0  0  0  0  0  0  0
   -1.3038   -5.6325   -2.1657 H   0  0  0  0  0  0  0  0  0  0  0  0
   -0.6722   -5.2162    1.1294 H   0  0  0  0  0  0  0  0  0  0  0  0
   -3.9858   -4.2810    2.9259 H   0  0  0  0  0  0  0  0  0  0  0  0
   -2.1328    1.9254   -0.8345 H   0  0  0  0  0  0  0  0  0  0  0  0
   -2.4357    5.1886    1.2510 H   0  0  0  0  0  0  0  0  0  0  0  0
   -5.6254    3.8195   -1.7982 H   0  0  0  0  0  0  0  0  0  0  0  0
  1  2  1  0  0  0  0
  2  3  1  0  0  0  0
  3  4  1  0  0  0  0
  4  5  1  0  0  0  0
  5  6  1  0  0  0  0
  6  7  1  0  0  0  0
  2  7  1  0  0  0  0
  6  8  1  0  0  0  0
  8  9  1  0  0  0  0
  9 10  1  0  0  0  0
 10 11  1  0  0  0  0
 11 12  1  0  0  0  0
 12 13  1  0  0  0  0
 13 14  1  0  0  0  0
 14 15  1  0  0  0  0
 10 15  1  0  0  0  0
 14 16  1  0  0  0  0
 16 17  1  0  0  0  0
 17 18  2  0  0  0  0
 18 19  1  0  0  0  0
 19 20  2  0  0  0  0
 20 21  1  0  0  0  0
 21 22  2  0  0  0  0
 21 23  1  0  0  0  0
 23 24  1  0  0  0  0
 24 25  1  0  0  0  0
 25 26  1  0  0  0  0
 20 26  1  0  0  0  0
 26 27  2  0  0  0  0
 17 27  1  0  0  0  0
 24 28  1  0  0  0  0
 28 29  2  0  0  0  0
 29 30  1  0  0  0  0
 30 31  2  0  0  0  0
 31 32  1  0  0  0  0
 32 33  2  0  0  0  0
 28 33  1  0  0  0  0
 31 34  1  0  0  0  0
 34 35  1  0  0  0  0
 19 36  1  0  0  0  0
 13 37  1  0  0  0  0
 12 38  1  0  0  0  0
 11 39  1  0  0  0  0
  5 40  1  0  0  0  0
  4 41  1  0  0  0  0
  3 42  1  0  0  0  0
  1 43  1  0  0  0  0
  1 44  1  0  0  0  0
  1 45  1  0  0  0  0
  2 46  1  0  0  0  0
  3 47  1  0  0  0  0
  4 48  1  0  0  0  0
  5 49  1  0  0  0  0
  6 50  1  0  0  0  0
  9 51  1  0  0  0  0
  9 52  1  0  0  0  0
 10 53  1  0  0  0  0
 11 54  1  0  0  0  0
 12 55  1  0  0  0  0
 13 56  1  0  0  0  0
 14 57  1  0  0  0  0
 18 58  1  0  0  0  0
 23 59  1  0  0  0  0
 23 60  1  0  0  0  0
 24 61  1  0  0  0  0
 27 62  1  0  0  0  0
 29 63  1  0  0  0  0
 30 64  1  0  0  0  0
 32 65  1  0  0  0  0
 33 66  1  0  0  0  0
 35 67  1  0  0  0  0
 35 68  1  0  0  0  0
 35 69  1  0  0  0  0
 36 70  1  0  0  0  0
 37 71  1  0  0  0  0
 38 72  1  0  0  0  0
 39 73  1  0  0  0  0
 40 74  1  0  0  0  0
 41 75  1  0  0  0  0
 42 76  1  0  0  0  0
M  END
$$$$
