C19H18O6
APtclcactv06291803013D 0   0.00000     0.00000
 
 43 45  0  0  0  0  0  0  0  0999 V2000
    4.4238   -2.7982    0.1797 C   0  0  0  0  0  0  0  0  0  0  0  0
    3.2200   -2.8258   -0.7264 C   0  0  0  0  0  0  0  0  0  0  0  0
    2.1211   -2.2054   -0.3748 C   0  0  0  0  0  0  0  0  0  0  0  0
    2.0969   -1.3669    0.8771 C   0  0  0  0  0  0  0  0  0  0  0  0
    1.6157    0.0215    0.5426 C   0  0  0  0  0  0  0  0  0  0  0  0
    0.2488    0.2929    0.4739 C   0  0  0  0  0  0  0  0  0  0  0  0
   -0.2095    1.5857    0.1716 C   0  0  0  0  0  0  0  0  0  0  0  0
    0.7182    2.5911   -0.0708 C   0  0  0  0  0  0  0  0  0  0  0  0
    2.0729    2.3170   -0.0065 C   0  0  0  0  0  0  0  0  0  0  0  0
    2.5244    1.0332    0.3081 C   0  0  0  0  0  0  0  0  0  0  0  0
    3.8591    0.7778    0.3726 O   0  0  0  0  0  0  0  0  0  0  0  0
    2.9716    3.3064   -0.2464 O   0  0  0  0  0  0  0  0  0  0  0  0
    2.4465    4.5985   -0.5575 C   0  0  0  0  0  0  0  0  0  0  0  0
   -1.5291    1.8620    0.1205 O   0  0  0  0  0  0  0  0  0  0  0  0
   -2.4567    0.8877    0.0287 C   0  0  0  0  0  0  0  0  0  0  0  0
   -3.7515    1.1987   -0.3613 C   0  0  0  0  0  0  0  0  0  0  0  0
   -4.7124    0.2029   -0.4487 C   0  0  0  0  0  0  0  0  0  0  0  0
   -4.3976   -1.1170   -0.1468 C   0  0  0  0  0  0  0  0  0  0  0  0
   -3.1123   -1.4499    0.2412 C   0  0  0  0  0  0  0  0  0  0  0  0
   -2.1355   -0.4495    0.3223 C   0  0  0  0  0  0  0  0  0  0  0  0
   -0.7497   -0.7707    0.7083 C   0  0  0  0  0  0  0  0  0  0  0  0
   -0.4460   -1.8474    1.1901 O   0  0  0  0  0  0  0  0  0  0  0  0
   -2.8003   -2.7357    0.5413 O   0  0  0  0  0  0  0  0  0  0  0  0
   -5.9748    0.5205   -0.8331 O   0  0  0  0  0  0  0  0  0  0  0  0
    3.2803   -3.5673   -2.0371 C   0  0  0  0  0  0  0  0  0  0  0  0
    4.1427   -3.1608    1.1684 H   0  0  0  0  0  0  0  0  0  0  0  0
    5.2043   -3.4373   -0.2334 H   0  0  0  0  0  0  0  0  0  0  0  0
    4.7952   -1.7765    0.2594 H   0  0  0  0  0  0  0  0  0  0  0  0
    1.2326   -2.2948   -0.9822 H   0  0  0  0  0  0  0  0  0  0  0  0
    1.4231   -1.8195    1.6046 H   0  0  0  0  0  0  0  0  0  0  0  0
    3.1012   -1.3120    1.2972 H   0  0  0  0  0  0  0  0  0  0  0  0
    0.3812    3.5888   -0.3102 H   0  0  0  0  0  0  0  0  0  0  0  0
    4.2436    0.9138    1.2493 H   0  0  0  0  0  0  0  0  0  0  0  0
    1.8363    4.9523    0.2735 H   0  0  0  0  0  0  0  0  0  0  0  0
    3.2687    5.2938   -0.7263 H   0  0  0  0  0  0  0  0  0  0  0  0
    1.8339    4.5349   -1.4568 H   0  0  0  0  0  0  0  0  0  0  0  0
   -4.0119    2.2199   -0.5972 H   0  0  0  0  0  0  0  0  0  0  0  0
   -5.1565   -1.8823   -0.2148 H   0  0  0  0  0  0  0  0  0  0  0  0
   -2.4924   -3.2527   -0.2157 H   0  0  0  0  0  0  0  0  0  0  0  0
   -6.1189    0.4728   -1.7881 H   0  0  0  0  0  0  0  0  0  0  0  0
    2.9627   -4.5989   -1.8858 H   0  0  0  0  0  0  0  0  0  0  0  0
    2.6194   -3.0856   -2.7577 H   0  0  0  0  0  0  0  0  0  0  0  0
    4.3023   -3.5535   -2.4156 H   0  0  0  0  0  0  0  0  0  0  0  0
  1  2  1  0  0  0  0
  2  3  2  0  0  0  0
  3  4  1  0  0  0  0
  4  5  1  0  0  0  0
  5  6  2  0  0  0  0
  6  7  1  0  0  0  0
  7  8  2  0  0  0  0
  8  9  1  0  0  0  0
  9 10  2  0  0  0  0
  5 10  1  0  0  0  0
 10 11  1  0  0  0  0
  9 12  1  0  0  0  0
 12 13  1  0  0  0  0
  7 14  1  0  0  0  0
 14 15  1  0  0  0  0
 15 16  2  0  0  0  0
 16 17  1  0  0  0  0
 17 18  2  0  0  0  0
 18 19  1  0  0  0  0
 19 20  2  0  0  0  0
 15 20  1  0  0  0  0
 20 21  1  0  0  0  0
  6 21  1  0  0  0  0
 21 22  2  0  0  0  0
 19 23  1  0  0  0  0
 17 24  1  0  0  0  0
  2 25  1  0  0  0  0
  1 26  1  0  0  0  0
  1 27  1  0  0  0  0
  1 28  1  0  0  0  0
  3 29  1  0  0  0  0
  4 30  1  0  0  0  0
  4 31  1  0  0  0  0
  8 32  1  0  0  0  0
 11 33  1  0  0  0  0
 13 34  1  0  0  0  0
 13 35  1  0  0  0  0
 13 36  1  0  0  0  0
 16 37  1  0  0  0  0
 18 38  1  0  0  0  0
 23 39  1  0  0  0  0
 24 40  1  0  0  0  0
 25 41  1  0  0  0  0
 25 42  1  0  0  0  0
 25 43  1  0  0  0  0
M  END
$$$$
