C33H66O
APtclcactv06291803013D 0   0.00000     0.00000
 
100 99  0  0  0  0  0  0  0  0999 V2000
   20.2391    0.0034   -0.0000 C   0  0  0  0  0  0  0  0  0  0  0  0
   18.9565    0.8375    0.0000 C   0  0  0  0  0  0  0  0  0  0  0  0
   17.7425   -0.0937   -0.0000 C   0  0  0  0  0  0  0  0  0  0  0  0
   16.4599    0.7404    0.0000 C   0  0  0  0  0  0  0  0  0  0  0  0
   15.2459   -0.1908   -0.0000 C   0  0  0  0  0  0  0  0  0  0  0  0
   13.9633    0.6433    0.0000 C   0  0  0  0  0  0  0  0  0  0  0  0
   12.7493   -0.2879   -0.0000 C   0  0  0  0  0  0  0  0  0  0  0  0
   11.4667    0.5462    0.0000 C   0  0  0  0  0  0  0  0  0  0  0  0
   10.2527   -0.3851   -0.0000 C   0  0  0  0  0  0  0  0  0  0  0  0
    8.9701    0.4490    0.0000 C   0  0  0  0  0  0  0  0  0  0  0  0
    7.7561   -0.4822   -0.0000 C   0  0  0  0  0  0  0  0  0  0  0  0
    6.4735    0.3519    0.0000 C   0  0  0  0  0  0  0  0  0  0  0  0
    5.2596   -0.5793   -0.0000 C   0  0  0  0  0  0  0  0  0  0  0  0
    3.9769    0.2548    0.0000 C   0  0  0  0  0  0  0  0  0  0  0  0
    2.7630   -0.6764   -0.0000 C   0  0  0  0  0  0  0  0  0  0  0  0
    1.4803    0.1577    0.0000 C   0  0  0  0  0  0  0  0  0  0  0  0
    0.2664   -0.7736    0.0000 C   0  0  0  0  0  0  0  0  0  0  0  0
   -1.0163    0.0606    0.0000 C   0  0  0  0  0  0  0  0  0  0  0  0
   -2.2302   -0.8707    0.0000 C   0  0  0  0  0  0  0  0  0  0  0  0
   -3.5129   -0.0366    0.0000 C   0  0  0  0  0  0  0  0  0  0  0  0
   -4.7268   -0.9678    0.0000 C   0  0  0  0  0  0  0  0  0  0  0  0
   -6.0094   -0.1337    0.0000 C   0  0  0  0  0  0  0  0  0  0  0  0
   -7.2234   -1.0649    0.0000 C   0  0  0  0  0  0  0  0  0  0  0  0
   -8.4868   -0.2434    0.0000 C   0  0  0  0  0  0  0  0  0  0  0  0
   -8.4228    0.9625   -0.0000 O   0  0  0  0  0  0  0  0  0  0  0  0
   -9.8299   -0.9267    0.0000 C   0  0  0  0  0  0  0  0  0  0  0  0
  -10.9386    0.1278   -0.0000 C   0  0  0  0  0  0  0  0  0  0  0  0
  -12.3022   -0.5660    0.0000 C   0  0  0  0  0  0  0  0  0  0  0  0
  -13.4109    0.4885   -0.0000 C   0  0  0  0  0  0  0  0  0  0  0  0
  -14.7745   -0.2052    0.0000 C   0  0  0  0  0  0  0  0  0  0  0  0
  -15.8832    0.8492   -0.0000 C   0  0  0  0  0  0  0  0  0  0  0  0
  -17.2469    0.1555   -0.0000 C   0  0  0  0  0  0  0  0  0  0  0  0
  -18.3555    1.2099   -0.0000 C   0  0  0  0  0  0  0  0  0  0  0  0
  -19.7192    0.5162   -0.0000 C   0  0  0  0  0  0  0  0  0  0  0  0
   21.1039    0.6669    0.0000 H   0  0  0  0  0  0  0  0  0  0  0  0
   20.2636   -0.6254    0.8900 H   0  0  0  0  0  0  0  0  0  0  0  0
   20.2636   -0.6254   -0.8900 H   0  0  0  0  0  0  0  0  0  0  0  0
   18.9320    1.4664    0.8900 H   0  0  0  0  0  0  0  0  0  0  0  0
   18.9320    1.4664   -0.8900 H   0  0  0  0  0  0  0  0  0  0  0  0
   17.7670   -0.7225   -0.8900 H   0  0  0  0  0  0  0  0  0  0  0  0
   17.7670   -0.7225    0.8900 H   0  0  0  0  0  0  0  0  0  0  0  0
   16.4354    1.3693    0.8900 H   0  0  0  0  0  0  0  0  0  0  0  0
   16.4354    1.3693   -0.8900 H   0  0  0  0  0  0  0  0  0  0  0  0
   15.2704   -0.8197   -0.8900 H   0  0  0  0  0  0  0  0  0  0  0  0
   15.2704   -0.8197    0.8900 H   0  0  0  0  0  0  0  0  0  0  0  0
   13.9388    1.2721    0.8900 H   0  0  0  0  0  0  0  0  0  0  0  0
   13.9388    1.2721   -0.8900 H   0  0  0  0  0  0  0  0  0  0  0  0
   12.7738   -0.9168   -0.8900 H   0  0  0  0  0  0  0  0  0  0  0  0
   12.7738   -0.9168    0.8900 H   0  0  0  0  0  0  0  0  0  0  0  0
   11.4422    1.1750    0.8900 H   0  0  0  0  0  0  0  0  0  0  0  0
   11.4422    1.1750   -0.8900 H   0  0  0  0  0  0  0  0  0  0  0  0
   10.2772   -1.0139   -0.8900 H   0  0  0  0  0  0  0  0  0  0  0  0
   10.2772   -1.0139    0.8900 H   0  0  0  0  0  0  0  0  0  0  0  0
    8.9456    1.0779    0.8900 H   0  0  0  0  0  0  0  0  0  0  0  0
    8.9456    1.0779   -0.8900 H   0  0  0  0  0  0  0  0  0  0  0  0
    7.7806   -1.1110   -0.8900 H   0  0  0  0  0  0  0  0  0  0  0  0
    7.7806   -1.1110    0.8900 H   0  0  0  0  0  0  0  0  0  0  0  0
    6.4490    0.9808    0.8900 H   0  0  0  0  0  0  0  0  0  0  0  0
    6.4490    0.9808   -0.8900 H   0  0  0  0  0  0  0  0  0  0  0  0
    5.2840   -1.2082   -0.8900 H   0  0  0  0  0  0  0  0  0  0  0  0
    5.2840   -1.2082    0.8900 H   0  0  0  0  0  0  0  0  0  0  0  0
    3.9525    0.8836    0.8900 H   0  0  0  0  0  0  0  0  0  0  0  0
    3.9525    0.8836   -0.8900 H   0  0  0  0  0  0  0  0  0  0  0  0
    2.7874   -1.3053   -0.8900 H   0  0  0  0  0  0  0  0  0  0  0  0
    2.7874   -1.3053    0.8900 H   0  0  0  0  0  0  0  0  0  0  0  0
    1.4559    0.7865    0.8900 H   0  0  0  0  0  0  0  0  0  0  0  0
    1.4559    0.7865   -0.8900 H   0  0  0  0  0  0  0  0  0  0  0  0
    0.2908   -1.4024   -0.8900 H   0  0  0  0  0  0  0  0  0  0  0  0
    0.2908   -1.4024    0.8900 H   0  0  0  0  0  0  0  0  0  0  0  0
   -1.0407    0.6894    0.8900 H   0  0  0  0  0  0  0  0  0  0  0  0
   -1.0407    0.6894   -0.8900 H   0  0  0  0  0  0  0  0  0  0  0  0
   -2.2058   -1.4995   -0.8900 H   0  0  0  0  0  0  0  0  0  0  0  0
   -2.2058   -1.4995    0.8900 H   0  0  0  0  0  0  0  0  0  0  0  0
   -3.5373    0.5923    0.8900 H   0  0  0  0  0  0  0  0  0  0  0  0
   -3.5373    0.5923   -0.8900 H   0  0  0  0  0  0  0  0  0  0  0  0
   -4.7024   -1.5966   -0.8900 H   0  0  0  0  0  0  0  0  0  0  0  0
   -4.7024   -1.5966    0.8900 H   0  0  0  0  0  0  0  0  0  0  0  0
   -6.0339    0.4951    0.8900 H   0  0  0  0  0  0  0  0  0  0  0  0
   -6.0339    0.4951   -0.8900 H   0  0  0  0  0  0  0  0  0  0  0  0
   -7.1989   -1.6938   -0.8900 H   0  0  0  0  0  0  0  0  0  0  0  0
   -7.1989   -1.6938    0.8900 H   0  0  0  0  0  0  0  0  0  0  0  0
   -9.9208   -1.5494   -0.8900 H   0  0  0  0  0  0  0  0  0  0  0  0
   -9.9208   -1.5494    0.8900 H   0  0  0  0  0  0  0  0  0  0  0  0
  -10.8477    0.7505    0.8900 H   0  0  0  0  0  0  0  0  0  0  0  0
  -10.8477    0.7505   -0.8900 H   0  0  0  0  0  0  0  0  0  0  0  0
  -12.3931   -1.1887   -0.8900 H   0  0  0  0  0  0  0  0  0  0  0  0
  -12.3931   -1.1887    0.8900 H   0  0  0  0  0  0  0  0  0  0  0  0
  -13.3200    1.1112    0.8900 H   0  0  0  0  0  0  0  0  0  0  0  0
  -13.3200    1.1112   -0.8900 H   0  0  0  0  0  0  0  0  0  0  0  0
  -14.8654   -0.8280   -0.8900 H   0  0  0  0  0  0  0  0  0  0  0  0
  -14.8654   -0.8280    0.8900 H   0  0  0  0  0  0  0  0  0  0  0  0
  -15.7923    1.4719    0.8900 H   0  0  0  0  0  0  0  0  0  0  0  0
  -15.7923    1.4719   -0.8900 H   0  0  0  0  0  0  0  0  0  0  0  0
  -17.3377   -0.4672   -0.8900 H   0  0  0  0  0  0  0  0  0  0  0  0
  -17.3377   -0.4672    0.8900 H   0  0  0  0  0  0  0  0  0  0  0  0
  -18.2646    1.8326    0.8900 H   0  0  0  0  0  0  0  0  0  0  0  0
  -18.2646    1.8326   -0.8900 H   0  0  0  0  0  0  0  0  0  0  0  0
  -20.5090    1.2674   -0.0000 H   0  0  0  0  0  0  0  0  0  0  0  0
  -19.8100   -0.1065   -0.8900 H   0  0  0  0  0  0  0  0  0  0  0  0
  -19.8100   -0.1065    0.8900 H   0  0  0  0  0  0  0  0  0  0  0  0
  1  2  1  0  0  0  0
  2  3  1  0  0  0  0
  3  4  1  0  0  0  0
  4  5  1  0  0  0  0
  5  6  1  0  0  0  0
  6  7  1  0  0  0  0
  7  8  1  0  0  0  0
  8  9  1  0  0  0  0
  9 10  1  0  0  0  0
 10 11  1  0  0  0  0
 11 12  1  0  0  0  0
 12 13  1  0  0  0  0
 13 14  1  0  0  0  0
 14 15  1  0  0  0  0
 15 16  1  0  0  0  0
 16 17  1  0  0  0  0
 17 18  1  0  0  0  0
 18 19  1  0  0  0  0
 19 20  1  0  0  0  0
 20 21  1  0  0  0  0
 21 22  1  0  0  0  0
 22 23  1  0  0  0  0
 23 24  1  0  0  0  0
 24 25  2  0  0  0  0
 24 26  1  0  0  0  0
 26 27  1  0  0  0  0
 27 28  1  0  0  0  0
 28 29  1  0  0  0  0
 29 30  1  0  0  0  0
 30 31  1  0  0  0  0
 31 32  1  0  0  0  0
 32 33  1  0  0  0  0
 33 34  1  0  0  0  0
  1 35  1  0  0  0  0
  1 36  1  0  0  0  0
  1 37  1  0  0  0  0
  2 38  1  0  0  0  0
  2 39  1  0  0  0  0
  3 40  1  0  0  0  0
  3 41  1  0  0  0  0
  4 42  1  0  0  0  0
  4 43  1  0  0  0  0
  5 44  1  0  0  0  0
  5 45  1  0  0  0  0
  6 46  1  0  0  0  0
  6 47  1  0  0  0  0
  7 48  1  0  0  0  0
  7 49  1  0  0  0  0
  8 50  1  0  0  0  0
  8 51  1  0  0  0  0
  9 52  1  0  0  0  0
  9 53  1  0  0  0  0
 10 54  1  0  0  0  0
 10 55  1  0  0  0  0
 11 56  1  0  0  0  0
 11 57  1  0  0  0  0
 12 58  1  0  0  0  0
 12 59  1  0  0  0  0
 13 60  1  0  0  0  0
 13 61  1  0  0  0  0
 14 62  1  0  0  0  0
 14 63  1  0  0  0  0
 15 64  1  0  0  0  0
 15 65  1  0  0  0  0
 16 66  1  0  0  0  0
 16 67  1  0  0  0  0
 17 68  1  0  0  0  0
 17 69  1  0  0  0  0
 18 70  1  0  0  0  0
 18 71  1  0  0  0  0
 19 72  1  0  0  0  0
 19 73  1  0  0  0  0
 20 74  1  0  0  0  0
 20 75  1  0  0  0  0
 21 76  1  0  0  0  0
 21 77  1  0  0  0  0
 22 78  1  0  0  0  0
 22 79  1  0  0  0  0
 23 80  1  0  0  0  0
 23 81  1  0  0  0  0
 26 82  1  0  0  0  0
 26 83  1  0  0  0  0
 27 84  1  0  0  0  0
 27 85  1  0  0  0  0
 28 86  1  0  0  0  0
 28 87  1  0  0  0  0
 29 88  1  0  0  0  0
 29 89  1  0  0  0  0
 30 90  1  0  0  0  0
 30 91  1  0  0  0  0
 31 92  1  0  0  0  0
 31 93  1  0  0  0  0
 32 94  1  0  0  0  0
 32 95  1  0  0  0  0
 33 96  1  0  0  0  0
 33 97  1  0  0  0  0
 34 98  1  0  0  0  0
 34 99  1  0  0  0  0
 34100  1  0  0  0  0
M  END
$$$$
