C6H10O3S2
APtclcactv06291803013D 0   0.00000     0.00000
 
 21 20  0  0  0  0  0  0  0  0999 V2000
    4.4948   -0.7389   -0.0673 C   0  0  0  0  0  0  0  0  0  0  0  0
    3.1967    0.0143    0.0689 C   0  0  0  0  0  0  0  0  0  0  0  0
    3.1963    1.1504    0.4946 O   0  0  0  0  0  0  0  0  0  0  0  0
    1.7225   -0.7332   -0.3771 S   0  0  0  0  0  0  0  0  0  0  0  0
    0.5650    0.6076   -0.0049 C   0  0  0  0  0  0  0  0  0  0  0  0
   -0.8598    0.1574   -0.3340 C   0  0  0  0  0  0  0  0  0  0  0  0
   -1.2589   -0.9913    0.5945 C   0  0  0  0  0  0  0  0  0  0  0  0
   -2.8886   -1.6230    0.1089 S   0  0  0  0  0  0  0  0  0  0  0  0
   -1.8087    1.3121   -0.1410 C   0  0  0  0  0  0  0  0  0  0  0  0
   -1.3885    2.3851    0.2224 O   0  0  0  0  0  0  0  0  0  0  0  0
   -3.1206    1.1487   -0.3728 O   0  0  0  0  0  0  0  0  0  0  0  0
    4.7001   -1.2791    0.8569 H   0  0  0  0  0  0  0  0  0  0  0  0
    4.4194   -1.4467   -0.8928 H   0  0  0  0  0  0  0  0  0  0  0  0
    5.3039   -0.0356   -0.2645 H   0  0  0  0  0  0  0  0  0  0  0  0
    0.6307    0.8611    1.0531 H   0  0  0  0  0  0  0  0  0  0  0  0
    0.8172    1.4822   -0.6045 H   0  0  0  0  0  0  0  0  0  0  0  0
   -0.9042   -0.1802   -1.3694 H   0  0  0  0  0  0  0  0  0  0  0  0
   -0.5223   -1.7913    0.5202 H   0  0  0  0  0  0  0  0  0  0  0  0
   -1.3007   -0.6302    1.6221 H   0  0  0  0  0  0  0  0  0  0  0  0
   -3.1067   -2.6106    0.9955 H   0  0  0  0  0  0  0  0  0  0  0  0
   -3.6900    1.9181   -0.2353 H   0  0  0  0  0  0  0  0  0  0  0  0
  1  2  1  0  0  0  0
  2  3  2  0  0  0  0
  2  4  1  0  0  0  0
  4  5  1  0  0  0  0
  5  6  1  0  0  0  0
  6  7  1  0  0  0  0
  7  8  1  0  0  0  0
  6  9  1  0  0  0  0
  9 10  2  0  0  0  0
  9 11  1  0  0  0  0
  1 12  1  0  0  0  0
  1 13  1  0  0  0  0
  1 14  1  0  0  0  0
  5 15  1  0  0  0  0
  5 16  1  0  0  0  0
  6 17  1  0  0  0  0
  7 18  1  0  0  0  0
  7 19  1  0  0  0  0
  8 20  1  0  0  0  0
 11 21  1  0  0  0  0
M  END
$$$$
