C16H18O4
APtclcactv06291803013D 0   0.00000     0.00000
 
 38 39  0  0  0  0  0  0  0  0999 V2000
    2.4917    3.4294   -0.2757 C   0  0  0  0  0  0  0  0  0  0  0  0
    3.1948    2.1918   -0.1484 O   0  0  0  0  0  0  0  0  0  0  0  0
    2.4575    1.0511   -0.2309 C   0  0  0  0  0  0  0  0  0  0  0  0
    3.0780   -0.1875   -0.1155 C   0  0  0  0  0  0  0  0  0  0  0  0
    2.3231   -1.3501   -0.2002 C   0  0  0  0  0  0  0  0  0  0  0  0
    0.9497   -1.2710   -0.4001 C   0  0  0  0  0  0  0  0  0  0  0  0
    0.3362   -0.0334   -0.5144 C   0  0  0  0  0  0  0  0  0  0  0  0
    1.0871    1.1243   -0.4244 C   0  0  0  0  0  0  0  0  0  0  0  0
   -1.1528    0.0507   -0.7310 C   0  0  0  0  0  0  0  0  0  0  0  0
   -1.8692   -0.0166    0.6192 C   0  0  0  0  0  0  0  0  0  0  0  0
   -3.3582    0.0676    0.4026 C   0  0  0  0  0  0  0  0  0  0  0  0
   -4.0957   -1.0864    0.2148 C   0  0  0  0  0  0  0  0  0  0  0  0
   -5.4614   -1.0092    0.0160 C   0  0  0  0  0  0  0  0  0  0  0  0
   -6.0898    0.2220    0.0055 C   0  0  0  0  0  0  0  0  0  0  0  0
   -5.3525    1.3760    0.1942 C   0  0  0  0  0  0  0  0  0  0  0  0
   -3.9873    1.2985    0.3973 C   0  0  0  0  0  0  0  0  0  0  0  0
    0.2077   -2.4085   -0.4838 O   0  0  0  0  0  0  0  0  0  0  0  0
    2.9269   -2.5646   -0.0882 O   0  0  0  0  0  0  0  0  0  0  0  0
    4.4229   -0.2607    0.0796 O   0  0  0  0  0  0  0  0  0  0  0  0
    4.8826   -0.2690    1.4326 C   0  0  0  0  0  0  0  0  0  0  0  0
    1.9987    3.4689   -1.2470 H   0  0  0  0  0  0  0  0  0  0  0  0
    1.7446    3.5057    0.5143 H   0  0  0  0  0  0  0  0  0  0  0  0
    3.1955    4.2574   -0.1914 H   0  0  0  0  0  0  0  0  0  0  0  0
    0.6059    2.0871   -0.5136 H   0  0  0  0  0  0  0  0  0  0  0  0
   -1.3955    0.9918   -1.2246 H   0  0  0  0  0  0  0  0  0  0  0  0
   -1.4766   -0.7815   -1.3561 H   0  0  0  0  0  0  0  0  0  0  0  0
   -1.6265   -0.9576    1.1128 H   0  0  0  0  0  0  0  0  0  0  0  0
   -1.5453    0.8156    1.2442 H   0  0  0  0  0  0  0  0  0  0  0  0
   -3.6047   -2.0483    0.2230 H   0  0  0  0  0  0  0  0  0  0  0  0
   -6.0375   -1.9107   -0.1314 H   0  0  0  0  0  0  0  0  0  0  0  0
   -7.1568    0.2824   -0.1505 H   0  0  0  0  0  0  0  0  0  0  0  0
   -5.8434    2.3379    0.1856 H   0  0  0  0  0  0  0  0  0  0  0  0
   -3.4113    2.2000    0.5447 H   0  0  0  0  0  0  0  0  0  0  0  0
   -0.1330   -2.7194    0.3661 H   0  0  0  0  0  0  0  0  0  0  0  0
    2.9755   -2.8976    0.8184 H   0  0  0  0  0  0  0  0  0  0  0  0
    4.5639    0.6468    1.9303 H   0  0  0  0  0  0  0  0  0  0  0  0
    4.4638   -1.1302    1.9533 H   0  0  0  0  0  0  0  0  0  0  0  0
    5.9708   -0.3301    1.4462 H   0  0  0  0  0  0  0  0  0  0  0  0
  1  2  1  0  0  0  0
  2  3  1  0  0  0  0
  3  4  2  0  0  0  0
  4  5  1  0  0  0  0
  5  6  2  0  0  0  0
  6  7  1  0  0  0  0
  7  8  2  0  0  0  0
  3  8  1  0  0  0  0
  7  9  1  0  0  0  0
  9 10  1  0  0  0  0
 10 11  1  0  0  0  0
 11 12  2  0  0  0  0
 12 13  1  0  0  0  0
 13 14  2  0  0  0  0
 14 15  1  0  0  0  0
 15 16  2  0  0  0  0
 11 16  1  0  0  0  0
  6 17  1  0  0  0  0
  5 18  1  0  0  0  0
  4 19  1  0  0  0  0
 19 20  1  0  0  0  0
  1 21  1  0  0  0  0
  1 22  1  0  0  0  0
  1 23  1  0  0  0  0
  8 24  1  0  0  0  0
  9 25  1  0  0  0  0
  9 26  1  0  0  0  0
 10 27  1  0  0  0  0
 10 28  1  0  0  0  0
 12 29  1  0  0  0  0
 13 30  1  0  0  0  0
 14 31  1  0  0  0  0
 15 32  1  0  0  0  0
 16 33  1  0  0  0  0
 17 34  1  0  0  0  0
 18 35  1  0  0  0  0
 20 36  1  0  0  0  0
 20 37  1  0  0  0  0
 20 38  1  0  0  0  0
M  END
$$$$
