C20H32O3
APtclcactv06291803013D 0   0.00000     0.00000
 
 55 55  0  0  0  0  0  0  0  0999 V2000
   11.7665   -0.2780    0.0990 C   0  0  0  0  0  0  0  0  0  0  0  0
   10.4839   -0.3484   -0.7321 C   0  0  0  0  0  0  0  0  0  0  0  0
    9.2730   -0.1421    0.1801 C   0  0  0  0  0  0  0  0  0  0  0  0
    7.9904   -0.2126   -0.6511 C   0  0  0  0  0  0  0  0  0  0  0  0
    6.7796   -0.0063    0.2612 C   0  0  0  0  0  0  0  0  0  0  0  0
    5.4969   -0.0767   -0.5700 C   0  0  0  0  0  0  0  0  0  0  0  0
    4.2861    0.1296    0.3422 C   0  0  0  0  0  0  0  0  0  0  0  0
    3.0035    0.0591   -0.4889 C   0  0  0  0  0  0  0  0  0  0  0  0
    1.7926    0.2655    0.4233 C   0  0  0  0  0  0  0  0  0  0  0  0
    0.5100    0.1950   -0.4079 C   0  0  0  0  0  0  0  0  0  0  0  0
   -0.6826    0.3982    0.4907 C   0  0  0  0  0  0  0  0  0  0  0  0
   -0.5232    0.5806    1.6737 O   0  0  0  0  0  0  0  0  0  0  0  0
   -2.0742    0.3738   -0.0872 C   0  0  0  0  0  0  0  0  0  0  0  0
   -3.0943    0.6037    1.0297 C   0  0  0  0  0  0  0  0  0  0  0  0
   -4.4859    0.5793    0.4519 C   0  0  0  0  0  0  0  0  0  0  0  0
   -5.1810   -0.6133    0.3774 C   0  0  0  0  0  0  0  0  0  0  0  0
   -6.4606   -0.6375   -0.1536 C   0  0  0  0  0  0  0  0  0  0  0  0
   -7.0431    0.5406   -0.6111 C   0  0  0  0  0  0  0  0  0  0  0  0
   -6.3409    1.7327   -0.5335 C   0  0  0  0  0  0  0  0  0  0  0  0
   -5.0668    1.7507    0.0026 C   0  0  0  0  0  0  0  0  0  0  0  0
   -8.2986    0.5220   -1.1335 O   0  0  0  0  0  0  0  0  0  0  0  0
   -7.1456   -1.8100   -0.2281 O   0  0  0  0  0  0  0  0  0  0  0  0
   -6.4849   -2.9793    0.2600 C   0  0  0  0  0  0  0  0  0  0  0  0
   11.8353    0.6983    0.5789 H   0  0  0  0  0  0  0  0  0  0  0  0
   11.7488   -1.0570    0.8611 H   0  0  0  0  0  0  0  0  0  0  0  0
   12.6291   -0.4249   -0.5509 H   0  0  0  0  0  0  0  0  0  0  0  0
   10.5015    0.4307   -1.4943 H   0  0  0  0  0  0  0  0  0  0  0  0
   10.4151   -1.3247   -1.2121 H   0  0  0  0  0  0  0  0  0  0  0  0
    9.2554   -0.9212    0.9422 H   0  0  0  0  0  0  0  0  0  0  0  0
    9.3418    0.8341    0.6600 H   0  0  0  0  0  0  0  0  0  0  0  0
    8.0081    0.5665   -1.4132 H   0  0  0  0  0  0  0  0  0  0  0  0
    7.9216   -1.1888   -1.1310 H   0  0  0  0  0  0  0  0  0  0  0  0
    6.7619   -0.7853    1.0233 H   0  0  0  0  0  0  0  0  0  0  0  0
    6.8483    0.9700    0.7411 H   0  0  0  0  0  0  0  0  0  0  0  0
    5.5146    0.7024   -1.3321 H   0  0  0  0  0  0  0  0  0  0  0  0
    5.4281   -1.0530   -1.0499 H   0  0  0  0  0  0  0  0  0  0  0  0
    4.2684   -0.6495    1.1044 H   0  0  0  0  0  0  0  0  0  0  0  0
    4.3549    1.1058    0.8221 H   0  0  0  0  0  0  0  0  0  0  0  0
    3.0211    0.8382   -1.2510 H   0  0  0  0  0  0  0  0  0  0  0  0
    2.9347   -0.9171   -0.9688 H   0  0  0  0  0  0  0  0  0  0  0  0
    1.7750   -0.5136    1.1854 H   0  0  0  0  0  0  0  0  0  0  0  0
    1.8614    1.2417    0.9032 H   0  0  0  0  0  0  0  0  0  0  0  0
    0.5277    0.9741   -1.1700 H   0  0  0  0  0  0  0  0  0  0  0  0
    0.4412   -0.7812   -0.8878 H   0  0  0  0  0  0  0  0  0  0  0  0
   -2.1709    1.1608   -0.8351 H   0  0  0  0  0  0  0  0  0  0  0  0
   -2.2574   -0.5945   -0.5529 H   0  0  0  0  0  0  0  0  0  0  0  0
   -2.9977   -0.1833    1.7777 H   0  0  0  0  0  0  0  0  0  0  0  0
   -2.9112    1.5720    1.4955 H   0  0  0  0  0  0  0  0  0  0  0  0
   -4.7265   -1.5263    0.7328 H   0  0  0  0  0  0  0  0  0  0  0  0
   -6.7907    2.6484   -0.8878 H   0  0  0  0  0  0  0  0  0  0  0  0
   -4.5206    2.6804    0.0625 H   0  0  0  0  0  0  0  0  0  0  0  0
   -8.9982    0.6622   -0.4809 H   0  0  0  0  0  0  0  0  0  0  0  0
   -5.5666   -3.1402   -0.3048 H   0  0  0  0  0  0  0  0  0  0  0  0
   -6.2443   -2.8472    1.3148 H   0  0  0  0  0  0  0  0  0  0  0  0
   -7.1399   -3.8426    0.1421 H   0  0  0  0  0  0  0  0  0  0  0  0
  1  2  1  0  0  0  0
  2  3  1  0  0  0  0
  3  4  1  0  0  0  0
  4  5  1  0  0  0  0
  5  6  1  0  0  0  0
  6  7  1  0  0  0  0
  7  8  1  0  0  0  0
  8  9  1  0  0  0  0
  9 10  1  0  0  0  0
 10 11  1  0  0  0  0
 11 12  2  0  0  0  0
 11 13  1  0  0  0  0
 13 14  1  0  0  0  0
 14 15  1  0  0  0  0
 15 16  2  0  0  0  0
 16 17  1  0  0  0  0
 17 18  2  0  0  0  0
 18 19  1  0  0  0  0
 19 20  2  0  0  0  0
 15 20  1  0  0  0  0
 18 21  1  0  0  0  0
 17 22  1  0  0  0  0
 22 23  1  0  0  0  0
  1 24  1  0  0  0  0
  1 25  1  0  0  0  0
  1 26  1  0  0  0  0
  2 27  1  0  0  0  0
  2 28  1  0  0  0  0
  3 29  1  0  0  0  0
  3 30  1  0  0  0  0
  4 31  1  0  0  0  0
  4 32  1  0  0  0  0
  5 33  1  0  0  0  0
  5 34  1  0  0  0  0
  6 35  1  0  0  0  0
  6 36  1  0  0  0  0
  7 37  1  0  0  0  0
  7 38  1  0  0  0  0
  8 39  1  0  0  0  0
  8 40  1  0  0  0  0
  9 41  1  0  0  0  0
  9 42  1  0  0  0  0
 10 43  1  0  0  0  0
 10 44  1  0  0  0  0
 13 45  1  0  0  0  0
 13 46  1  0  0  0  0
 14 47  1  0  0  0  0
 14 48  1  0  0  0  0
 16 49  1  0  0  0  0
 19 50  1  0  0  0  0
 20 51  1  0  0  0  0
 21 52  1  0  0  0  0
 23 53  1  0  0  0  0
 23 54  1  0  0  0  0
 23 55  1  0  0  0  0
M  END
$$$$
