C18H12O5
APtclcactv06291803013D 0   0.00000     0.00000
 
 35 38  0  0  0  0  0  0  0  0999 V2000
    5.8716    1.9379   -0.2136 C   0  0  0  0  0  0  0  0  0  0  0  0
    4.4504    1.9861   -0.0724 O   0  0  0  0  0  0  0  0  0  0  0  0
    3.7898    0.7993   -0.0747 C   0  0  0  0  0  0  0  0  0  0  0  0
    2.4171    0.7811    0.0580 C   0  0  0  0  0  0  0  0  0  0  0  0
    1.7408   -0.4419    0.0542 C   0  0  0  0  0  0  0  0  0  0  0  0
    2.4731   -1.6472   -0.0848 C   0  0  0  0  0  0  0  0  0  0  0  0
    3.8702   -1.5942   -0.2182 C   0  0  0  0  0  0  0  0  0  0  0  0
    4.5068   -0.3915   -0.2173 C   0  0  0  0  0  0  0  0  0  0  0  0
    1.7852   -2.8749   -0.0867 C   0  0  0  0  0  0  0  0  0  0  0  0
    0.4362   -2.9263    0.0416 C   0  0  0  0  0  0  0  0  0  0  0  0
   -0.3383   -1.7668    0.1812 C   0  0  0  0  0  0  0  0  0  0  0  0
    0.2913   -0.5191    0.1870 C   0  0  0  0  0  0  0  0  0  0  0  0
   -0.5338    0.6922    0.3200 C   0  0  0  0  0  0  0  0  0  0  0  0
   -0.0471    1.7836    0.5590 O   0  0  0  0  0  0  0  0  0  0  0  0
   -1.9859    0.5037    0.1455 C   0  0  0  0  0  0  0  0  0  0  0  0
   -2.8443    1.5983   -0.0118 C   0  0  0  0  0  0  0  0  0  0  0  0
   -4.1986    1.3808   -0.1912 C   0  0  0  0  0  0  0  0  0  0  0  0
   -4.6977    0.0834   -0.2106 C   0  0  0  0  0  0  0  0  0  0  0  0
   -3.8531   -1.0036   -0.0466 C   0  0  0  0  0  0  0  0  0  0  0  0
   -2.4915   -0.8086    0.1377 C   0  0  0  0  0  0  0  0  0  0  0  0
   -1.6758   -1.8673    0.3140 O   0  0  0  0  0  0  0  0  0  0  0  0
   -6.0272   -0.1214   -0.3916 O   0  0  0  0  0  0  0  0  0  0  0  0
   -2.3519    2.8624    0.0119 O   0  0  0  0  0  0  0  0  0  0  0  0
    6.2730    2.9511   -0.1958 H   0  0  0  0  0  0  0  0  0  0  0  0
    6.2990    1.3633    0.6081 H   0  0  0  0  0  0  0  0  0  0  0  0
    6.1267    1.4626   -1.1607 H   0  0  0  0  0  0  0  0  0  0  0  0
    1.8688    1.7055    0.1646 H   0  0  0  0  0  0  0  0  0  0  0  0
    4.4382   -2.5065   -0.3250 H   0  0  0  0  0  0  0  0  0  0  0  0
    5.5813   -0.3573   -0.3204 H   0  0  0  0  0  0  0  0  0  0  0  0
    2.3424   -3.7939   -0.1927 H   0  0  0  0  0  0  0  0  0  0  0  0
   -0.0551   -3.8880    0.0358 H   0  0  0  0  0  0  0  0  0  0  0  0
   -4.8683    2.2190   -0.3158 H   0  0  0  0  0  0  0  0  0  0  0  0
   -4.2561   -2.0055   -0.0621 H   0  0  0  0  0  0  0  0  0  0  0  0
   -6.2881   -0.2155   -1.3180 H   0  0  0  0  0  0  0  0  0  0  0  0
   -2.0881    3.1981   -0.8558 H   0  0  0  0  0  0  0  0  0  0  0  0
  1  2  1  0  0  0  0
  2  3  1  0  0  0  0
  3  4  2  0  0  0  0
  4  5  1  0  0  0  0
  5  6  2  0  0  0  0
  6  7  1  0  0  0  0
  7  8  2  0  0  0  0
  3  8  1  0  0  0  0
  6  9  1  0  0  0  0
  9 10  2  0  0  0  0
 10 11  1  0  0  0  0
 11 12  2  0  0  0  0
  5 12  1  0  0  0  0
 12 13  1  0  0  0  0
 13 14  2  0  0  0  0
 13 15  1  0  0  0  0
 15 16  2  0  0  0  0
 16 17  1  0  0  0  0
 17 18  2  0  0  0  0
 18 19  1  0  0  0  0
 19 20  2  0  0  0  0
 15 20  1  0  0  0  0
 20 21  1  0  0  0  0
 11 21  1  0  0  0  0
 18 22  1  0  0  0  0
 16 23  1  0  0  0  0
  1 24  1  0  0  0  0
  1 25  1  0  0  0  0
  1 26  1  0  0  0  0
  4 27  1  0  0  0  0
  7 28  1  0  0  0  0
  8 29  1  0  0  0  0
  9 30  1  0  0  0  0
 10 31  1  0  0  0  0
 17 32  1  0  0  0  0
 19 33  1  0  0  0  0
 22 34  1  0  0  0  0
 23 35  1  0  0  0  0
M  END
$$$$
