C16H12O5
APtclcactv06291803013D 0   0.00000     0.00000
 
 33 35  0  0  0  0  0  0  0  0999 V2000
    5.1915   -1.1645    0.3269 C   0  0  0  0  0  0  0  0  0  0  0  0
    3.8227   -0.5544    0.1689 C   0  0  0  0  0  0  0  0  0  0  0  0
    3.6788    0.8268    0.1668 C   0  0  0  0  0  0  0  0  0  0  0  0
    2.4198    1.4022    0.0217 C   0  0  0  0  0  0  0  0  0  0  0  0
    1.3035    0.5901   -0.1215 C   0  0  0  0  0  0  0  0  0  0  0  0
    1.4527   -0.8107   -0.1196 C   0  0  0  0  0  0  0  0  0  0  0  0
    2.7193   -1.3724    0.0213 C   0  0  0  0  0  0  0  0  0  0  0  0
    0.2627   -1.6718   -0.2712 C   0  0  0  0  0  0  0  0  0  0  0  0
    0.3872   -2.8548   -0.5209 O   0  0  0  0  0  0  0  0  0  0  0  0
   -1.0833   -1.0769   -0.1150 C   0  0  0  0  0  0  0  0  0  0  0  0
   -2.1990   -1.8872    0.0335 C   0  0  0  0  0  0  0  0  0  0  0  0
   -3.4609   -1.3130    0.1791 C   0  0  0  0  0  0  0  0  0  0  0  0
   -3.6100    0.0641    0.1765 C   0  0  0  0  0  0  0  0  0  0  0  0
   -2.5020    0.8901    0.0292 C   0  0  0  0  0  0  0  0  0  0  0  0
   -1.2306    0.3255   -0.1178 C   0  0  0  0  0  0  0  0  0  0  0  0
   -0.0440    1.1835   -0.2753 C   0  0  0  0  0  0  0  0  0  0  0  0
   -0.1697    2.3658   -0.5296 O   0  0  0  0  0  0  0  0  0  0  0  0
   -2.6529    2.2375    0.0270 O   0  0  0  0  0  0  0  0  0  0  0  0
   -3.9811    2.7418    0.1808 C   0  0  0  0  0  0  0  0  0  0  0  0
   -4.5508   -2.1086    0.3239 O   0  0  0  0  0  0  0  0  0  0  0  0
    4.7713    1.6195    0.3073 O   0  0  0  0  0  0  0  0  0  0  0  0
    5.3987   -1.3229    1.3853 H   0  0  0  0  0  0  0  0  0  0  0  0
    5.2262   -2.1198   -0.1970 H   0  0  0  0  0  0  0  0  0  0  0  0
    5.9397   -0.4923   -0.0932 H   0  0  0  0  0  0  0  0  0  0  0  0
    2.3119    2.4768    0.0208 H   0  0  0  0  0  0  0  0  0  0  0  0
    2.8378   -2.4459    0.0229 H   0  0  0  0  0  0  0  0  0  0  0  0
   -2.0904   -2.9617    0.0359 H   0  0  0  0  0  0  0  0  0  0  0  0
   -4.5924    0.4983    0.2899 H   0  0  0  0  0  0  0  0  0  0  0  0
   -3.9604    3.8314    0.1617 H   0  0  0  0  0  0  0  0  0  0  0  0
   -4.6054    2.3759   -0.6343 H   0  0  0  0  0  0  0  0  0  0  0  0
   -4.3905    2.4028    1.1324 H   0  0  0  0  0  0  0  0  0  0  0  0
   -4.7596   -2.3263    1.2426 H   0  0  0  0  0  0  0  0  0  0  0  0
    5.1938    1.8589   -0.5289 H   0  0  0  0  0  0  0  0  0  0  0  0
  1  2  1  0  0  0  0
  2  3  2  0  0  0  0
  3  4  1  0  0  0  0
  4  5  2  0  0  0  0
  5  6  1  0  0  0  0
  6  7  2  0  0  0  0
  2  7  1  0  0  0  0
  6  8  1  0  0  0  0
  8  9  2  0  0  0  0
  8 10  1  0  0  0  0
 10 11  2  0  0  0  0
 11 12  1  0  0  0  0
 12 13  2  0  0  0  0
 13 14  1  0  0  0  0
 14 15  2  0  0  0  0
 10 15  1  0  0  0  0
 15 16  1  0  0  0  0
  5 16  1  0  0  0  0
 16 17  2  0  0  0  0
 14 18  1  0  0  0  0
 18 19  1  0  0  0  0
 12 20  1  0  0  0  0
  3 21  1  0  0  0  0
  1 22  1  0  0  0  0
  1 23  1  0  0  0  0
  1 24  1  0  0  0  0
  4 25  1  0  0  0  0
  7 26  1  0  0  0  0
 11 27  1  0  0  0  0
 13 28  1  0  0  0  0
 19 29  1  0  0  0  0
 19 30  1  0  0  0  0
 19 31  1  0  0  0  0
 20 32  1  0  0  0  0
 21 33  1  0  0  0  0
M  END
$$$$
