C33H66O
APtclcactv06291803013D 0   0.00000     0.00000
 
100 99  0  0  0  0  0  0  0  0999 V2000
   20.1611    0.1355   -0.0000 C   0  0  0  0  0  0  0  0  0  0  0  0
   18.8672    0.9519    0.0000 C   0  0  0  0  0  0  0  0  0  0  0  0
   17.6661    0.0041   -0.0000 C   0  0  0  0  0  0  0  0  0  0  0  0
   16.3721    0.8206    0.0000 C   0  0  0  0  0  0  0  0  0  0  0  0
   15.1711   -0.1273   -0.0000 C   0  0  0  0  0  0  0  0  0  0  0  0
   13.8771    0.6892    0.0000 C   0  0  0  0  0  0  0  0  0  0  0  0
   12.6761   -0.2587   -0.0000 C   0  0  0  0  0  0  0  0  0  0  0  0
   11.3821    0.5578    0.0000 C   0  0  0  0  0  0  0  0  0  0  0  0
   10.1810   -0.3901   -0.0000 C   0  0  0  0  0  0  0  0  0  0  0  0
    8.8871    0.4264    0.0000 C   0  0  0  0  0  0  0  0  0  0  0  0
    7.6860   -0.5214   -0.0000 C   0  0  0  0  0  0  0  0  0  0  0  0
    6.3920    0.2950    0.0000 C   0  0  0  0  0  0  0  0  0  0  0  0
    5.1910   -0.6528   -0.0000 C   0  0  0  0  0  0  0  0  0  0  0  0
    3.8970    0.1636    0.0000 C   0  0  0  0  0  0  0  0  0  0  0  0
    2.6960   -0.7842   -0.0000 C   0  0  0  0  0  0  0  0  0  0  0  0
    1.4020    0.0322    0.0000 C   0  0  0  0  0  0  0  0  0  0  0  0
    0.2009   -0.9156    0.0000 C   0  0  0  0  0  0  0  0  0  0  0  0
   -1.0930   -0.0992    0.0000 C   0  0  0  0  0  0  0  0  0  0  0  0
   -2.2941   -1.0470    0.0000 C   0  0  0  0  0  0  0  0  0  0  0  0
   -3.5880   -0.2306    0.0000 C   0  0  0  0  0  0  0  0  0  0  0  0
   -4.7891   -1.1784    0.0000 C   0  0  0  0  0  0  0  0  0  0  0  0
   -6.0636   -0.3743    0.0000 C   0  0  0  0  0  0  0  0  0  0  0  0
   -6.0162    0.8324    0.0000 O   0  0  0  0  0  0  0  0  0  0  0  0
   -7.3973   -1.0759    0.0000 C   0  0  0  0  0  0  0  0  0  0  0  0
   -8.5203   -0.0368    0.0000 C   0  0  0  0  0  0  0  0  0  0  0  0
   -9.8743   -0.7492    0.0000 C   0  0  0  0  0  0  0  0  0  0  0  0
  -10.9973    0.2899   -0.0000 C   0  0  0  0  0  0  0  0  0  0  0  0
  -12.3513   -0.4225    0.0000 C   0  0  0  0  0  0  0  0  0  0  0  0
  -13.4743    0.6166   -0.0000 C   0  0  0  0  0  0  0  0  0  0  0  0
  -14.8284   -0.0957    0.0000 C   0  0  0  0  0  0  0  0  0  0  0  0
  -15.9514    0.9434   -0.0000 C   0  0  0  0  0  0  0  0  0  0  0  0
  -17.3054    0.2310    0.0000 C   0  0  0  0  0  0  0  0  0  0  0  0
  -18.4284    1.2701   -0.0000 C   0  0  0  0  0  0  0  0  0  0  0  0
  -19.7824    0.5577   -0.0000 C   0  0  0  0  0  0  0  0  0  0  0  0
   21.0168    0.8108    0.0000 H   0  0  0  0  0  0  0  0  0  0  0  0
   20.1942   -0.4929    0.8900 H   0  0  0  0  0  0  0  0  0  0  0  0
   20.1942   -0.4929   -0.8900 H   0  0  0  0  0  0  0  0  0  0  0  0
   18.8341    1.5804    0.8900 H   0  0  0  0  0  0  0  0  0  0  0  0
   18.8341    1.5804   -0.8900 H   0  0  0  0  0  0  0  0  0  0  0  0
   17.6992   -0.6243   -0.8900 H   0  0  0  0  0  0  0  0  0  0  0  0
   17.6992   -0.6243    0.8900 H   0  0  0  0  0  0  0  0  0  0  0  0
   16.3390    1.4490    0.8900 H   0  0  0  0  0  0  0  0  0  0  0  0
   16.3390    1.4490   -0.8900 H   0  0  0  0  0  0  0  0  0  0  0  0
   15.2042   -0.7557   -0.8900 H   0  0  0  0  0  0  0  0  0  0  0  0
   15.2042   -0.7557    0.8900 H   0  0  0  0  0  0  0  0  0  0  0  0
   13.8440    1.3176    0.8900 H   0  0  0  0  0  0  0  0  0  0  0  0
   13.8440    1.3176   -0.8900 H   0  0  0  0  0  0  0  0  0  0  0  0
   12.7091   -0.8871   -0.8900 H   0  0  0  0  0  0  0  0  0  0  0  0
   12.7091   -0.8871    0.8900 H   0  0  0  0  0  0  0  0  0  0  0  0
   11.3490    1.1862    0.8900 H   0  0  0  0  0  0  0  0  0  0  0  0
   11.3490    1.1862   -0.8900 H   0  0  0  0  0  0  0  0  0  0  0  0
   10.2141   -1.0185   -0.8900 H   0  0  0  0  0  0  0  0  0  0  0  0
   10.2141   -1.0185    0.8900 H   0  0  0  0  0  0  0  0  0  0  0  0
    8.8540    1.0548    0.8900 H   0  0  0  0  0  0  0  0  0  0  0  0
    8.8540    1.0548   -0.8900 H   0  0  0  0  0  0  0  0  0  0  0  0
    7.7191   -1.1499   -0.8900 H   0  0  0  0  0  0  0  0  0  0  0  0
    7.7191   -1.1499    0.8900 H   0  0  0  0  0  0  0  0  0  0  0  0
    6.3589    0.9234    0.8900 H   0  0  0  0  0  0  0  0  0  0  0  0
    6.3589    0.9234   -0.8900 H   0  0  0  0  0  0  0  0  0  0  0  0
    5.2241   -1.2813   -0.8900 H   0  0  0  0  0  0  0  0  0  0  0  0
    5.2241   -1.2813    0.8900 H   0  0  0  0  0  0  0  0  0  0  0  0
    3.8639    0.7920    0.8900 H   0  0  0  0  0  0  0  0  0  0  0  0
    3.8639    0.7920   -0.8900 H   0  0  0  0  0  0  0  0  0  0  0  0
    2.7291   -1.4127   -0.8900 H   0  0  0  0  0  0  0  0  0  0  0  0
    2.7291   -1.4127    0.8900 H   0  0  0  0  0  0  0  0  0  0  0  0
    1.3689    0.6606    0.8900 H   0  0  0  0  0  0  0  0  0  0  0  0
    1.3689    0.6606   -0.8900 H   0  0  0  0  0  0  0  0  0  0  0  0
    0.2340   -1.5441   -0.8900 H   0  0  0  0  0  0  0  0  0  0  0  0
    0.2340   -1.5441    0.8900 H   0  0  0  0  0  0  0  0  0  0  0  0
   -1.1261    0.5292    0.8900 H   0  0  0  0  0  0  0  0  0  0  0  0
   -1.1261    0.5292   -0.8900 H   0  0  0  0  0  0  0  0  0  0  0  0
   -2.2610   -1.6755   -0.8900 H   0  0  0  0  0  0  0  0  0  0  0  0
   -2.2610   -1.6755    0.8900 H   0  0  0  0  0  0  0  0  0  0  0  0
   -3.6211    0.3978    0.8900 H   0  0  0  0  0  0  0  0  0  0  0  0
   -3.6211    0.3978   -0.8900 H   0  0  0  0  0  0  0  0  0  0  0  0
   -4.7560   -1.8069   -0.8900 H   0  0  0  0  0  0  0  0  0  0  0  0
   -4.7560   -1.8069    0.8900 H   0  0  0  0  0  0  0  0  0  0  0  0
   -7.4796   -1.6999   -0.8900 H   0  0  0  0  0  0  0  0  0  0  0  0
   -7.4796   -1.6999    0.8900 H   0  0  0  0  0  0  0  0  0  0  0  0
   -8.4380    0.5871    0.8900 H   0  0  0  0  0  0  0  0  0  0  0  0
   -8.4380    0.5871   -0.8900 H   0  0  0  0  0  0  0  0  0  0  0  0
   -9.9566   -1.3731   -0.8900 H   0  0  0  0  0  0  0  0  0  0  0  0
   -9.9566   -1.3731    0.8900 H   0  0  0  0  0  0  0  0  0  0  0  0
  -10.9150    0.9138    0.8900 H   0  0  0  0  0  0  0  0  0  0  0  0
  -10.9150    0.9138   -0.8900 H   0  0  0  0  0  0  0  0  0  0  0  0
  -12.4336   -1.0464   -0.8900 H   0  0  0  0  0  0  0  0  0  0  0  0
  -12.4336   -1.0464    0.8900 H   0  0  0  0  0  0  0  0  0  0  0  0
  -13.3920    1.2406    0.8900 H   0  0  0  0  0  0  0  0  0  0  0  0
  -13.3920    1.2406   -0.8900 H   0  0  0  0  0  0  0  0  0  0  0  0
  -14.9107   -0.7197   -0.8900 H   0  0  0  0  0  0  0  0  0  0  0  0
  -14.9107   -0.7197    0.8900 H   0  0  0  0  0  0  0  0  0  0  0  0
  -15.8691    1.5673    0.8900 H   0  0  0  0  0  0  0  0  0  0  0  0
  -15.8691    1.5673   -0.8900 H   0  0  0  0  0  0  0  0  0  0  0  0
  -17.3877   -0.3929   -0.8900 H   0  0  0  0  0  0  0  0  0  0  0  0
  -17.3877   -0.3929    0.8900 H   0  0  0  0  0  0  0  0  0  0  0  0
  -18.3461    1.8940    0.8900 H   0  0  0  0  0  0  0  0  0  0  0  0
  -18.3461    1.8940   -0.8900 H   0  0  0  0  0  0  0  0  0  0  0  0
  -20.5825    1.2980   -0.0000 H   0  0  0  0  0  0  0  0  0  0  0  0
  -19.8647   -0.0662   -0.8900 H   0  0  0  0  0  0  0  0  0  0  0  0
  -19.8647   -0.0662    0.8900 H   0  0  0  0  0  0  0  0  0  0  0  0
  1  2  1  0  0  0  0
  2  3  1  0  0  0  0
  3  4  1  0  0  0  0
  4  5  1  0  0  0  0
  5  6  1  0  0  0  0
  6  7  1  0  0  0  0
  7  8  1  0  0  0  0
  8  9  1  0  0  0  0
  9 10  1  0  0  0  0
 10 11  1  0  0  0  0
 11 12  1  0  0  0  0
 12 13  1  0  0  0  0
 13 14  1  0  0  0  0
 14 15  1  0  0  0  0
 15 16  1  0  0  0  0
 16 17  1  0  0  0  0
 17 18  1  0  0  0  0
 18 19  1  0  0  0  0
 19 20  1  0  0  0  0
 20 21  1  0  0  0  0
 21 22  1  0  0  0  0
 22 23  2  0  0  0  0
 22 24  1  0  0  0  0
 24 25  1  0  0  0  0
 25 26  1  0  0  0  0
 26 27  1  0  0  0  0
 27 28  1  0  0  0  0
 28 29  1  0  0  0  0
 29 30  1  0  0  0  0
 30 31  1  0  0  0  0
 31 32  1  0  0  0  0
 32 33  1  0  0  0  0
 33 34  1  0  0  0  0
  1 35  1  0  0  0  0
  1 36  1  0  0  0  0
  1 37  1  0  0  0  0
  2 38  1  0  0  0  0
  2 39  1  0  0  0  0
  3 40  1  0  0  0  0
  3 41  1  0  0  0  0
  4 42  1  0  0  0  0
  4 43  1  0  0  0  0
  5 44  1  0  0  0  0
  5 45  1  0  0  0  0
  6 46  1  0  0  0  0
  6 47  1  0  0  0  0
  7 48  1  0  0  0  0
  7 49  1  0  0  0  0
  8 50  1  0  0  0  0
  8 51  1  0  0  0  0
  9 52  1  0  0  0  0
  9 53  1  0  0  0  0
 10 54  1  0  0  0  0
 10 55  1  0  0  0  0
 11 56  1  0  0  0  0
 11 57  1  0  0  0  0
 12 58  1  0  0  0  0
 12 59  1  0  0  0  0
 13 60  1  0  0  0  0
 13 61  1  0  0  0  0
 14 62  1  0  0  0  0
 14 63  1  0  0  0  0
 15 64  1  0  0  0  0
 15 65  1  0  0  0  0
 16 66  1  0  0  0  0
 16 67  1  0  0  0  0
 17 68  1  0  0  0  0
 17 69  1  0  0  0  0
 18 70  1  0  0  0  0
 18 71  1  0  0  0  0
 19 72  1  0  0  0  0
 19 73  1  0  0  0  0
 20 74  1  0  0  0  0
 20 75  1  0  0  0  0
 21 76  1  0  0  0  0
 21 77  1  0  0  0  0
 24 78  1  0  0  0  0
 24 79  1  0  0  0  0
 25 80  1  0  0  0  0
 25 81  1  0  0  0  0
 26 82  1  0  0  0  0
 26 83  1  0  0  0  0
 27 84  1  0  0  0  0
 27 85  1  0  0  0  0
 28 86  1  0  0  0  0
 28 87  1  0  0  0  0
 29 88  1  0  0  0  0
 29 89  1  0  0  0  0
 30 90  1  0  0  0  0
 30 91  1  0  0  0  0
 31 92  1  0  0  0  0
 31 93  1  0  0  0  0
 32 94  1  0  0  0  0
 32 95  1  0  0  0  0
 33 96  1  0  0  0  0
 33 97  1  0  0  0  0
 34 98  1  0  0  0  0
 34 99  1  0  0  0  0
 34100  1  0  0  0  0
M  END
$$$$
