C10H17NO
APtclcactv06291803013D 0   0.00000     0.00000
 
 29 29  0  0  0  0  0  0  0  0999 V2000
    4.0240   -1.5084   -0.0554 C   0  0  0  0  0  0  0  0  0  0  0  0
    2.6167   -1.1818    0.4483 C   0  0  0  0  0  0  0  0  0  0  0  0
    1.7910   -0.5878   -0.6947 C   0  0  0  0  0  0  0  0  0  0  0  0
    0.4049   -0.2661   -0.1985 C   0  0  0  0  0  0  0  0  0  0  0  0
    0.0002    0.8954    0.3414 C   0  0  0  0  0  0  0  0  0  0  0  0
   -1.3028    0.7703    0.6495 N   0  0  0  0  0  0  0  0  0  0  0  0
   -1.6981   -0.4249    0.3148 C   0  0  0  0  0  0  0  0  0  0  0  0
   -0.6631   -1.0875   -0.2184 O   0  0  0  0  0  0  0  0  0  0  0  0
   -3.0917   -0.9702    0.4927 C   0  0  0  0  0  0  0  0  0  0  0  0
   -3.9202   -0.6702   -0.7581 C   0  0  0  0  0  0  0  0  0  0  0  0
    0.8527    2.1184    0.5619 C   0  0  0  0  0  0  0  0  0  0  0  0
    0.7846    3.0173   -0.6743 C   0  0  0  0  0  0  0  0  0  0  0  0
    4.5024   -0.5968   -0.4137 H   0  0  0  0  0  0  0  0  0  0  0  0
    4.6123   -1.9315    0.7589 H   0  0  0  0  0  0  0  0  0  0  0  0
    3.9600   -2.2295   -0.8702 H   0  0  0  0  0  0  0  0  0  0  0  0
    2.1384   -2.0933    0.8066 H   0  0  0  0  0  0  0  0  0  0  0  0
    2.6808   -0.4606    1.2631 H   0  0  0  0  0  0  0  0  0  0  0  0
    2.2694    0.3237   -1.0529 H   0  0  0  0  0  0  0  0  0  0  0  0
    1.7270   -1.3090   -1.5095 H   0  0  0  0  0  0  0  0  0  0  0  0
   -3.0431   -2.0483    0.6463 H   0  0  0  0  0  0  0  0  0  0  0  0
   -3.5580   -0.5004    1.3587 H   0  0  0  0  0  0  0  0  0  0  0  0
   -4.9282   -1.0646   -0.6295 H   0  0  0  0  0  0  0  0  0  0  0  0
   -3.9688    0.4078   -0.9117 H   0  0  0  0  0  0  0  0  0  0  0  0
   -3.4540   -1.1400   -1.6241 H   0  0  0  0  0  0  0  0  0  0  0  0
    0.4851    2.6658    1.4299 H   0  0  0  0  0  0  0  0  0  0  0  0
    1.8854    1.8152    0.7342 H   0  0  0  0  0  0  0  0  0  0  0  0
    1.1522    2.4699   -1.5422 H   0  0  0  0  0  0  0  0  0  0  0  0
   -0.2481    3.3206   -0.8465 H   0  0  0  0  0  0  0  0  0  0  0  0
    1.4012    3.9019   -0.5147 H   0  0  0  0  0  0  0  0  0  0  0  0
  1  2  1  0  0  0  0
  2  3  1  0  0  0  0
  3  4  1  0  0  0  0
  4  5  2  0  0  0  0
  5  6  1  0  0  0  0
  6  7  2  0  0  0  0
  7  8  1  0  0  0  0
  4  8  1  0  0  0  0
  7  9  1  0  0  0  0
  9 10  1  0  0  0  0
  5 11  1  0  0  0  0
 11 12  1  0  0  0  0
  1 13  1  0  0  0  0
  1 14  1  0  0  0  0
  1 15  1  0  0  0  0
  2 16  1  0  0  0  0
  2 17  1  0  0  0  0
  3 18  1  0  0  0  0
  3 19  1  0  0  0  0
  9 20  1  0  0  0  0
  9 21  1  0  0  0  0
 10 22  1  0  0  0  0
 10 23  1  0  0  0  0
 10 24  1  0  0  0  0
 11 25  1  0  0  0  0
 11 26  1  0  0  0  0
 12 27  1  0  0  0  0
 12 28  1  0  0  0  0
 12 29  1  0  0  0  0
M  END
$$$$
