C16H16O4
APtclcactv06291803013D 0   0.00000     0.00000
 
 36 38  0  0  0  0  0  0  0  0999 V2000
    5.2984    1.2326   -0.1445 C   0  0  0  0  0  0  0  0  0  0  0  0
    3.9020    1.4981   -0.2913 O   0  0  0  0  0  0  0  0  0  0  0  0
    3.0512    0.4547   -0.0974 C   0  0  0  0  0  0  0  0  0  0  0  0
    1.6773    0.6494   -0.2263 C   0  0  0  0  0  0  0  0  0  0  0  0
    0.7976   -0.3972    0.0166 C   0  0  0  0  0  0  0  0  0  0  0  0
    1.3200   -1.6712    0.2780 C   0  0  0  0  0  0  0  0  0  0  0  0
    0.3820   -2.8412    0.4331 C   0  0  0  0  0  0  0  0  0  0  0  0
   -0.8242   -2.6701   -0.4952 C   0  0  0  0  0  0  0  0  0  0  0  0
   -1.4734   -1.3310   -0.2537 C   0  0  0  0  0  0  0  0  0  0  0  0
   -2.8386   -1.1965   -0.3674 C   0  0  0  0  0  0  0  0  0  0  0  0
   -3.4418    0.0291   -0.1175 C   0  0  0  0  0  0  0  0  0  0  0  0
   -2.6683    1.1115    0.2678 C   0  0  0  0  0  0  0  0  0  0  0  0
   -1.2909    0.9789    0.3847 C   0  0  0  0  0  0  0  0  0  0  0  0
   -0.6734   -0.2273    0.0727 C   0  0  0  0  0  0  0  0  0  0  0  0
   -0.5890    2.0335    0.8780 O   0  0  0  0  0  0  0  0  0  0  0  0
   -4.7865    0.1650   -0.2513 O   0  0  0  0  0  0  0  0  0  0  0  0
   -5.3386    1.4544    0.0221 C   0  0  0  0  0  0  0  0  0  0  0  0
    2.6803   -1.8610    0.3904 C   0  0  0  0  0  0  0  0  0  0  0  0
    3.5492   -0.8000    0.2122 C   0  0  0  0  0  0  0  0  0  0  0  0
    1.2425    1.8623   -0.6640 O   0  0  0  0  0  0  0  0  0  0  0  0
    5.8631    2.1471   -0.3254 H   0  0  0  0  0  0  0  0  0  0  0  0
    5.4963    0.8774    0.8669 H   0  0  0  0  0  0  0  0  0  0  0  0
    5.6009    0.4706   -0.8628 H   0  0  0  0  0  0  0  0  0  0  0  0
    0.9043   -3.7591    0.1745 H   0  0  0  0  0  0  0  0  0  0  0  0
    0.0348   -2.8911    1.4626 H   0  0  0  0  0  0  0  0  0  0  0  0
   -0.4902   -2.7276   -1.5286 H   0  0  0  0  0  0  0  0  0  0  0  0
   -1.5432   -3.4609   -0.2952 H   0  0  0  0  0  0  0  0  0  0  0  0
   -3.4441   -2.0452   -0.6512 H   0  0  0  0  0  0  0  0  0  0  0  0
   -3.1337    2.0630    0.4797 H   0  0  0  0  0  0  0  0  0  0  0  0
   -0.4859    2.0222    1.8394 H   0  0  0  0  0  0  0  0  0  0  0  0
   -6.4186    1.4252   -0.1222 H   0  0  0  0  0  0  0  0  0  0  0  0
   -5.1171    1.7336    1.0522 H   0  0  0  0  0  0  0  0  0  0  0  0
   -4.9013    2.1879   -0.6552 H   0  0  0  0  0  0  0  0  0  0  0  0
    3.0711   -2.8420    0.6193 H   0  0  0  0  0  0  0  0  0  0  0  0
    4.6132   -0.9507    0.3121 H   0  0  0  0  0  0  0  0  0  0  0  0
    1.1543    1.9252   -1.6249 H   0  0  0  0  0  0  0  0  0  0  0  0
  1  2  1  0  0  0  0
  2  3  1  0  0  0  0
  3  4  2  0  0  0  0
  4  5  1  0  0  0  0
  5  6  2  0  0  0  0
  6  7  1  0  0  0  0
  7  8  1  0  0  0  0
  8  9  1  0  0  0  0
  9 10  2  0  0  0  0
 10 11  1  0  0  0  0
 11 12  2  0  0  0  0
 12 13  1  0  0  0  0
 13 14  2  0  0  0  0
  9 14  1  0  0  0  0
  5 14  1  0  0  0  0
 13 15  1  0  0  0  0
 11 16  1  0  0  0  0
 16 17  1  0  0  0  0
  6 18  1  0  0  0  0
 18 19  2  0  0  0  0
  3 19  1  0  0  0  0
  4 20  1  0  0  0  0
  1 21  1  0  0  0  0
  1 22  1  0  0  0  0
  1 23  1  0  0  0  0
  7 24  1  0  0  0  0
  7 25  1  0  0  0  0
  8 26  1  0  0  0  0
  8 27  1  0  0  0  0
 10 28  1  0  0  0  0
 12 29  1  0  0  0  0
 15 30  1  0  0  0  0
 17 31  1  0  0  0  0
 17 32  1  0  0  0  0
 17 33  1  0  0  0  0
 18 34  1  0  0  0  0
 19 35  1  0  0  0  0
 20 36  1  0  0  0  0
M  END
$$$$
