C33H66O
APtclcactv06291803023D 0   0.00000     0.00000
 
100 99  0  0  0  0  0  0  0  0999 V2000
   20.3157   -0.1190   -0.0000 C   0  0  0  0  0  0  0  0  0  0  0  0
   19.0430    0.7302    0.0000 C   0  0  0  0  0  0  0  0  0  0  0  0
   17.8181   -0.1866   -0.0000 C   0  0  0  0  0  0  0  0  0  0  0  0
   16.5455    0.6626    0.0000 C   0  0  0  0  0  0  0  0  0  0  0  0
   15.3206   -0.2542   -0.0000 C   0  0  0  0  0  0  0  0  0  0  0  0
   14.0479    0.5951    0.0000 C   0  0  0  0  0  0  0  0  0  0  0  0
   12.8230   -0.3218   -0.0000 C   0  0  0  0  0  0  0  0  0  0  0  0
   11.5503    0.5275    0.0000 C   0  0  0  0  0  0  0  0  0  0  0  0
   10.3254   -0.3893   -0.0000 C   0  0  0  0  0  0  0  0  0  0  0  0
    9.0528    0.4599    0.0000 C   0  0  0  0  0  0  0  0  0  0  0  0
    7.8279   -0.4569   -0.0000 C   0  0  0  0  0  0  0  0  0  0  0  0
    6.5552    0.3923    0.0000 C   0  0  0  0  0  0  0  0  0  0  0  0
    5.3303   -0.5245   -0.0000 C   0  0  0  0  0  0  0  0  0  0  0  0
    4.0576    0.3247    0.0000 C   0  0  0  0  0  0  0  0  0  0  0  0
    2.8327   -0.5921   -0.0000 C   0  0  0  0  0  0  0  0  0  0  0  0
    1.5601    0.2572    0.0000 C   0  0  0  0  0  0  0  0  0  0  0  0
    0.3352   -0.6597    0.0000 C   0  0  0  0  0  0  0  0  0  0  0  0
   -0.9375    0.1896    0.0000 C   0  0  0  0  0  0  0  0  0  0  0  0
   -2.1624   -0.7272    0.0000 C   0  0  0  0  0  0  0  0  0  0  0  0
   -3.4351    0.1220    0.0000 C   0  0  0  0  0  0  0  0  0  0  0  0
   -4.6599   -0.7948    0.0000 C   0  0  0  0  0  0  0  0  0  0  0  0
   -5.9326    0.0544    0.0000 C   0  0  0  0  0  0  0  0  0  0  0  0
   -7.1575   -0.8624    0.0000 C   0  0  0  0  0  0  0  0  0  0  0  0
   -8.4302   -0.0132    0.0000 C   0  0  0  0  0  0  0  0  0  0  0  0
   -9.6551   -0.9300    0.0000 C   0  0  0  0  0  0  0  0  0  0  0  0
  -10.9086   -0.0935    0.0000 C   0  0  0  0  0  0  0  0  0  0  0  0
  -10.8304    1.1115   -0.0000 O   0  0  0  0  0  0  0  0  0  0  0  0
  -12.2598   -0.7609    0.0000 C   0  0  0  0  0  0  0  0  0  0  0  0
  -13.3559    0.3066   -0.0000 C   0  0  0  0  0  0  0  0  0  0  0  0
  -14.7277   -0.3709    0.0000 C   0  0  0  0  0  0  0  0  0  0  0  0
  -15.8237    0.6965   -0.0000 C   0  0  0  0  0  0  0  0  0  0  0  0
  -17.1955    0.0190   -0.0000 C   0  0  0  0  0  0  0  0  0  0  0  0
  -18.2916    1.0865   -0.0000 C   0  0  0  0  0  0  0  0  0  0  0  0
  -19.6634    0.4089   -0.0000 C   0  0  0  0  0  0  0  0  0  0  0  0
   20.3327   -0.7481    0.8900 H   0  0  0  0  0  0  0  0  0  0  0  0
   20.3327   -0.7481   -0.8900 H   0  0  0  0  0  0  0  0  0  0  0  0
   21.1883    0.5341    0.0000 H   0  0  0  0  0  0  0  0  0  0  0  0
   19.0260    1.3593    0.8900 H   0  0  0  0  0  0  0  0  0  0  0  0
   19.0260    1.3593   -0.8900 H   0  0  0  0  0  0  0  0  0  0  0  0
   17.8352   -0.8157   -0.8900 H   0  0  0  0  0  0  0  0  0  0  0  0
   17.8352   -0.8157    0.8900 H   0  0  0  0  0  0  0  0  0  0  0  0
   16.5284    1.2917    0.8900 H   0  0  0  0  0  0  0  0  0  0  0  0
   16.5284    1.2917   -0.8900 H   0  0  0  0  0  0  0  0  0  0  0  0
   15.3376   -0.8833   -0.8900 H   0  0  0  0  0  0  0  0  0  0  0  0
   15.3376   -0.8833    0.8900 H   0  0  0  0  0  0  0  0  0  0  0  0
   14.0309    1.2241    0.8900 H   0  0  0  0  0  0  0  0  0  0  0  0
   14.0309    1.2241   -0.8900 H   0  0  0  0  0  0  0  0  0  0  0  0
   12.8400   -0.9508   -0.8900 H   0  0  0  0  0  0  0  0  0  0  0  0
   12.8400   -0.9508    0.8900 H   0  0  0  0  0  0  0  0  0  0  0  0
   11.5333    1.1566    0.8900 H   0  0  0  0  0  0  0  0  0  0  0  0
   11.5333    1.1566   -0.8900 H   0  0  0  0  0  0  0  0  0  0  0  0
   10.3425   -1.0184   -0.8900 H   0  0  0  0  0  0  0  0  0  0  0  0
   10.3425   -1.0184    0.8900 H   0  0  0  0  0  0  0  0  0  0  0  0
    9.0357    1.0890    0.8900 H   0  0  0  0  0  0  0  0  0  0  0  0
    9.0357    1.0890   -0.8900 H   0  0  0  0  0  0  0  0  0  0  0  0
    7.8449   -1.0860   -0.8900 H   0  0  0  0  0  0  0  0  0  0  0  0
    7.8449   -1.0860    0.8900 H   0  0  0  0  0  0  0  0  0  0  0  0
    6.5382    1.0214    0.8900 H   0  0  0  0  0  0  0  0  0  0  0  0
    6.5382    1.0214   -0.8900 H   0  0  0  0  0  0  0  0  0  0  0  0
    5.3473   -1.1536   -0.8900 H   0  0  0  0  0  0  0  0  0  0  0  0
    5.3473   -1.1536    0.8900 H   0  0  0  0  0  0  0  0  0  0  0  0
    4.0406    0.9538    0.8900 H   0  0  0  0  0  0  0  0  0  0  0  0
    4.0406    0.9538   -0.8900 H   0  0  0  0  0  0  0  0  0  0  0  0
    2.8498   -1.2212   -0.8900 H   0  0  0  0  0  0  0  0  0  0  0  0
    2.8498   -1.2212    0.8900 H   0  0  0  0  0  0  0  0  0  0  0  0
    1.5430    0.8862    0.8900 H   0  0  0  0  0  0  0  0  0  0  0  0
    1.5430    0.8862   -0.8900 H   0  0  0  0  0  0  0  0  0  0  0  0
    0.3522   -1.2887   -0.8900 H   0  0  0  0  0  0  0  0  0  0  0  0
    0.3522   -1.2887    0.8900 H   0  0  0  0  0  0  0  0  0  0  0  0
   -0.9545    0.8187    0.8900 H   0  0  0  0  0  0  0  0  0  0  0  0
   -0.9545    0.8187   -0.8900 H   0  0  0  0  0  0  0  0  0  0  0  0
   -2.1454   -1.3563   -0.8900 H   0  0  0  0  0  0  0  0  0  0  0  0
   -2.1454   -1.3563    0.8900 H   0  0  0  0  0  0  0  0  0  0  0  0
   -3.4521    0.7511    0.8900 H   0  0  0  0  0  0  0  0  0  0  0  0
   -3.4521    0.7511   -0.8900 H   0  0  0  0  0  0  0  0  0  0  0  0
   -4.6429   -1.4239   -0.8900 H   0  0  0  0  0  0  0  0  0  0  0  0
   -4.6429   -1.4239    0.8900 H   0  0  0  0  0  0  0  0  0  0  0  0
   -5.9496    0.6835    0.8900 H   0  0  0  0  0  0  0  0  0  0  0  0
   -5.9496    0.6835   -0.8900 H   0  0  0  0  0  0  0  0  0  0  0  0
   -7.1405   -1.4915   -0.8900 H   0  0  0  0  0  0  0  0  0  0  0  0
   -7.1405   -1.4915    0.8900 H   0  0  0  0  0  0  0  0  0  0  0  0
   -8.4472    0.6159    0.8900 H   0  0  0  0  0  0  0  0  0  0  0  0
   -8.4472    0.6159   -0.8900 H   0  0  0  0  0  0  0  0  0  0  0  0
   -9.6381   -1.5591   -0.8900 H   0  0  0  0  0  0  0  0  0  0  0  0
   -9.6381   -1.5591    0.8900 H   0  0  0  0  0  0  0  0  0  0  0  0
  -12.3580   -1.3825   -0.8900 H   0  0  0  0  0  0  0  0  0  0  0  0
  -12.3580   -1.3825    0.8900 H   0  0  0  0  0  0  0  0  0  0  0  0
  -13.2576    0.9282    0.8900 H   0  0  0  0  0  0  0  0  0  0  0  0
  -13.2576    0.9282   -0.8900 H   0  0  0  0  0  0  0  0  0  0  0  0
  -14.8259   -0.9925   -0.8900 H   0  0  0  0  0  0  0  0  0  0  0  0
  -14.8259   -0.9925    0.8900 H   0  0  0  0  0  0  0  0  0  0  0  0
  -15.7255    1.3181    0.8900 H   0  0  0  0  0  0  0  0  0  0  0  0
  -15.7255    1.3181   -0.8900 H   0  0  0  0  0  0  0  0  0  0  0  0
  -17.2937   -0.6026   -0.8900 H   0  0  0  0  0  0  0  0  0  0  0  0
  -17.2937   -0.6026    0.8900 H   0  0  0  0  0  0  0  0  0  0  0  0
  -18.1934    1.7081    0.8900 H   0  0  0  0  0  0  0  0  0  0  0  0
  -18.1934    1.7081   -0.8900 H   0  0  0  0  0  0  0  0  0  0  0  0
  -20.4442    1.1694   -0.0000 H   0  0  0  0  0  0  0  0  0  0  0  0
  -19.7616   -0.2127   -0.8900 H   0  0  0  0  0  0  0  0  0  0  0  0
  -19.7616   -0.2127    0.8900 H   0  0  0  0  0  0  0  0  0  0  0  0
  1  2  1  0  0  0  0
  2  3  1  0  0  0  0
  3  4  1  0  0  0  0
  4  5  1  0  0  0  0
  5  6  1  0  0  0  0
  6  7  1  0  0  0  0
  7  8  1  0  0  0  0
  8  9  1  0  0  0  0
  9 10  1  0  0  0  0
 10 11  1  0  0  0  0
 11 12  1  0  0  0  0
 12 13  1  0  0  0  0
 13 14  1  0  0  0  0
 14 15  1  0  0  0  0
 15 16  1  0  0  0  0
 16 17  1  0  0  0  0
 17 18  1  0  0  0  0
 18 19  1  0  0  0  0
 19 20  1  0  0  0  0
 20 21  1  0  0  0  0
 21 22  1  0  0  0  0
 22 23  1  0  0  0  0
 23 24  1  0  0  0  0
 24 25  1  0  0  0  0
 25 26  1  0  0  0  0
 26 27  2  0  0  0  0
 26 28  1  0  0  0  0
 28 29  1  0  0  0  0
 29 30  1  0  0  0  0
 30 31  1  0  0  0  0
 31 32  1  0  0  0  0
 32 33  1  0  0  0  0
 33 34  1  0  0  0  0
  1 35  1  0  0  0  0
  1 36  1  0  0  0  0
  1 37  1  0  0  0  0
  2 38  1  0  0  0  0
  2 39  1  0  0  0  0
  3 40  1  0  0  0  0
  3 41  1  0  0  0  0
  4 42  1  0  0  0  0
  4 43  1  0  0  0  0
  5 44  1  0  0  0  0
  5 45  1  0  0  0  0
  6 46  1  0  0  0  0
  6 47  1  0  0  0  0
  7 48  1  0  0  0  0
  7 49  1  0  0  0  0
  8 50  1  0  0  0  0
  8 51  1  0  0  0  0
  9 52  1  0  0  0  0
  9 53  1  0  0  0  0
 10 54  1  0  0  0  0
 10 55  1  0  0  0  0
 11 56  1  0  0  0  0
 11 57  1  0  0  0  0
 12 58  1  0  0  0  0
 12 59  1  0  0  0  0
 13 60  1  0  0  0  0
 13 61  1  0  0  0  0
 14 62  1  0  0  0  0
 14 63  1  0  0  0  0
 15 64  1  0  0  0  0
 15 65  1  0  0  0  0
 16 66  1  0  0  0  0
 16 67  1  0  0  0  0
 17 68  1  0  0  0  0
 17 69  1  0  0  0  0
 18 70  1  0  0  0  0
 18 71  1  0  0  0  0
 19 72  1  0  0  0  0
 19 73  1  0  0  0  0
 20 74  1  0  0  0  0
 20 75  1  0  0  0  0
 21 76  1  0  0  0  0
 21 77  1  0  0  0  0
 22 78  1  0  0  0  0
 22 79  1  0  0  0  0
 23 80  1  0  0  0  0
 23 81  1  0  0  0  0
 24 82  1  0  0  0  0
 24 83  1  0  0  0  0
 25 84  1  0  0  0  0
 25 85  1  0  0  0  0
 28 86  1  0  0  0  0
 28 87  1  0  0  0  0
 29 88  1  0  0  0  0
 29 89  1  0  0  0  0
 30 90  1  0  0  0  0
 30 91  1  0  0  0  0
 31 92  1  0  0  0  0
 31 93  1  0  0  0  0
 32 94  1  0  0  0  0
 32 95  1  0  0  0  0
 33 96  1  0  0  0  0
 33 97  1  0  0  0  0
 34 98  1  0  0  0  0
 34 99  1  0  0  0  0
 34100  1  0  0  0  0
M  END
$$$$
