C22H16O5
APtclcactv06291803023D 0   0.00000     0.00000
 
 43 46  0  0  0  0  0  0  0  0999 V2000
    7.3874   -0.0475   -0.3538 C   0  0  0  0  0  0  0  0  0  0  0  0
    5.8948   -0.0101   -0.1497 C   0  0  0  0  0  0  0  0  0  0  0  0
    5.3408    0.9659    0.6715 C   0  0  0  0  0  0  0  0  0  0  0  0
    3.9788    1.0232    0.8763 C   0  0  0  0  0  0  0  0  0  0  0  0
    3.1431    0.0808    0.2443 C   0  0  0  0  0  0  0  0  0  0  0  0
    3.7180   -0.9092   -0.5908 C   0  0  0  0  0  0  0  0  0  0  0  0
    5.1089   -0.9302   -0.7774 C   0  0  0  0  0  0  0  0  0  0  0  0
    2.8879   -1.8545   -1.2251 C   0  0  0  0  0  0  0  0  0  0  0  0
    1.5447   -1.8176   -1.0377 C   0  0  0  0  0  0  0  0  0  0  0  0
    0.9570   -0.8427   -0.2134 C   0  0  0  0  0  0  0  0  0  0  0  0
    1.7486    0.1070    0.4295 C   0  0  0  0  0  0  0  0  0  0  0  0
    1.1808    1.0469    1.2248 O   0  0  0  0  0  0  0  0  0  0  0  0
   -0.5085   -0.8246   -0.0274 C   0  0  0  0  0  0  0  0  0  0  0  0
   -1.2649    0.2685   -0.4986 C   0  0  0  0  0  0  0  0  0  0  0  0
   -2.6466    0.2745   -0.3180 C   0  0  0  0  0  0  0  0  0  0  0  0
   -3.2734   -0.8090    0.3321 C   0  0  0  0  0  0  0  0  0  0  0  0
   -2.5114   -1.8813    0.7916 C   0  0  0  0  0  0  0  0  0  0  0  0
   -1.1420   -1.8895    0.6077 C   0  0  0  0  0  0  0  0  0  0  0  0
   -4.7352   -0.7902    0.5172 C   0  0  0  0  0  0  0  0  0  0  0  0
   -5.2913   -1.7163    1.0761 O   0  0  0  0  0  0  0  0  0  0  0  0
   -5.5209    0.3541    0.0239 C   0  0  0  0  0  0  0  0  0  0  0  0
   -4.9250    1.3841   -0.5942 C   0  0  0  0  0  0  0  0  0  0  0  0
   -3.4658    1.4018   -0.7981 C   0  0  0  0  0  0  0  0  0  0  0  0
   -2.9395    2.3428   -1.3604 O   0  0  0  0  0  0  0  0  0  0  0  0
   -7.0156    0.3670    0.2160 C   0  0  0  0  0  0  0  0  0  0  0  0
   -0.6535    1.3038   -1.1210 O   0  0  0  0  0  0  0  0  0  0  0  0
    3.4472    1.9790    1.6803 O   0  0  0  0  0  0  0  0  0  0  0  0
    7.8422   -0.6832    0.4059 H   0  0  0  0  0  0  0  0  0  0  0  0
    7.6089   -0.4481   -1.3430 H   0  0  0  0  0  0  0  0  0  0  0  0
    7.7907    0.9619   -0.2720 H   0  0  0  0  0  0  0  0  0  0  0  0
    5.9845    1.6864    1.1541 H   0  0  0  0  0  0  0  0  0  0  0  0
    5.5573   -1.6802   -1.4121 H   0  0  0  0  0  0  0  0  0  0  0  0
    3.3221   -2.6104   -1.8626 H   0  0  0  0  0  0  0  0  0  0  0  0
    0.9183   -2.5474   -1.5291 H   0  0  0  0  0  0  0  0  0  0  0  0
    1.0980    0.7807    2.1508 H   0  0  0  0  0  0  0  0  0  0  0  0
   -2.9929   -2.7101    1.2892 H   0  0  0  0  0  0  0  0  0  0  0  0
   -0.5579   -2.7242    0.9662 H   0  0  0  0  0  0  0  0  0  0  0  0
   -5.5225    2.2115   -0.9475 H   0  0  0  0  0  0  0  0  0  0  0  0
   -7.2556    0.8428    1.1668 H   0  0  0  0  0  0  0  0  0  0  0  0
   -7.4816    0.9240   -0.5968 H   0  0  0  0  0  0  0  0  0  0  0  0
   -7.3906   -0.6565    0.2169 H   0  0  0  0  0  0  0  0  0  0  0  0
   -0.5790    1.1981   -2.0793 H   0  0  0  0  0  0  0  0  0  0  0  0
    3.2113    2.7951    1.2182 H   0  0  0  0  0  0  0  0  0  0  0  0
  1  2  1  0  0  0  0
  2  3  2  0  0  0  0
  3  4  1  0  0  0  0
  4  5  2  0  0  0  0
  5  6  1  0  0  0  0
  6  7  2  0  0  0  0
  2  7  1  0  0  0  0
  6  8  1  0  0  0  0
  8  9  2  0  0  0  0
  9 10  1  0  0  0  0
 10 11  2  0  0  0  0
  5 11  1  0  0  0  0
 11 12  1  0  0  0  0
 10 13  1  0  0  0  0
 13 14  2  0  0  0  0
 14 15  1  0  0  0  0
 15 16  2  0  0  0  0
 16 17  1  0  0  0  0
 17 18  2  0  0  0  0
 13 18  1  0  0  0  0
 16 19  1  0  0  0  0
 19 20  2  0  0  0  0
 19 21  1  0  0  0  0
 21 22  2  0  0  0  0
 22 23  1  0  0  0  0
 15 23  1  0  0  0  0
 23 24  2  0  0  0  0
 21 25  1  0  0  0  0
 14 26  1  0  0  0  0
  4 27  1  0  0  0  0
  1 28  1  0  0  0  0
  1 29  1  0  0  0  0
  1 30  1  0  0  0  0
  3 31  1  0  0  0  0
  7 32  1  0  0  0  0
  8 33  1  0  0  0  0
  9 34  1  0  0  0  0
 12 35  1  0  0  0  0
 17 36  1  0  0  0  0
 18 37  1  0  0  0  0
 22 38  1  0  0  0  0
 25 39  1  0  0  0  0
 25 40  1  0  0  0  0
 25 41  1  0  0  0  0
 26 42  1  0  0  0  0
 27 43  1  0  0  0  0
M  END
$$$$
