C24H42O4
APtclcactv06291803023D 0   0.00000     0.00000
 
 70 70  0  0  0  0  0  0  0  0999 V2000
   14.0840    0.9993   -0.7475 C   0  0  0  0  0  0  0  0  0  0  0  0
   12.9179    0.3965    0.0385 C   0  0  0  0  0  0  0  0  0  0  0  0
   11.5978    0.7785   -0.6342 C   0  0  0  0  0  0  0  0  0  0  0  0
   10.4317    0.1758    0.1518 C   0  0  0  0  0  0  0  0  0  0  0  0
    9.1117    0.5578   -0.5209 C   0  0  0  0  0  0  0  0  0  0  0  0
    7.9456   -0.0450    0.2651 C   0  0  0  0  0  0  0  0  0  0  0  0
    6.6256    0.3370   -0.4076 C   0  0  0  0  0  0  0  0  0  0  0  0
    5.4595   -0.2657    0.3784 C   0  0  0  0  0  0  0  0  0  0  0  0
    4.1394    0.1163   -0.2943 C   0  0  0  0  0  0  0  0  0  0  0  0
    2.9733   -0.4865    0.4917 C   0  0  0  0  0  0  0  0  0  0  0  0
    1.6533   -0.1045   -0.1810 C   0  0  0  0  0  0  0  0  0  0  0  0
    0.4872   -0.7073    0.6050 C   0  0  0  0  0  0  0  0  0  0  0  0
   -0.8353   -0.2237    0.0066 C   0  0  0  0  0  0  0  0  0  0  0  0
   -1.9975   -0.7246    0.8663 C   0  0  0  0  0  0  0  0  0  0  0  0
   -3.3098   -0.1391    0.3410 C   0  0  0  0  0  0  0  0  0  0  0  0
   -4.4556   -0.5383    1.2731 C   0  0  0  0  0  0  0  0  0  0  0  0
   -5.7482    0.0384    0.7556 C   0  0  0  0  0  0  0  0  0  0  0  0
   -6.5221   -0.6884   -0.1297 C   0  0  0  0  0  0  0  0  0  0  0  0
   -7.7109   -0.1596   -0.6064 C   0  0  0  0  0  0  0  0  0  0  0  0
   -8.1227    1.1033   -0.1919 C   0  0  0  0  0  0  0  0  0  0  0  0
   -7.3423    1.8266    0.6957 C   0  0  0  0  0  0  0  0  0  0  0  0
   -6.1602    1.2908    1.1718 C   0  0  0  0  0  0  0  0  0  0  0  0
   -9.2884    1.6268   -0.6573 O   0  0  0  0  0  0  0  0  0  0  0  0
   -9.6480    2.9280   -0.1888 C   0  0  0  0  0  0  0  0  0  0  0  0
   -8.4732   -0.8731   -1.4777 O   0  0  0  0  0  0  0  0  0  0  0  0
   -7.9879   -2.1618   -1.8596 C   0  0  0  0  0  0  0  0  0  0  0  0
   -2.0544   -2.1512    0.8059 O   0  0  0  0  0  0  0  0  0  0  0  0
    0.5500   -2.1330    0.5320 O   0  0  0  0  0  0  0  0  0  0  0  0
   15.0244    0.7271   -0.2683 H   0  0  0  0  0  0  0  0  0  0  0  0
   14.0716    0.6153   -1.7676 H   0  0  0  0  0  0  0  0  0  0  0  0
   13.9867    2.0847   -0.7667 H   0  0  0  0  0  0  0  0  0  0  0  0
   13.0151   -0.6890    0.0576 H   0  0  0  0  0  0  0  0  0  0  0  0
   12.9303    0.7804    1.0585 H   0  0  0  0  0  0  0  0  0  0  0  0
   11.5006    1.8640   -0.6533 H   0  0  0  0  0  0  0  0  0  0  0  0
   11.5854    0.3946   -1.6543 H   0  0  0  0  0  0  0  0  0  0  0  0
   10.5290   -0.9097    0.1709 H   0  0  0  0  0  0  0  0  0  0  0  0
   10.4441    0.5597    1.1718 H   0  0  0  0  0  0  0  0  0  0  0  0
    9.0144    1.6432   -0.5400 H   0  0  0  0  0  0  0  0  0  0  0  0
    9.0993    0.1738   -1.5410 H   0  0  0  0  0  0  0  0  0  0  0  0
    8.0429   -1.1305    0.2842 H   0  0  0  0  0  0  0  0  0  0  0  0
    7.9580    0.3389    1.2852 H   0  0  0  0  0  0  0  0  0  0  0  0
    6.5283    1.4225   -0.4267 H   0  0  0  0  0  0  0  0  0  0  0  0
    6.6132   -0.0469   -1.4277 H   0  0  0  0  0  0  0  0  0  0  0  0
    5.5567   -1.3512    0.3975 H   0  0  0  0  0  0  0  0  0  0  0  0
    5.4719    0.1182    1.3985 H   0  0  0  0  0  0  0  0  0  0  0  0
    4.0422    1.2017   -0.3134 H   0  0  0  0  0  0  0  0  0  0  0  0
    4.1270   -0.2677   -1.3144 H   0  0  0  0  0  0  0  0  0  0  0  0
    3.0706   -1.5720    0.5108 H   0  0  0  0  0  0  0  0  0  0  0  0
    2.9857   -0.1026    1.5118 H   0  0  0  0  0  0  0  0  0  0  0  0
    1.5561    0.9810   -0.2001 H   0  0  0  0  0  0  0  0  0  0  0  0
    1.6409   -0.4884   -1.2011 H   0  0  0  0  0  0  0  0  0  0  0  0
    0.5507   -0.3936    1.6470 H   0  0  0  0  0  0  0  0  0  0  0  0
   -0.8455    0.8660   -0.0191 H   0  0  0  0  0  0  0  0  0  0  0  0
   -0.9391   -0.6120   -1.0066 H   0  0  0  0  0  0  0  0  0  0  0  0
   -1.8472   -0.4104    1.8992 H   0  0  0  0  0  0  0  0  0  0  0  0
   -3.2336    0.9476    0.3037 H   0  0  0  0  0  0  0  0  0  0  0  0
   -3.5046   -0.5243   -0.6599 H   0  0  0  0  0  0  0  0  0  0  0  0
   -4.5318   -1.6250    1.3104 H   0  0  0  0  0  0  0  0  0  0  0  0
   -4.2608   -0.1531    2.2740 H   0  0  0  0  0  0  0  0  0  0  0  0
   -6.2001   -1.6682   -0.4501 H   0  0  0  0  0  0  0  0  0  0  0  0
   -7.6596    2.8070    1.0189 H   0  0  0  0  0  0  0  0  0  0  0  0
   -5.5527    1.8555    1.8636 H   0  0  0  0  0  0  0  0  0  0  0  0
   -9.7483    2.9086    0.8964 H   0  0  0  0  0  0  0  0  0  0  0  0
   -8.8737    3.6420   -0.4694 H   0  0  0  0  0  0  0  0  0  0  0  0
  -10.5963    3.2260   -0.6361 H   0  0  0  0  0  0  0  0  0  0  0  0
   -7.0152   -2.0560   -2.3401 H   0  0  0  0  0  0  0  0  0  0  0  0
   -7.8894   -2.7899   -0.9743 H   0  0  0  0  0  0  0  0  0  0  0  0
   -8.6888   -2.6224   -2.5558 H   0  0  0  0  0  0  0  0  0  0  0  0
   -2.1869   -2.5021   -0.0853 H   0  0  0  0  0  0  0  0  0  0  0  0
    0.4990   -2.4834   -0.3678 H   0  0  0  0  0  0  0  0  0  0  0  0
  1  2  1  0  0  0  0
  2  3  1  0  0  0  0
  3  4  1  0  0  0  0
  4  5  1  0  0  0  0
  5  6  1  0  0  0  0
  6  7  1  0  0  0  0
  7  8  1  0  0  0  0
  8  9  1  0  0  0  0
  9 10  1  0  0  0  0
 10 11  1  0  0  0  0
 11 12  1  0  0  0  0
 12 13  1  0  0  0  0
 13 14  1  0  0  0  0
 14 15  1  0  0  0  0
 15 16  1  0  0  0  0
 16 17  1  0  0  0  0
 17 18  2  0  0  0  0
 18 19  1  0  0  0  0
 19 20  2  0  0  0  0
 20 21  1  0  0  0  0
 21 22  2  0  0  0  0
 17 22  1  0  0  0  0
 20 23  1  0  0  0  0
 23 24  1  0  0  0  0
 19 25  1  0  0  0  0
 25 26  1  0  0  0  0
 14 27  1  0  0  0  0
 12 28  1  0  0  0  0
  1 29  1  0  0  0  0
  1 30  1  0  0  0  0
  1 31  1  0  0  0  0
  2 32  1  0  0  0  0
  2 33  1  0  0  0  0
  3 34  1  0  0  0  0
  3 35  1  0  0  0  0
  4 36  1  0  0  0  0
  4 37  1  0  0  0  0
  5 38  1  0  0  0  0
  5 39  1  0  0  0  0
  6 40  1  0  0  0  0
  6 41  1  0  0  0  0
  7 42  1  0  0  0  0
  7 43  1  0  0  0  0
  8 44  1  0  0  0  0
  8 45  1  0  0  0  0
  9 46  1  0  0  0  0
  9 47  1  0  0  0  0
 10 48  1  0  0  0  0
 10 49  1  0  0  0  0
 11 50  1  0  0  0  0
 11 51  1  0  0  0  0
 12 52  1  0  0  0  0
 13 53  1  0  0  0  0
 13 54  1  0  0  0  0
 14 55  1  0  0  0  0
 15 56  1  0  0  0  0
 15 57  1  0  0  0  0
 16 58  1  0  0  0  0
 16 59  1  0  0  0  0
 18 60  1  0  0  0  0
 21 61  1  0  0  0  0
 22 62  1  0  0  0  0
 24 63  1  0  0  0  0
 24 64  1  0  0  0  0
 24 65  1  0  0  0  0
 26 66  1  0  0  0  0
 26 67  1  0  0  0  0
 26 68  1  0  0  0  0
 27 69  1  0  0  0  0
 28 70  1  0  0  0  0
M  END
$$$$
