C9H10O4
APtclcactv06211804433D 0   0.00000     0.00000
 
 23 23  0  0  0  0  0  0  0  0999 V2000
    3.5753    0.9885    0.0071 C   0  0  0  0  0  0  0  0  0  0  0  0
    2.7881   -0.2041    0.0121 O   0  0  0  0  0  0  0  0  0  0  0  0
    1.4367   -0.0519    0.0090 C   0  0  0  0  0  0  0  0  0  0  0  0
    0.8852    1.2144    0.0014 C   0  0  0  0  0  0  0  0  0  0  0  0
   -0.5062    1.3700   -0.0023 C   0  0  0  0  0  0  0  0  0  0  0  0
   -1.3335    0.2405    0.0019 C   0  0  0  0  0  0  0  0  0  0  0  0
   -0.7748   -1.0226    0.0095 C   0  0  0  0  0  0  0  0  0  0  0  0
    0.6102   -1.1735    0.0077 C   0  0  0  0  0  0  0  0  0  0  0  0
    1.1562   -2.4173    0.0148 O   0  0  0  0  0  0  0  0  0  0  0  0
   -1.5776   -2.1204    0.0135 O   0  0  0  0  0  0  0  0  0  0  0  0
   -2.9883   -1.8925    0.0095 C   0  0  0  0  0  0  0  0  0  0  0  0
   -1.0965    2.7148   -0.0099 C   0  0  0  0  0  0  0  0  0  0  0  0
   -2.3021    2.8479   -0.0130 O   0  0  0  0  0  0  0  0  0  0  0  0
    3.3481    1.5701   -0.8864 H   0  0  0  0  0  0  0  0  0  0  0  0
    3.3451    1.5795    0.8935 H   0  0  0  0  0  0  0  0  0  0  0  0
    4.6331    0.7257    0.0102 H   0  0  0  0  0  0  0  0  0  0  0  0
    1.5265    2.0834   -0.0015 H   0  0  0  0  0  0  0  0  0  0  0  0
   -2.4073    0.3567   -0.0005 H   0  0  0  0  0  0  0  0  0  0  0  0
    1.3125   -2.7833   -0.8665 H   0  0  0  0  0  0  0  0  0  0  0  0
   -3.2668   -1.3227    0.8960 H   0  0  0  0  0  0  0  0  0  0  0  0
   -3.2632   -1.3319   -0.8839 H   0  0  0  0  0  0  0  0  0  0  0  0
   -3.5109   -2.8490    0.0134 H   0  0  0  0  0  0  0  0  0  0  0  0
   -0.4571    3.5851   -0.0127 H   0  0  0  0  0  0  0  0  0  0  0  0
  1  2  1  0  0  0  0
  2  3  1  0  0  0  0
  3  4  2  0  0  0  0
  4  5  1  0  0  0  0
  5  6  2  0  0  0  0
  6  7  1  0  0  0  0
  7  8  2  0  0  0  0
  3  8  1  0  0  0  0
  8  9  1  0  0  0  0
  7 10  1  0  0  0  0
 10 11  1  0  0  0  0
  5 12  1  0  0  0  0
 12 13  2  0  0  0  0
  1 14  1  0  0  0  0
  1 15  1  0  0  0  0
  1 16  1  0  0  0  0
  4 17  1  0  0  0  0
  6 18  1  0  0  0  0
  9 19  1  0  0  0  0
 11 20  1  0  0  0  0
 11 21  1  0  0  0  0
 11 22  1  0  0  0  0
 12 23  1  0  0  0  0
M  END
$$$$
