C15H24
APtclcactv06211806293D 0   0.00000     0.00000
 
 39 39  0  0  0  0  0  0  0  0999 V2000
   -5.4663    0.9162    0.5745 C   0  0  0  0  0  0  0  0  0  0  0  0
   -4.0483    0.4812    0.3083 C   0  0  0  0  0  0  0  0  0  0  0  0
   -3.3379    1.1929   -0.5068 C   0  0  0  0  0  0  0  0  0  0  0  0
   -1.9175    0.8807   -0.8768 C   0  0  0  0  0  0  0  0  0  0  0  0
   -1.3130   -0.0981    0.1322 C   0  0  0  0  0  0  0  0  0  0  0  0
   -2.2855   -1.2704    0.3134 C   0  0  0  0  0  0  0  0  0  0  0  0
   -3.5456   -0.7468    1.0093 C   0  0  0  0  0  0  0  0  0  0  0  0
    0.0063   -0.6098   -0.3863 C   0  0  0  0  0  0  0  0  0  0  0  0
    1.1035   -0.4047    0.2994 C   0  0  0  0  0  0  0  0  0  0  0  0
    2.4387   -0.7932   -0.2814 C   0  0  0  0  0  0  0  0  0  0  0  0
    3.3147    0.4283   -0.3882 C   0  0  0  0  0  0  0  0  0  0  0  0
    4.4585    0.4719    0.2491 C   0  0  0  0  0  0  0  0  0  0  0  0
    4.8325   -0.6338    1.2022 C   0  0  0  0  0  0  0  0  0  0  0  0
    5.4001    1.6277    0.0290 C   0  0  0  0  0  0  0  0  0  0  0  0
    0.0633   -1.3573   -1.6935 C   0  0  0  0  0  0  0  0  0  0  0  0
   -5.6831    1.8184    0.0025 H   0  0  0  0  0  0  0  0  0  0  0  0
   -6.1518    0.1231    0.2759 H   0  0  0  0  0  0  0  0  0  0  0  0
   -5.5897    1.1219    1.6378 H   0  0  0  0  0  0  0  0  0  0  0  0
   -3.7962    2.0655   -0.9484 H   0  0  0  0  0  0  0  0  0  0  0  0
   -1.8927    0.4356   -1.8714 H   0  0  0  0  0  0  0  0  0  0  0  0
   -1.3344    1.8017   -0.8807 H   0  0  0  0  0  0  0  0  0  0  0  0
   -1.1642    0.4056    1.0874 H   0  0  0  0  0  0  0  0  0  0  0  0
   -2.5458   -1.6844   -0.6607 H   0  0  0  0  0  0  0  0  0  0  0  0
   -1.8208   -2.0400    0.9297 H   0  0  0  0  0  0  0  0  0  0  0  0
   -3.3124   -0.5076    2.0469 H   0  0  0  0  0  0  0  0  0  0  0  0
   -4.3186   -1.5148    0.9827 H   0  0  0  0  0  0  0  0  0  0  0  0
    1.0512    0.0428    1.2809 H   0  0  0  0  0  0  0  0  0  0  0  0
    2.9169   -1.5278    0.3665 H   0  0  0  0  0  0  0  0  0  0  0  0
    2.2926   -1.2233   -1.2723 H   0  0  0  0  0  0  0  0  0  0  0  0
    2.9996    1.2679   -0.9901 H   0  0  0  0  0  0  0  0  0  0  0  0
    5.2888   -1.4533    0.6470 H   0  0  0  0  0  0  0  0  0  0  0  0
    5.5413   -0.2547    1.9384 H   0  0  0  0  0  0  0  0  0  0  0  0
    3.9379   -0.9933    1.7108 H   0  0  0  0  0  0  0  0  0  0  0  0
    5.1787    2.4183    0.7459 H   0  0  0  0  0  0  0  0  0  0  0  0
    6.4275    1.2904    0.1659 H   0  0  0  0  0  0  0  0  0  0  0  0
    5.2753    2.0103   -0.9840 H   0  0  0  0  0  0  0  0  0  0  0  0
    0.2781   -0.6590   -2.5024 H   0  0  0  0  0  0  0  0  0  0  0  0
    0.8486   -2.1118   -1.6467 H   0  0  0  0  0  0  0  0  0  0  0  0
   -0.8956   -1.8419   -1.8771 H   0  0  0  0  0  0  0  0  0  0  0  0
  1  2  1  0  0  0  0
  2  3  2  0  0  0  0
  3  4  1  0  0  0  0
  4  5  1  0  0  0  0
  5  6  1  0  0  0  0
  6  7  1  0  0  0  0
  2  7  1  0  0  0  0
  5  8  1  0  0  0  0
  8  9  2  0  0  0  0
  9 10  1  0  0  0  0
 10 11  1  0  0  0  0
 11 12  2  0  0  0  0
 12 13  1  0  0  0  0
 12 14  1  0  0  0  0
  8 15  1  0  0  0  0
  1 16  1  0  0  0  0
  1 17  1  0  0  0  0
  1 18  1  0  0  0  0
  3 19  1  0  0  0  0
  4 20  1  0  0  0  0
  4 21  1  0  0  0  0
  5 22  1  0  0  0  0
  6 23  1  0  0  0  0
  6 24  1  0  0  0  0
  7 25  1  0  0  0  0
  7 26  1  0  0  0  0
  9 27  1  0  0  0  0
 10 28  1  0  0  0  0
 10 29  1  0  0  0  0
 11 30  1  0  0  0  0
 13 31  1  0  0  0  0
 13 32  1  0  0  0  0
 13 33  1  0  0  0  0
 14 34  1  0  0  0  0
 14 35  1  0  0  0  0
 14 36  1  0  0  0  0
 15 37  1  0  0  0  0
 15 38  1  0  0  0  0
 15 39  1  0  0  0  0
M  END
$$$$
