C9H17NO
APtclcactv06211806293D 0   0.00000     0.00000
 
 28 28  0  0  0  0  0  0  0  0999 V2000
    3.7440    0.2013    0.4124 C   0  0  0  0  0  0  0  0  0  0  0  0
    2.3520   -0.0989   -0.0808 C   0  0  0  0  0  0  0  0  0  0  0  0
    2.1707   -0.9974   -0.8669 O   0  0  0  0  0  0  0  0  0  0  0  0
    1.1863    0.7222    0.4071 C   0  0  0  0  0  0  0  0  0  0  0  0
   -0.1165    0.1307   -0.1349 C   0  0  0  0  0  0  0  0  0  0  0  0
   -0.3411   -1.2540    0.4766 C   0  0  0  0  0  0  0  0  0  0  0  0
   -1.6557   -1.8334   -0.0531 C   0  0  0  0  0  0  0  0  0  0  0  0
   -2.8002   -0.8743    0.2856 C   0  0  0  0  0  0  0  0  0  0  0  0
   -2.5043    0.4994   -0.3205 C   0  0  0  0  0  0  0  0  0  0  0  0
   -1.2376    1.0109    0.2182 N   0  0  0  0  0  0  0  0  0  0  0  0
   -0.9900    2.3863   -0.2347 C   0  0  0  0  0  0  0  0  0  0  0  0
    4.2147    0.9289   -0.2487 H   0  0  0  0  0  0  0  0  0  0  0  0
    3.6918    0.6083    1.4222 H   0  0  0  0  0  0  0  0  0  0  0  0
    4.3324   -0.7162    0.4205 H   0  0  0  0  0  0  0  0  0  0  0  0
    1.1648    0.7109    1.4968 H   0  0  0  0  0  0  0  0  0  0  0  0
    1.2929    1.7487    0.0564 H   0  0  0  0  0  0  0  0  0  0  0  0
   -0.0518    0.0426   -1.2194 H   0  0  0  0  0  0  0  0  0  0  0  0
    0.4835   -1.9116    0.2013 H   0  0  0  0  0  0  0  0  0  0  0  0
   -0.3923   -1.1685    1.5621 H   0  0  0  0  0  0  0  0  0  0  0  0
   -1.5906   -1.9554   -1.1343 H   0  0  0  0  0  0  0  0  0  0  0  0
   -1.8414   -2.8011    0.4131 H   0  0  0  0  0  0  0  0  0  0  0  0
   -3.7326   -1.2605   -0.1262 H   0  0  0  0  0  0  0  0  0  0  0  0
   -2.8901   -0.7828    1.3680 H   0  0  0  0  0  0  0  0  0  0  0  0
   -2.4283    0.4096   -1.4041 H   0  0  0  0  0  0  0  0  0  0  0  0
   -3.3105    1.1886   -0.0690 H   0  0  0  0  0  0  0  0  0  0  0  0
   -1.8572    3.0058   -0.0058 H   0  0  0  0  0  0  0  0  0  0  0  0
   -0.1136    2.7849    0.2763 H   0  0  0  0  0  0  0  0  0  0  0  0
   -0.8156    2.3886   -1.3106 H   0  0  0  0  0  0  0  0  0  0  0  0
  1  2  1  0  0  0  0
  2  3  2  0  0  0  0
  2  4  1  0  0  0  0
  4  5  1  0  0  0  0
  5  6  1  0  0  0  0
  6  7  1  0  0  0  0
  7  8  1  0  0  0  0
  8  9  1  0  0  0  0
  9 10  1  0  0  0  0
  5 10  1  0  0  0  0
 10 11  1  0  0  0  0
  1 12  1  0  0  0  0
  1 13  1  0  0  0  0
  1 14  1  0  0  0  0
  4 15  1  0  0  0  0
  4 16  1  0  0  0  0
  5 17  1  0  0  0  0
  6 18  1  0  0  0  0
  6 19  1  0  0  0  0
  7 20  1  0  0  0  0
  7 21  1  0  0  0  0
  8 22  1  0  0  0  0
  8 23  1  0  0  0  0
  9 24  1  0  0  0  0
  9 25  1  0  0  0  0
 11 26  1  0  0  0  0
 11 27  1  0  0  0  0
 11 28  1  0  0  0  0
M  END
$$$$
