C16H13N
APtclcactv06211804443D 0   0.00000     0.00000
 
 30 32  0  0  0  0  0  0  0  0999 V2000
   -4.8098    0.8493    0.3282 C   0  0  0  0  0  0  0  0  0  0  0  0
   -4.8066   -0.3045   -0.4341 C   0  0  0  0  0  0  0  0  0  0  0  0
   -3.6371   -1.0193   -0.6027 C   0  0  0  0  0  0  0  0  0  0  0  0
   -2.4629   -0.5780   -0.0054 C   0  0  0  0  0  0  0  0  0  0  0  0
   -2.4698    0.5816    0.7597 C   0  0  0  0  0  0  0  0  0  0  0  0
   -3.6429    1.2915    0.9241 C   0  0  0  0  0  0  0  0  0  0  0  0
   -1.2781   -1.2989   -0.1735 N   0  0  0  0  0  0  0  0  0  0  0  0
   -0.0524   -0.6305   -0.2039 C   0  0  0  0  0  0  0  0  0  0  0  0
    1.0978   -1.2989    0.1542 C   0  0  0  0  0  0  0  0  0  0  0  0
    2.3286   -0.6234    0.1219 C   0  0  0  0  0  0  0  0  0  0  0  0
    3.5239   -1.2709    0.4793 C   0  0  0  0  0  0  0  0  0  0  0  0
    4.6997   -0.5864    0.4364 C   0  0  0  0  0  0  0  0  0  0  0  0
    4.7375    0.7497    0.0430 C   0  0  0  0  0  0  0  0  0  0  0  0
    3.5999    1.4092   -0.3097 C   0  0  0  0  0  0  0  0  0  0  0  0
    2.3672    0.7360   -0.2789 C   0  0  0  0  0  0  0  0  0  0  0  0
    1.1738    1.3876   -0.6375 C   0  0  0  0  0  0  0  0  0  0  0  0
   -0.0042    0.7109   -0.6037 C   0  0  0  0  0  0  0  0  0  0  0  0
   -5.7249    1.4088    0.4547 H   0  0  0  0  0  0  0  0  0  0  0  0
   -5.7198   -0.6472   -0.8978 H   0  0  0  0  0  0  0  0  0  0  0  0
   -3.6353   -1.9206   -1.1978 H   0  0  0  0  0  0  0  0  0  0  0  0
   -1.5589    0.9272    1.2257 H   0  0  0  0  0  0  0  0  0  0  0  0
   -3.6488    2.1932    1.5185 H   0  0  0  0  0  0  0  0  0  0  0  0
   -1.3068   -2.2638   -0.2690 H   0  0  0  0  0  0  0  0  0  0  0  0
    1.0532   -2.3344    0.4578 H   0  0  0  0  0  0  0  0  0  0  0  0
    3.5095   -2.3061    0.7869 H   0  0  0  0  0  0  0  0  0  0  0  0
    5.6167   -1.0861    0.7115 H   0  0  0  0  0  0  0  0  0  0  0  0
    5.6835    1.2702    0.0179 H   0  0  0  0  0  0  0  0  0  0  0  0
    3.6450    2.4450   -0.6124 H   0  0  0  0  0  0  0  0  0  0  0  0
    1.1939    2.4234   -0.9426 H   0  0  0  0  0  0  0  0  0  0  0  0
   -0.9171    1.2171   -0.8806 H   0  0  0  0  0  0  0  0  0  0  0  0
  1  2  2  0  0  0  0
  2  3  1  0  0  0  0
  3  4  2  0  0  0  0
  4  5  1  0  0  0  0
  5  6  2  0  0  0  0
  1  6  1  0  0  0  0
  4  7  1  0  0  0  0
  7  8  1  0  0  0  0
  8  9  2  0  0  0  0
  9 10  1  0  0  0  0
 10 11  2  0  0  0  0
 11 12  1  0  0  0  0
 12 13  2  0  0  0  0
 13 14  1  0  0  0  0
 14 15  2  0  0  0  0
 10 15  1  0  0  0  0
 15 16  1  0  0  0  0
 16 17  2  0  0  0  0
  8 17  1  0  0  0  0
  1 18  1  0  0  0  0
  2 19  1  0  0  0  0
  3 20  1  0  0  0  0
  5 21  1  0  0  0  0
  6 22  1  0  0  0  0
  7 23  1  0  0  0  0
  9 24  1  0  0  0  0
 11 25  1  0  0  0  0
 12 26  1  0  0  0  0
 13 27  1  0  0  0  0
 14 28  1  0  0  0  0
 16 29  1  0  0  0  0
 17 30  1  0  0  0  0
M  END
$$$$
