C15H22
APtclcactv06211806293D 0   0.00000     0.00000
 
 37 38  0  0  0  0  0  0  0  0999 V2000
    4.6516   -0.0077    0.3382 C   0  0  0  0  0  0  0  0  0  0  0  0
    3.1644   -0.0502    0.0990 C   0  0  0  0  0  0  0  0  0  0  0  0
    2.4725   -1.2364    0.2570 C   0  0  0  0  0  0  0  0  0  0  0  0
    1.1082   -1.2754    0.0376 C   0  0  0  0  0  0  0  0  0  0  0  0
    0.4358   -0.1279   -0.3394 C   0  0  0  0  0  0  0  0  0  0  0  0
    1.1275    1.0585   -0.4965 C   0  0  0  0  0  0  0  0  0  0  0  0
    2.4911    1.0984   -0.2728 C   0  0  0  0  0  0  0  0  0  0  0  0
   -1.0514   -0.1706   -0.5796 C   0  0  0  0  0  0  0  0  0  0  0  0
   -1.5598   -1.6242   -0.4890 C   0  0  0  0  0  0  0  0  0  0  0  0
   -2.9454   -1.5003    0.1921 C   0  0  0  0  0  0  0  0  0  0  0  0
   -2.7142   -0.3793    1.2357 C   0  0  0  0  0  0  0  0  0  0  0  0
   -1.7853    0.6210    0.5169 C   0  0  0  0  0  0  0  0  0  0  0  0
   -0.7755    1.2035    1.5078 C   0  0  0  0  0  0  0  0  0  0  0  0
   -2.6116    1.7447   -0.1118 C   0  0  0  0  0  0  0  0  0  0  0  0
   -1.3765    0.4135   -1.9558 C   0  0  0  0  0  0  0  0  0  0  0  0
    5.1757   -0.2256   -0.5924 H   0  0  0  0  0  0  0  0  0  0  0  0
    4.9348    0.9840    0.6910 H   0  0  0  0  0  0  0  0  0  0  0  0
    4.9203   -0.7508    1.0890 H   0  0  0  0  0  0  0  0  0  0  0  0
    2.9978   -2.1329    0.5516 H   0  0  0  0  0  0  0  0  0  0  0  0
    0.5678   -2.2023    0.1603 H   0  0  0  0  0  0  0  0  0  0  0  0
    0.6022    1.9549   -0.7914 H   0  0  0  0  0  0  0  0  0  0  0  0
    3.0315    2.0254   -0.3956 H   0  0  0  0  0  0  0  0  0  0  0  0
   -1.6615   -2.0556   -1.4848 H   0  0  0  0  0  0  0  0  0  0  0  0
   -0.8870   -2.2263    0.1217 H   0  0  0  0  0  0  0  0  0  0  0  0
   -3.7059   -1.2045   -0.5305 H   0  0  0  0  0  0  0  0  0  0  0  0
   -3.2196   -2.4342    0.6827 H   0  0  0  0  0  0  0  0  0  0  0  0
   -3.6583    0.0979    1.4985 H   0  0  0  0  0  0  0  0  0  0  0  0
   -2.2278   -0.7803    2.1249 H   0  0  0  0  0  0  0  0  0  0  0  0
   -0.0965    0.4177    1.8387 H   0  0  0  0  0  0  0  0  0  0  0  0
   -0.2055    1.9956    1.0222 H   0  0  0  0  0  0  0  0  0  0  0  0
   -1.3052    1.6122    2.3683 H   0  0  0  0  0  0  0  0  0  0  0  0
   -3.1465    2.2837    0.6702 H   0  0  0  0  0  0  0  0  0  0  0  0
   -1.9492    2.4316   -0.6387 H   0  0  0  0  0  0  0  0  0  0  0  0
   -3.3277    1.3194   -0.8150 H   0  0  0  0  0  0  0  0  0  0  0  0
   -0.8622   -0.1618   -2.7255 H   0  0  0  0  0  0  0  0  0  0  0  0
   -2.4523    0.3670   -2.1253 H   0  0  0  0  0  0  0  0  0  0  0  0
   -1.0469    1.4517   -1.9970 H   0  0  0  0  0  0  0  0  0  0  0  0
  1  2  1  0  0  0  0
  2  3  2  0  0  0  0
  3  4  1  0  0  0  0
  4  5  2  0  0  0  0
  5  6  1  0  0  0  0
  6  7  2  0  0  0  0
  2  7  1  0  0  0  0
  5  8  1  0  0  0  0
  8  9  1  0  0  0  0
  9 10  1  0  0  0  0
 10 11  1  0  0  0  0
 11 12  1  0  0  0  0
  8 12  1  0  0  0  0
 12 13  1  0  0  0  0
 12 14  1  0  0  0  0
  8 15  1  0  0  0  0
  1 16  1  0  0  0  0
  1 17  1  0  0  0  0
  1 18  1  0  0  0  0
  3 19  1  0  0  0  0
  4 20  1  0  0  0  0
  6 21  1  0  0  0  0
  7 22  1  0  0  0  0
  9 23  1  0  0  0  0
  9 24  1  0  0  0  0
 10 25  1  0  0  0  0
 10 26  1  0  0  0  0
 11 27  1  0  0  0  0
 11 28  1  0  0  0  0
 13 29  1  0  0  0  0
 13 30  1  0  0  0  0
 13 31  1  0  0  0  0
 14 32  1  0  0  0  0
 14 33  1  0  0  0  0
 14 34  1  0  0  0  0
 15 35  1  0  0  0  0
 15 36  1  0  0  0  0
 15 37  1  0  0  0  0
M  END
$$$$
