C24H38N7O19P3S
APtclcactv06211804323D 0   0.00000     0.00000
 
 92 94  0  0  0  0  0  0  0  0999 V2000
   -0.7818   -3.3679    3.3358 C   0  0  0  0  0  0  0  0  0  0  0  0
   -2.0236   -3.1543    2.4679 C   0  0  0  0  0  0  0  0  0  0  0  0
   -2.4898   -1.7025    2.5931 C   0  0  0  0  0  0  0  0  0  0  0  0
   -1.6830   -3.4565    1.0072 C   0  0  0  0  0  0  0  0  0  0  0  0
   -0.6405   -2.5821    0.5705 O   0  0  0  0  0  0  0  0  0  0  0  0
   -0.0303   -2.6204   -0.9188 P   0  0  0  0  0  0  0  0  0  0  0  0
    0.4389   -3.9904   -1.2246 O   0  0  0  0  0  0  0  0  0  0  0  0
   -1.1674   -2.1942   -1.9759 O   0  0  0  0  0  0  0  0  0  0  0  0
    1.2067   -1.5948   -1.0186 O   0  0  0  0  0  0  0  0  0  0  0  0
    2.3997   -1.3810   -2.0784 P   0  0  0  0  0  0  0  0  0  0  0  0
    2.9011   -2.6985   -2.5292 O   0  0  0  0  0  0  0  0  0  0  0  0
    1.8501   -0.5538   -3.3455 O   0  0  0  0  0  0  0  0  0  0  0  0
    3.5969   -0.5613   -1.3807 O   0  0  0  0  0  0  0  0  0  0  0  0
    4.8436   -0.3016   -2.0291 C   0  0  0  0  0  0  0  0  0  0  0  0
    5.7503    0.4965   -1.0901 C   0  0  0  0  0  0  0  0  0  0  0  0
    7.1409    0.6741   -1.7299 C   0  0  0  0  0  0  0  0  0  0  0  0
    7.3301    2.2087   -1.8067 C   0  0  0  0  0  0  0  0  0  0  0  0
    6.3216    2.7138   -0.7436 C   0  0  0  0  0  0  0  0  0  0  0  0
    5.2043    1.8100   -0.8830 O   0  0  0  0  0  0  0  0  0  0  0  0
    6.8976    2.6186    0.6001 N   0  0  0  0  0  0  0  0  0  0  0  0
    6.6974    1.6090    1.4938 C   0  0  0  0  0  0  0  0  0  0  0  0
    7.3609    1.8459    2.5880 N   0  0  0  0  0  0  0  0  0  0  0  0
    8.0271    3.0192    2.4663 C   0  0  0  0  0  0  0  0  0  0  0  0
    7.7422    3.5263    1.1874 C   0  0  0  0  0  0  0  0  0  0  0  0
    8.2822    4.6828    0.8161 N   0  0  0  0  0  0  0  0  0  0  0  0
    9.0732    5.3466    1.6322 C   0  0  0  0  0  0  0  0  0  0  0  0
    9.3699    4.9102    2.8430 N   0  0  0  0  0  0  0  0  0  0  0  0
    8.8802    3.7625    3.3000 C   0  0  0  0  0  0  0  0  0  0  0  0
    9.1964    3.3136    4.5703 N   0  0  0  0  0  0  0  0  0  0  0  0
    8.6662    2.5759   -1.4574 O   0  0  0  0  0  0  0  0  0  0  0  0
    8.1495    0.0865   -0.9057 O   0  0  0  0  0  0  0  0  0  0  0  0
    9.1105   -1.1030   -1.4094 P   0  0  0  0  0  0  0  0  0  0  0  0
    9.7978   -0.6887   -2.6530 O   0  0  0  0  0  0  0  0  0  0  0  0
   10.2048   -1.4263   -0.2736 O   0  0  0  0  0  0  0  0  0  0  0  0
    8.2296   -2.4197   -1.6962 O   0  0  0  0  0  0  0  0  0  0  0  0
   -3.1397   -4.0905    2.9355 C   0  0  0  0  0  0  0  0  0  0  0  0
   -4.3210   -3.9663    2.0080 C   0  0  0  0  0  0  0  0  0  0  0  0
   -4.5947   -4.8726    1.2499 O   0  0  0  0  0  0  0  0  0  0  0  0
   -5.0734   -2.8482    2.0211 N   0  0  0  0  0  0  0  0  0  0  0  0
   -6.2837   -2.7701    1.1993 C   0  0  0  0  0  0  0  0  0  0  0  0
   -6.9468   -1.4054    1.3965 C   0  0  0  0  0  0  0  0  0  0  0  0
   -8.1918   -1.3251    0.5512 C   0  0  0  0  0  0  0  0  0  0  0  0
   -8.5167   -2.2666   -0.1408 O   0  0  0  0  0  0  0  0  0  0  0  0
   -8.9442   -0.2069    0.5642 N   0  0  0  0  0  0  0  0  0  0  0  0
  -10.1545   -0.1288   -0.2576 C   0  0  0  0  0  0  0  0  0  0  0  0
  -10.8176    1.2358   -0.0604 C   0  0  0  0  0  0  0  0  0  0  0  0
  -12.3129    1.3323   -1.0757 S   0  0  0  0  0  0  0  0  0  0  0  0
  -12.8411    2.9114   -0.6776 C   0  0  0  0  0  0  0  0  0  0  0  0
  -12.2040    3.5850    0.1050 O   0  0  0  0  0  0  0  0  0  0  0  0
  -14.0974    3.4648   -1.2993 C   0  0  0  0  0  0  0  0  0  0  0  0
  -14.3385    4.8613   -0.7867 C   0  0  0  0  0  0  0  0  0  0  0  0
  -13.5691    5.3564    0.0025 O   0  0  0  0  0  0  0  0  0  0  0  0
  -15.4080    5.5552   -1.2068 O   0  0  0  0  0  0  0  0  0  0  0  0
   -2.6660   -5.4387    2.9256 O   0  0  0  0  0  0  0  0  0  0  0  0
   -1.0008   -3.0734    4.3622 H   0  0  0  0  0  0  0  0  0  0  0  0
   -0.4987   -4.4202    3.3124 H   0  0  0  0  0  0  0  0  0  0  0  0
    0.0388   -2.7622    2.9513 H   0  0  0  0  0  0  0  0  0  0  0  0
   -1.6848   -1.0347    2.2863 H   0  0  0  0  0  0  0  0  0  0  0  0
   -3.3578   -1.5432    1.9534 H   0  0  0  0  0  0  0  0  0  0  0  0
   -2.7589   -1.4953    3.6289 H   0  0  0  0  0  0  0  0  0  0  0  0
   -1.3508   -4.4908    0.9180 H   0  0  0  0  0  0  0  0  0  0  0  0
   -2.5676   -3.3043    0.3889 H   0  0  0  0  0  0  0  0  0  0  0  0
   -1.5216   -1.3054   -1.8355 H   0  0  0  0  0  0  0  0  0  0  0  0
    1.5050    0.3219   -3.1239 H   0  0  0  0  0  0  0  0  0  0  0  0
    5.3248   -1.2462   -2.2828 H   0  0  0  0  0  0  0  0  0  0  0  0
    4.6674    0.2723   -2.9388 H   0  0  0  0  0  0  0  0  0  0  0  0
    5.8448   -0.0226   -0.1363 H   0  0  0  0  0  0  0  0  0  0  0  0
    7.1601    0.2369   -2.7282 H   0  0  0  0  0  0  0  0  0  0  0  0
    7.0715    2.5834   -2.7971 H   0  0  0  0  0  0  0  0  0  0  0  0
    6.0165    3.7376   -0.9599 H   0  0  0  0  0  0  0  0  0  0  0  0
    6.0792    0.7408    1.3197 H   0  0  0  0  0  0  0  0  0  0  0  0
    9.4958    6.2830    1.2992 H   0  0  0  0  0  0  0  0  0  0  0  0
    9.7818    3.8385    5.1384 H   0  0  0  0  0  0  0  0  0  0  0  0
    8.8327    2.4741    4.8925 H   0  0  0  0  0  0  0  0  0  0  0  0
    8.8339    3.5277   -1.4906 H   0  0  0  0  0  0  0  0  0  0  0  0
   10.8192   -2.1348   -0.5096 H   0  0  0  0  0  0  0  0  0  0  0  0
    7.7501   -2.7482   -0.9234 H   0  0  0  0  0  0  0  0  0  0  0  0
   -3.4418   -3.8190    3.9470 H   0  0  0  0  0  0  0  0  0  0  0  0
   -4.8135   -2.0952    2.5745 H   0  0  0  0  0  0  0  0  0  0  0  0
   -6.0190   -2.8971    0.1496 H   0  0  0  0  0  0  0  0  0  0  0  0
   -6.9765   -3.5571    1.4971 H   0  0  0  0  0  0  0  0  0  0  0  0
   -7.2115   -1.2784    2.4462 H   0  0  0  0  0  0  0  0  0  0  0  0
   -6.2540   -0.6184    1.0986 H   0  0  0  0  0  0  0  0  0  0  0  0
   -8.6843    0.5461    1.1176 H   0  0  0  0  0  0  0  0  0  0  0  0
   -9.8898   -0.2559   -1.3073 H   0  0  0  0  0  0  0  0  0  0  0  0
  -10.8473   -0.9158    0.0403 H   0  0  0  0  0  0  0  0  0  0  0  0
  -11.0823    1.3629    0.9893 H   0  0  0  0  0  0  0  0  0  0  0  0
  -10.1248    2.0229   -0.3582 H   0  0  0  0  0  0  0  0  0  0  0  0
  -13.9858    3.4899   -2.3833 H   0  0  0  0  0  0  0  0  0  0  0  0
  -14.9434    2.8300   -1.0357 H   0  0  0  0  0  0  0  0  0  0  0  0
  -15.5206    6.4469   -0.8501 H   0  0  0  0  0  0  0  0  0  0  0  0
   -2.3795   -5.7485    2.0556 H   0  0  0  0  0  0  0  0  0  0  0  0
  1  2  1  0  0  0  0
  2  3  1  0  0  0  0
  2  4  1  0  0  0  0
  4  5  1  0  0  0  0
  5  6  1  0  0  0  0
  6  7  2  0  0  0  0
  6  8  1  0  0  0  0
  6  9  1  0  0  0  0
  9 10  1  0  0  0  0
 10 11  2  0  0  0  0
 10 12  1  0  0  0  0
 10 13  1  0  0  0  0
 13 14  1  0  0  0  0
 14 15  1  0  0  0  0
 15 16  1  0  0  0  0
 16 17  1  0  0  0  0
 17 18  1  0  0  0  0
 18 19  1  0  0  0  0
 15 19  1  0  0  0  0
 18 20  1  0  0  0  0
 20 21  1  0  0  0  0
 21 22  2  0  0  0  0
 22 23  1  0  0  0  0
 23 24  2  0  0  0  0
 20 24  1  0  0  0  0
 24 25  1  0  0  0  0
 25 26  2  0  0  0  0
 26 27  1  0  0  0  0
 27 28  2  0  0  0  0
 23 28  1  0  0  0  0
 28 29  1  0  0  0  0
 17 30  1  0  0  0  0
 16 31  1  0  0  0  0
 31 32  1  0  0  0  0
 32 33  2  0  0  0  0
 32 34  1  0  0  0  0
 32 35  1  0  0  0  0
  2 36  1  0  0  0  0
 36 37  1  0  0  0  0
 37 38  2  0  0  0  0
 37 39  1  0  0  0  0
 39 40  1  0  0  0  0
 40 41  1  0  0  0  0
 41 42  1  0  0  0  0
 42 43  2  0  0  0  0
 42 44  1  0  0  0  0
 44 45  1  0  0  0  0
 45 46  1  0  0  0  0
 46 47  1  0  0  0  0
 47 48  1  0  0  0  0
 48 49  2  0  0  0  0
 48 50  1  0  0  0  0
 50 51  1  0  0  0  0
 51 52  2  0  0  0  0
 51 53  1  0  0  0  0
 36 54  1  0  0  0  0
  1 55  1  0  0  0  0
  1 56  1  0  0  0  0
  1 57  1  0  0  0  0
  3 58  1  0  0  0  0
  3 59  1  0  0  0  0
  3 60  1  0  0  0  0
  4 61  1  0  0  0  0
  4 62  1  0  0  0  0
  8 63  1  0  0  0  0
 12 64  1  0  0  0  0
 14 65  1  0  0  0  0
 14 66  1  0  0  0  0
 15 67  1  0  0  0  0
 16 68  1  0  0  0  0
 17 69  1  0  0  0  0
 18 70  1  0  0  0  0
 21 71  1  0  0  0  0
 26 72  1  0  0  0  0
 29 73  1  0  0  0  0
 29 74  1  0  0  0  0
 30 75  1  0  0  0  0
 34 76  1  0  0  0  0
 35 77  1  0  0  0  0
 36 78  1  0  0  0  0
 39 79  1  0  0  0  0
 40 80  1  0  0  0  0
 40 81  1  0  0  0  0
 41 82  1  0  0  0  0
 41 83  1  0  0  0  0
 44 84  1  0  0  0  0
 45 85  1  0  0  0  0
 45 86  1  0  0  0  0
 46 87  1  0  0  0  0
 46 88  1  0  0  0  0
 50 89  1  0  0  0  0
 50 90  1  0  0  0  0
 53 91  1  0  0  0  0
 54 92  1  0  0  0  0
M  END
$$$$
