C11H14O2
APtclcactv06211804443D 0   0.00000     0.00000
 
 27 27  0  0  0  0  0  0  0  0999 V2000
    5.6295    0.9260   -0.0005 C   0  0  0  0  0  0  0  0  0  0  0  0
    4.5435   -0.1517   -0.0000 C   0  0  0  0  0  0  0  0  0  0  0  0
    3.1654    0.5129   -0.0004 C   0  0  0  0  0  0  0  0  0  0  0  0
    2.0794   -0.5648    0.0000 C   0  0  0  0  0  0  0  0  0  0  0  0
    0.7715    0.0659   -0.0004 O   0  0  0  0  0  0  0  0  0  0  0  0
   -0.3007   -0.7495   -0.0001 C   0  0  0  0  0  0  0  0  0  0  0  0
   -0.1474   -1.9545    0.0005 O   0  0  0  0  0  0  0  0  0  0  0  0
   -1.6631   -0.1783   -0.0004 C   0  0  0  0  0  0  0  0  0  0  0  0
   -2.7767   -1.0206   -0.0001 C   0  0  0  0  0  0  0  0  0  0  0  0
   -4.0460   -0.4805   -0.0005 C   0  0  0  0  0  0  0  0  0  0  0  0
   -4.2171    0.8926   -0.0012 C   0  0  0  0  0  0  0  0  0  0  0  0
   -3.1179    1.7331   -0.0015 C   0  0  0  0  0  0  0  0  0  0  0  0
   -1.8430    1.2064    0.0047 C   0  0  0  0  0  0  0  0  0  0  0  0
    5.5254    1.5471    0.8892 H   0  0  0  0  0  0  0  0  0  0  0  0
    6.6113    0.4525   -0.0002 H   0  0  0  0  0  0  0  0  0  0  0  0
    5.5255    1.5462   -0.8908 H   0  0  0  0  0  0  0  0  0  0  0  0
    4.6476   -0.7728   -0.8897 H   0  0  0  0  0  0  0  0  0  0  0  0
    4.6475   -0.7720    0.8903 H   0  0  0  0  0  0  0  0  0  0  0  0
    3.0613    1.1340    0.8892 H   0  0  0  0  0  0  0  0  0  0  0  0
    3.0614    1.1331   -0.8907 H   0  0  0  0  0  0  0  0  0  0  0  0
    2.1835   -1.1859   -0.8897 H   0  0  0  0  0  0  0  0  0  0  0  0
    2.1834   -1.1850    0.8903 H   0  0  0  0  0  0  0  0  0  0  0  0
   -2.6446   -2.0925    0.0001 H   0  0  0  0  0  0  0  0  0  0  0  0
   -4.9082   -1.1308   -0.0006 H   0  0  0  0  0  0  0  0  0  0  0  0
   -5.2130    1.3102   -0.0019 H   0  0  0  0  0  0  0  0  0  0  0  0
   -3.2585    2.8039   -0.0025 H   0  0  0  0  0  0  0  0  0  0  0  0
   -0.9859    1.8635    0.0044 H   0  0  0  0  0  0  0  0  0  0  0  0
  1  2  1  0  0  0  0
  2  3  1  0  0  0  0
  3  4  1  0  0  0  0
  4  5  1  0  0  0  0
  5  6  1  0  0  0  0
  6  7  2  0  0  0  0
  6  8  1  0  0  0  0
  8  9  2  0  0  0  0
  9 10  1  0  0  0  0
 10 11  2  0  0  0  0
 11 12  1  0  0  0  0
 12 13  2  0  0  0  0
  8 13  1  0  0  0  0
  1 14  1  0  0  0  0
  1 15  1  0  0  0  0
  1 16  1  0  0  0  0
  2 17  1  0  0  0  0
  2 18  1  0  0  0  0
  3 19  1  0  0  0  0
  3 20  1  0  0  0  0
  4 21  1  0  0  0  0
  4 22  1  0  0  0  0
  9 23  1  0  0  0  0
 10 24  1  0  0  0  0
 11 25  1  0  0  0  0
 12 26  1  0  0  0  0
 13 27  1  0  0  0  0
M  END
$$$$
