C15H10O3
APtclcactv06211806293D 0   0.00000     0.00000
 
 28 30  0  0  0  0  0  0  0  0999 V2000
   -4.4255    0.1957    0.1849 C   0  0  0  0  0  0  0  0  0  0  0  0
   -4.2057   -1.1689    0.2084 C   0  0  0  0  0  0  0  0  0  0  0  0
   -2.9210   -1.6752    0.1019 C   0  0  0  0  0  0  0  0  0  0  0  0
   -1.8442   -0.8054   -0.0296 C   0  0  0  0  0  0  0  0  0  0  0  0
   -2.0682    0.5840   -0.0547 C   0  0  0  0  0  0  0  0  0  0  0  0
   -3.3642    1.0757    0.0537 C   0  0  0  0  0  0  0  0  0  0  0  0
   -0.9215    1.5082   -0.1953 C   0  0  0  0  0  0  0  0  0  0  0  0
   -1.1047    2.6782   -0.4671 O   0  0  0  0  0  0  0  0  0  0  0  0
    0.4508    0.9910   -0.0007 C   0  0  0  0  0  0  0  0  0  0  0  0
    0.6747   -0.3980    0.0257 C   0  0  0  0  0  0  0  0  0  0  0  0
   -0.4644   -1.3270   -0.1423 C   0  0  0  0  0  0  0  0  0  0  0  0
   -0.2690   -2.5044   -0.3699 O   0  0  0  0  0  0  0  0  0  0  0  0
    1.9642   -0.8854    0.2099 C   0  0  0  0  0  0  0  0  0  0  0  0
    3.0183   -0.0014    0.3655 C   0  0  0  0  0  0  0  0  0  0  0  0
    2.7983    1.3635    0.3393 C   0  0  0  0  0  0  0  0  0  0  0  0
    1.5208    1.8653    0.1573 C   0  0  0  0  0  0  0  0  0  0  0  0
    4.4152   -0.5305    0.5653 C   0  0  0  0  0  0  0  0  0  0  0  0
    5.0493   -0.6926   -0.7050 O   0  0  0  0  0  0  0  0  0  0  0  0
   -5.4324    0.5781    0.2650 H   0  0  0  0  0  0  0  0  0  0  0  0
   -5.0416   -1.8450    0.3107 H   0  0  0  0  0  0  0  0  0  0  0  0
   -2.7560   -2.7423    0.1214 H   0  0  0  0  0  0  0  0  0  0  0  0
   -3.5427    2.1407    0.0356 H   0  0  0  0  0  0  0  0  0  0  0  0
    2.1427   -1.9504    0.2318 H   0  0  0  0  0  0  0  0  0  0  0  0
    3.6288    2.0430    0.4619 H   0  0  0  0  0  0  0  0  0  0  0  0
    1.3558    2.9324    0.1377 H   0  0  0  0  0  0  0  0  0  0  0  0
    4.9873    0.1734    1.1698 H   0  0  0  0  0  0  0  0  0  0  0  0
    4.3697   -1.4933    1.0743 H   0  0  0  0  0  0  0  0  0  0  0  0
    5.9538   -1.0308   -0.6527 H   0  0  0  0  0  0  0  0  0  0  0  0
  1  2  2  0  0  0  0
  2  3  1  0  0  0  0
  3  4  2  0  0  0  0
  4  5  1  0  0  0  0
  5  6  2  0  0  0  0
  1  6  1  0  0  0  0
  5  7  1  0  0  0  0
  7  8  2  0  0  0  0
  7  9  1  0  0  0  0
  9 10  2  0  0  0  0
 10 11  1  0  0  0  0
  4 11  1  0  0  0  0
 11 12  2  0  0  0  0
 10 13  1  0  0  0  0
 13 14  2  0  0  0  0
 14 15  1  0  0  0  0
 15 16  2  0  0  0  0
  9 16  1  0  0  0  0
 14 17  1  0  0  0  0
 17 18  1  0  0  0  0
  1 19  1  0  0  0  0
  2 20  1  0  0  0  0
  3 21  1  0  0  0  0
  6 22  1  0  0  0  0
 13 23  1  0  0  0  0
 15 24  1  0  0  0  0
 16 25  1  0  0  0  0
 17 26  1  0  0  0  0
 17 27  1  0  0  0  0
 18 28  1  0  0  0  0
M  END
$$$$
