C10H12O2
APtclcactv06211806293D 0   0.00000     0.00000
 
 24 24  0  0  0  0  0  0  0  0999 V2000
    1.6824    2.3831   -0.0031 C   0  0  0  0  0  0  0  0  0  0  0  0
    1.8614    0.8868   -0.0019 C   0  0  0  0  0  0  0  0  0  0  0  0
    3.1319    0.3427   -0.0011 C   0  0  0  0  0  0  0  0  0  0  0  0
    3.2961   -1.0300   -0.0001 C   0  0  0  0  0  0  0  0  0  0  0  0
    2.1897   -1.8584    0.0005 C   0  0  0  0  0  0  0  0  0  0  0  0
    0.9187   -1.3142    0.0005 C   0  0  0  0  0  0  0  0  0  0  0  0
    0.7546    0.0582    0.0039 C   0  0  0  0  0  0  0  0  0  0  0  0
   -0.6308    0.6513    0.0039 C   0  0  0  0  0  0  0  0  0  0  0  0
   -1.6145   -0.4166    0.0001 O   0  0  0  0  0  0  0  0  0  0  0  0
   -2.9071   -0.0545   -0.0004 C   0  0  0  0  0  0  0  0  0  0  0  0
   -3.2065    1.1161    0.0024 O   0  0  0  0  0  0  0  0  0  0  0  0
   -3.9847   -1.1079   -0.0043 C   0  0  0  0  0  0  0  0  0  0  0  0
    1.6397    2.7431   -1.0310 H   0  0  0  0  0  0  0  0  0  0  0  0
    0.7553    2.6385    0.5102 H   0  0  0  0  0  0  0  0  0  0  0  0
    2.5227    2.8499    0.5108 H   0  0  0  0  0  0  0  0  0  0  0  0
    3.9965    0.9900   -0.0015 H   0  0  0  0  0  0  0  0  0  0  0  0
    4.2889   -1.4551   -0.0001 H   0  0  0  0  0  0  0  0  0  0  0  0
    2.3179   -2.9307    0.0005 H   0  0  0  0  0  0  0  0  0  0  0  0
    0.0542   -1.9614    0.0006 H   0  0  0  0  0  0  0  0  0  0  0  0
   -0.7635    1.2644    0.8954 H   0  0  0  0  0  0  0  0  0  0  0  0
   -0.7615    1.2690   -0.8846 H   0  0  0  0  0  0  0  0  0  0  0  0
   -3.8863   -1.7316    0.8842 H   0  0  0  0  0  0  0  0  0  0  0  0
   -4.9629   -0.6270   -0.0041 H   0  0  0  0  0  0  0  0  0  0  0  0
   -3.8844   -1.7270   -0.8958 H   0  0  0  0  0  0  0  0  0  0  0  0
  1  2  1  0  0  0  0
  2  3  2  0  0  0  0
  3  4  1  0  0  0  0
  4  5  2  0  0  0  0
  5  6  1  0  0  0  0
  6  7  2  0  0  0  0
  2  7  1  0  0  0  0
  7  8  1  0  0  0  0
  8  9  1  0  0  0  0
  9 10  1  0  0  0  0
 10 11  2  0  0  0  0
 10 12  1  0  0  0  0
  1 13  1  0  0  0  0
  1 14  1  0  0  0  0
  1 15  1  0  0  0  0
  3 16  1  0  0  0  0
  4 17  1  0  0  0  0
  5 18  1  0  0  0  0
  6 19  1  0  0  0  0
  8 20  1  0  0  0  0
  8 21  1  0  0  0  0
 12 22  1  0  0  0  0
 12 23  1  0  0  0  0
 12 24  1  0  0  0  0
M  END
$$$$
