C22H37NO5S2
APtclcactv06291803023D 0   0.00000     0.00000
 
 67 67  0  0  0  0  0  0  0  0999 V2000
   -0.1002   -7.3526    0.1779 C   0  0  0  0  0  0  0  0  0  0  0  0
   -0.3368   -5.8678    0.4610 C   0  0  0  0  0  0  0  0  0  0  0  0
   -1.6935   -5.4497   -0.1095 C   0  0  0  0  0  0  0  0  0  0  0  0
   -1.9301   -3.9648    0.1737 C   0  0  0  0  0  0  0  0  0  0  0  0
   -3.2868   -3.5467   -0.3968 C   0  0  0  0  0  0  0  0  0  0  0  0
   -3.5234   -2.0619   -0.1137 C   0  0  0  0  0  0  0  0  0  0  0  0
   -4.8801   -1.6438   -0.6842 C   0  0  0  0  0  0  0  0  0  0  0  0
   -5.1167   -0.1589   -0.4011 C   0  0  0  0  0  0  0  0  0  0  0  0
   -6.7252    0.3368   -1.0775 S   0  0  0  0  0  0  0  0  0  0  0  0
   -7.7592   -0.3715   -0.4078 O   0  0  0  0  0  0  0  0  0  0  0  0
   -6.8229    2.0969   -0.6497 C   0  0  0  0  0  0  0  0  0  0  0  0
   -5.5907    2.8230   -1.1933 C   0  0  0  0  0  0  0  0  0  0  0  0
   -8.0852    2.7025   -1.2667 C   0  0  0  0  0  0  0  0  0  0  0  0
   -9.3025    2.0719   -0.6408 C   0  0  0  0  0  0  0  0  0  0  0  0
   -9.8651    2.6327    0.4906 C   0  0  0  0  0  0  0  0  0  0  0  0
  -10.9844    2.0551    1.0675 C   0  0  0  0  0  0  0  0  0  0  0  0
  -11.5403    0.9089    0.5046 C   0  0  0  0  0  0  0  0  0  0  0  0
  -10.9707    0.3519   -0.6288 C   0  0  0  0  0  0  0  0  0  0  0  0
   -9.8575    0.9372   -1.2026 C   0  0  0  0  0  0  0  0  0  0  0  0
  -12.6232    0.5387    1.2486 O   0  0  0  0  0  0  0  0  0  0  0  0
  -12.9674    1.6981    2.0299 C   0  0  0  0  0  0  0  0  0  0  0  0
  -11.7191    2.4030    2.1640 O   0  0  0  0  0  0  0  0  0  0  0  0
   15.4136   -0.3833    1.7385 C   0  0  0  0  0  0  0  0  0  0  0  0
   16.0679   -0.1639    0.4417 N   0  0  0  0  0  0  0  0  0  0  0  0
   16.7418    1.1409    0.4062 C   0  0  0  0  0  0  0  0  0  0  0  0
   17.8905    1.0943   -0.6034 C   0  0  0  0  0  0  0  0  0  0  0  0
   19.0772   -0.1860   -0.1105 S   0  0  0  0  0  0  0  0  0  0  0  0
   15.7559    2.2046   -0.0033 C   0  0  0  0  0  0  0  0  0  0  0  0
   14.7932    1.9108   -0.6718 O   0  0  0  0  0  0  0  0  0  0  0  0
   15.9472    3.4783    0.3746 O   0  0  0  0  0  0  0  0  0  0  0  0
    0.8663   -7.6505    0.5843 H   0  0  0  0  0  0  0  0  0  0  0  0
   -0.8885   -7.9419    0.6463 H   0  0  0  0  0  0  0  0  0  0  0  0
   -0.1098   -7.5233   -0.8986 H   0  0  0  0  0  0  0  0  0  0  0  0
   -0.3272   -5.6972    1.5376 H   0  0  0  0  0  0  0  0  0  0  0  0
    0.4515   -5.2785   -0.0073 H   0  0  0  0  0  0  0  0  0  0  0  0
   -1.7031   -5.6203   -1.1860 H   0  0  0  0  0  0  0  0  0  0  0  0
   -2.4818   -6.0390    0.3589 H   0  0  0  0  0  0  0  0  0  0  0  0
   -1.9205   -3.7942    1.2502 H   0  0  0  0  0  0  0  0  0  0  0  0
   -1.1418   -3.3755   -0.2947 H   0  0  0  0  0  0  0  0  0  0  0  0
   -3.2964   -3.7174   -1.4734 H   0  0  0  0  0  0  0  0  0  0  0  0
   -4.0751   -4.1360    0.0715 H   0  0  0  0  0  0  0  0  0  0  0  0
   -3.5138   -1.8913    0.9628 H   0  0  0  0  0  0  0  0  0  0  0  0
   -2.7351   -1.4726   -0.5821 H   0  0  0  0  0  0  0  0  0  0  0  0
   -4.8897   -1.8144   -1.7607 H   0  0  0  0  0  0  0  0  0  0  0  0
   -5.6684   -2.2331   -0.2159 H   0  0  0  0  0  0  0  0  0  0  0  0
   -5.1071    0.0117    0.6754 H   0  0  0  0  0  0  0  0  0  0  0  0
   -4.3284    0.4304   -0.8694 H   0  0  0  0  0  0  0  0  0  0  0  0
   -6.8600    2.2059    0.4342 H   0  0  0  0  0  0  0  0  0  0  0  0
   -5.6494    3.8806   -0.9363 H   0  0  0  0  0  0  0  0  0  0  0  0
   -4.6914    2.3916   -0.7537 H   0  0  0  0  0  0  0  0  0  0  0  0
   -5.5536    2.7140   -2.2772 H   0  0  0  0  0  0  0  0  0  0  0  0
   -8.0987    3.7772   -1.0852 H   0  0  0  0  0  0  0  0  0  0  0  0
   -8.0905    2.5152   -2.3405 H   0  0  0  0  0  0  0  0  0  0  0  0
   -9.4316    3.5214    0.9251 H   0  0  0  0  0  0  0  0  0  0  0  0
  -11.3997   -0.5369   -1.0674 H   0  0  0  0  0  0  0  0  0  0  0  0
   -9.4149    0.5018   -2.0863 H   0  0  0  0  0  0  0  0  0  0  0  0
  -13.6988    2.3113    1.5034 H   0  0  0  0  0  0  0  0  0  0  0  0
  -13.3472    1.4021    3.0078 H   0  0  0  0  0  0  0  0  0  0  0  0
   14.7310    0.4410    1.9452 H   0  0  0  0  0  0  0  0  0  0  0  0
   14.8552   -1.3190    1.7100 H   0  0  0  0  0  0  0  0  0  0  0  0
   16.1691   -0.4348    2.5226 H   0  0  0  0  0  0  0  0  0  0  0  0
   16.7136   -0.9102    0.2316 H   0  0  0  0  0  0  0  0  0  0  0  0
   17.1367    1.3730    1.3953 H   0  0  0  0  0  0  0  0  0  0  0  0
   17.4956    0.8623   -1.5925 H   0  0  0  0  0  0  0  0  0  0  0  0
   18.3905    2.0625   -0.6298 H   0  0  0  0  0  0  0  0  0  0  0  0
   20.0156   -0.1148   -1.0714 H   0  0  0  0  0  0  0  0  0  0  0  0
   15.2880    4.1250    0.0878 H   0  0  0  0  0  0  0  0  0  0  0  0
  1  2  1  0  0  0  0
  2  3  1  0  0  0  0
  3  4  1  0  0  0  0
  4  5  1  0  0  0  0
  5  6  1  0  0  0  0
  6  7  1  0  0  0  0
  7  8  1  0  0  0  0
  8  9  1  0  0  0  0
  9 10  2  0  0  0  0
  9 11  1  0  0  0  0
 11 12  1  0  0  0  0
 11 13  1  0  0  0  0
 13 14  1  0  0  0  0
 14 15  2  0  0  0  0
 15 16  1  0  0  0  0
 16 17  2  0  0  0  0
 17 18  1  0  0  0  0
 18 19  2  0  0  0  0
 14 19  1  0  0  0  0
 17 20  1  0  0  0  0
 20 21  1  0  0  0  0
 21 22  1  0  0  0  0
 16 22  1  0  0  0  0
 23 24  1  0  0  0  0
 24 25  1  0  0  0  0
 25 26  1  0  0  0  0
 26 27  1  0  0  0  0
 25 28  1  0  0  0  0
 28 29  2  0  0  0  0
 28 30  1  0  0  0  0
  1 31  1  0  0  0  0
  1 32  1  0  0  0  0
  1 33  1  0  0  0  0
  2 34  1  0  0  0  0
  2 35  1  0  0  0  0
  3 36  1  0  0  0  0
  3 37  1  0  0  0  0
  4 38  1  0  0  0  0
  4 39  1  0  0  0  0
  5 40  1  0  0  0  0
  5 41  1  0  0  0  0
  6 42  1  0  0  0  0
  6 43  1  0  0  0  0
  7 44  1  0  0  0  0
  7 45  1  0  0  0  0
  8 46  1  0  0  0  0
  8 47  1  0  0  0  0
 11 48  1  0  0  0  0
 12 49  1  0  0  0  0
 12 50  1  0  0  0  0
 12 51  1  0  0  0  0
 13 52  1  0  0  0  0
 13 53  1  0  0  0  0
 15 54  1  0  0  0  0
 18 55  1  0  0  0  0
 19 56  1  0  0  0  0
 21 57  1  0  0  0  0
 21 58  1  0  0  0  0
 23 59  1  0  0  0  0
 23 60  1  0  0  0  0
 23 61  1  0  0  0  0
 24 62  1  0  0  0  0
 25 63  1  0  0  0  0
 26 64  1  0  0  0  0
 26 65  1  0  0  0  0
 27 66  1  0  0  0  0
 30 67  1  0  0  0  0
M  END
$$$$
