C5H12O
APtclcactv06211804443D 0   0.00000     0.00000
 
 18 17  0  0  0  0  0  0  0  0999 V2000
    2.5361   -0.1073    0.3030 C   0  0  0  0  0  0  0  0  0  0  0  0
    1.2712   -0.7115   -0.3101 C   0  0  0  0  0  0  0  0  0  0  0  0
    0.0421    0.0230    0.2291 C   0  0  0  0  0  0  0  0  0  0  0  0
    0.0676    1.4770   -0.2464 C   0  0  0  0  0  0  0  0  0  0  0  0
   -1.2266   -0.6597   -0.2858 C   0  0  0  0  0  0  0  0  0  0  0  0
   -2.3723   -0.0472    0.3095 O   0  0  0  0  0  0  0  0  0  0  0  0
    2.5990    0.9485    0.0394 H   0  0  0  0  0  0  0  0  0  0  0  0
    2.4986   -0.2093    1.3876 H   0  0  0  0  0  0  0  0  0  0  0  0
    3.4117   -0.6305   -0.0811 H   0  0  0  0  0  0  0  0  0  0  0  0
    1.3087   -0.6095   -1.3946 H   0  0  0  0  0  0  0  0  0  0  0  0
    1.2082   -1.7672   -0.0464 H   0  0  0  0  0  0  0  0  0  0  0  0
    0.0521   -0.0031    1.3187 H   0  0  0  0  0  0  0  0  0  0  0  0
    0.0575    1.5032   -1.3360 H   0  0  0  0  0  0  0  0  0  0  0  0
   -0.8081    2.0003    0.1377 H   0  0  0  0  0  0  0  0  0  0  0  0
    0.9714    1.9635    0.1204 H   0  0  0  0  0  0  0  0  0  0  0  0
   -1.2810   -0.5558   -1.3694 H   0  0  0  0  0  0  0  0  0  0  0  0
   -1.2023   -1.7173   -0.0229 H   0  0  0  0  0  0  0  0  0  0  0  0
   -3.2142   -0.4306    0.0280 H   0  0  0  0  0  0  0  0  0  0  0  0
  1  2  1  0  0  0  0
  2  3  1  0  0  0  0
  3  4  1  0  0  0  0
  3  5  1  0  0  0  0
  5  6  1  0  0  0  0
  1  7  1  0  0  0  0
  1  8  1  0  0  0  0
  1  9  1  0  0  0  0
  2 10  1  0  0  0  0
  2 11  1  0  0  0  0
  3 12  1  0  0  0  0
  4 13  1  0  0  0  0
  4 14  1  0  0  0  0
  4 15  1  0  0  0  0
  5 16  1  0  0  0  0
  5 17  1  0  0  0  0
  6 18  1  0  0  0  0
M  END
$$$$
