C9H10O3
APtclcactv06211804323D 0   0.00000     0.00000
 
 22 22  0  0  0  0  0  0  0  0999 V2000
   -2.8294    1.5114   -0.1552 C   0  0  0  0  0  0  0  0  0  0  0  0
   -3.5099    0.3324   -0.3957 C   0  0  0  0  0  0  0  0  0  0  0  0
   -2.8588   -0.8800   -0.2719 C   0  0  0  0  0  0  0  0  0  0  0  0
   -1.5213   -0.9134    0.0941 C   0  0  0  0  0  0  0  0  0  0  0  0
   -0.8405    0.2715    0.3350 C   0  0  0  0  0  0  0  0  0  0  0  0
   -1.4959    1.4808    0.2099 C   0  0  0  0  0  0  0  0  0  0  0  0
    0.6125    0.2388    0.7333 C   0  0  0  0  0  0  0  0  0  0  0  0
    1.4839    0.1648   -0.5221 C   0  0  0  0  0  0  0  0  0  0  0  0
    2.9370    0.1322   -0.1238 C   0  0  0  0  0  0  0  0  0  0  0  0
    3.2441    0.1648    1.0443 O   0  0  0  0  0  0  0  0  0  0  0  0
    3.8900    0.0669   -1.0668 O   0  0  0  0  0  0  0  0  0  0  0  0
   -0.8788   -2.1046    0.2170 O   0  0  0  0  0  0  0  0  0  0  0  0
   -3.3389    2.4583   -0.2569 H   0  0  0  0  0  0  0  0  0  0  0  0
   -4.5514    0.3589   -0.6803 H   0  0  0  0  0  0  0  0  0  0  0  0
   -3.3909   -1.8009   -0.4595 H   0  0  0  0  0  0  0  0  0  0  0  0
   -0.9665    2.4034    0.3972 H   0  0  0  0  0  0  0  0  0  0  0  0
    0.8564    1.1423    1.2921 H   0  0  0  0  0  0  0  0  0  0  0  0
    0.7988   -0.6355    1.3569 H   0  0  0  0  0  0  0  0  0  0  0  0
    1.2400   -0.7387   -1.0810 H   0  0  0  0  0  0  0  0  0  0  0  0
    1.2977    1.0392   -1.1458 H   0  0  0  0  0  0  0  0  0  0  0  0
    4.8078    0.0482   -0.7628 H   0  0  0  0  0  0  0  0  0  0  0  0
   -0.4590   -2.4110   -0.5984 H   0  0  0  0  0  0  0  0  0  0  0  0
  1  2  2  0  0  0  0
  2  3  1  0  0  0  0
  3  4  2  0  0  0  0
  4  5  1  0  0  0  0
  5  6  2  0  0  0  0
  1  6  1  0  0  0  0
  5  7  1  0  0  0  0
  7  8  1  0  0  0  0
  8  9  1  0  0  0  0
  9 10  2  0  0  0  0
  9 11  1  0  0  0  0
  4 12  1  0  0  0  0
  1 13  1  0  0  0  0
  2 14  1  0  0  0  0
  3 15  1  0  0  0  0
  6 16  1  0  0  0  0
  7 17  1  0  0  0  0
  7 18  1  0  0  0  0
  8 19  1  0  0  0  0
  8 20  1  0  0  0  0
 11 21  1  0  0  0  0
 12 22  1  0  0  0  0
M  END
$$$$
