C7H10O5
APtclcactv06211804443D 0   0.00000     0.00000
 
 22 22  0  0  0  0  0  0  0  0999 V2000
    0.2035   -1.2994   -0.0142 C   0  0  0  0  0  0  0  0  0  0  0  0
   -1.1926   -1.2076    0.6052 C   0  0  0  0  0  0  0  0  0  0  0  0
   -1.8862    0.0463    0.0590 C   0  0  0  0  0  0  0  0  0  0  0  0
   -1.1663    1.2788    0.6102 C   0  0  0  0  0  0  0  0  0  0  0  0
    0.3141    1.1502    0.3983 C   0  0  0  0  0  0  0  0  0  0  0  0
    0.9186    0.0127    0.1269 C   0  0  0  0  0  0  0  0  0  0  0  0
    2.3776    0.0283   -0.0475 C   0  0  0  0  0  0  0  0  0  0  0  0
    2.9913    1.0719    0.0597 O   0  0  0  0  0  0  0  0  0  0  0  0
    3.0354   -1.1148   -0.3263 O   0  0  0  0  0  0  0  0  0  0  0  0
   -1.6417    2.4459   -0.0635 O   0  0  0  0  0  0  0  0  0  0  0  0
   -1.8184    0.0492   -1.3684 O   0  0  0  0  0  0  0  0  0  0  0  0
   -1.9507   -2.3670    0.2542 O   0  0  0  0  0  0  0  0  0  0  0  0
    0.7734   -2.0779    0.4930 H   0  0  0  0  0  0  0  0  0  0  0  0
    0.1140   -1.5503   -1.0712 H   0  0  0  0  0  0  0  0  0  0  0  0
   -1.1081   -1.1364    1.6896 H   0  0  0  0  0  0  0  0  0  0  0  0
   -2.9281    0.0572    0.3790 H   0  0  0  0  0  0  0  0  0  0  0  0
   -1.3720    1.3706    1.6767 H   0  0  0  0  0  0  0  0  0  0  0  0
    0.9181    2.0425    0.4724 H   0  0  0  0  0  0  0  0  0  0  0  0
    3.9946   -1.0546   -0.4323 H   0  0  0  0  0  0  0  0  0  0  0  0
   -1.2287    3.2679    0.2348 H   0  0  0  0  0  0  0  0  0  0  0  0
   -2.2389    0.8162   -1.7806 H   0  0  0  0  0  0  0  0  0  0  0  0
   -1.5602   -3.1985    0.5562 H   0  0  0  0  0  0  0  0  0  0  0  0
  1  2  1  0  0  0  0
  2  3  1  0  0  0  0
  3  4  1  0  0  0  0
  4  5  1  0  0  0  0
  5  6  2  0  0  0  0
  1  6  1  0  0  0  0
  6  7  1  0  0  0  0
  7  8  2  0  0  0  0
  7  9  1  0  0  0  0
  4 10  1  0  0  0  0
  3 11  1  0  0  0  0
  2 12  1  0  0  0  0
  1 13  1  0  0  0  0
  1 14  1  0  0  0  0
  2 15  1  0  0  0  0
  3 16  1  0  0  0  0
  4 17  1  0  0  0  0
  5 18  1  0  0  0  0
  9 19  1  0  0  0  0
 10 20  1  0  0  0  0
 11 21  1  0  0  0  0
 12 22  1  0  0  0  0
M  END
$$$$
