C30H60O2
APtclcactv06291803023D 0   0.00000     0.00000
 
 92 91  0  0  0  0  0  0  0  0999 V2000
   19.4187   -0.3908   -0.0000 C   0  0  0  0  0  0  0  0  0  0  0  0
   18.1670    0.4890    0.0000 C   0  0  0  0  0  0  0  0  0  0  0  0
   16.9203   -0.3978   -0.0000 C   0  0  0  0  0  0  0  0  0  0  0  0
   15.6685    0.4820    0.0000 C   0  0  0  0  0  0  0  0  0  0  0  0
   14.4218   -0.4049   -0.0000 C   0  0  0  0  0  0  0  0  0  0  0  0
   13.1701    0.4750    0.0000 C   0  0  0  0  0  0  0  0  0  0  0  0
   11.9233   -0.4119   -0.0000 C   0  0  0  0  0  0  0  0  0  0  0  0
   10.6716    0.4679    0.0000 C   0  0  0  0  0  0  0  0  0  0  0  0
    9.4248   -0.4189   -0.0000 C   0  0  0  0  0  0  0  0  0  0  0  0
    8.1731    0.4609    0.0000 C   0  0  0  0  0  0  0  0  0  0  0  0
    6.9264   -0.4259   -0.0000 C   0  0  0  0  0  0  0  0  0  0  0  0
    5.6747    0.4539    0.0000 C   0  0  0  0  0  0  0  0  0  0  0  0
    4.4279   -0.4330   -0.0000 C   0  0  0  0  0  0  0  0  0  0  0  0
    3.1762    0.4469    0.0000 C   0  0  0  0  0  0  0  0  0  0  0  0
    1.9294   -0.4400   -0.0000 C   0  0  0  0  0  0  0  0  0  0  0  0
    0.6777    0.4399    0.0000 C   0  0  0  0  0  0  0  0  0  0  0  0
   -0.5690   -0.4470    0.0000 C   0  0  0  0  0  0  0  0  0  0  0  0
   -1.8208    0.4328   -0.0000 C   0  0  0  0  0  0  0  0  0  0  0  0
   -3.0675   -0.4540    0.0000 C   0  0  0  0  0  0  0  0  0  0  0  0
   -4.3192    0.4258   -0.0000 C   0  0  0  0  0  0  0  0  0  0  0  0
   -5.5660   -0.4610    0.0000 C   0  0  0  0  0  0  0  0  0  0  0  0
   -6.8177    0.4188   -0.0000 C   0  0  0  0  0  0  0  0  0  0  0  0
   -8.0644   -0.4681    0.0000 C   0  0  0  0  0  0  0  0  0  0  0  0
   -9.3162    0.4118   -0.0000 C   0  0  0  0  0  0  0  0  0  0  0  0
  -10.5629   -0.4751    0.0000 C   0  0  0  0  0  0  0  0  0  0  0  0
  -11.8146    0.4047   -0.0000 C   0  0  0  0  0  0  0  0  0  0  0  0
  -13.0614   -0.4821    0.0000 C   0  0  0  0  0  0  0  0  0  0  0  0
  -14.3131    0.3977   -0.0000 C   0  0  0  0  0  0  0  0  0  0  0  0
  -15.5599   -0.4891    0.0000 C   0  0  0  0  0  0  0  0  0  0  0  0
  -16.7478    0.3458   -0.0000 O   0  0  0  0  0  0  0  0  0  0  0  0
  -17.9341   -0.2822    0.0000 C   0  0  0  0  0  0  0  0  0  0  0  0
  -18.9576    0.3599   -0.0000 O   0  0  0  0  0  0  0  0  0  0  0  0
   20.3069    0.2410    0.0000 H   0  0  0  0  0  0  0  0  0  0  0  0
   19.4205   -1.0201    0.8900 H   0  0  0  0  0  0  0  0  0  0  0  0
   19.4205   -1.0201   -0.8900 H   0  0  0  0  0  0  0  0  0  0  0  0
   18.1652    1.1183    0.8900 H   0  0  0  0  0  0  0  0  0  0  0  0
   18.1652    1.1183   -0.8900 H   0  0  0  0  0  0  0  0  0  0  0  0
   16.9220   -1.0271   -0.8900 H   0  0  0  0  0  0  0  0  0  0  0  0
   16.9220   -1.0271    0.8900 H   0  0  0  0  0  0  0  0  0  0  0  0
   15.6668    1.1113    0.8900 H   0  0  0  0  0  0  0  0  0  0  0  0
   15.6668    1.1113   -0.8900 H   0  0  0  0  0  0  0  0  0  0  0  0
   14.4236   -1.0342   -0.8900 H   0  0  0  0  0  0  0  0  0  0  0  0
   14.4236   -1.0342    0.8900 H   0  0  0  0  0  0  0  0  0  0  0  0
   13.1683    1.1043    0.8900 H   0  0  0  0  0  0  0  0  0  0  0  0
   13.1683    1.1043   -0.8900 H   0  0  0  0  0  0  0  0  0  0  0  0
   11.9251   -1.0412   -0.8900 H   0  0  0  0  0  0  0  0  0  0  0  0
   11.9251   -1.0412    0.8900 H   0  0  0  0  0  0  0  0  0  0  0  0
   10.6698    1.0973    0.8900 H   0  0  0  0  0  0  0  0  0  0  0  0
   10.6698    1.0973   -0.8900 H   0  0  0  0  0  0  0  0  0  0  0  0
    9.4266   -1.0482   -0.8900 H   0  0  0  0  0  0  0  0  0  0  0  0
    9.4266   -1.0482    0.8900 H   0  0  0  0  0  0  0  0  0  0  0  0
    8.1714    1.0902    0.8900 H   0  0  0  0  0  0  0  0  0  0  0  0
    8.1714    1.0902   -0.8900 H   0  0  0  0  0  0  0  0  0  0  0  0
    6.9281   -1.0552   -0.8900 H   0  0  0  0  0  0  0  0  0  0  0  0
    6.9281   -1.0552    0.8900 H   0  0  0  0  0  0  0  0  0  0  0  0
    5.6729    1.0832    0.8900 H   0  0  0  0  0  0  0  0  0  0  0  0
    5.6729    1.0832   -0.8900 H   0  0  0  0  0  0  0  0  0  0  0  0
    4.4297   -1.0623   -0.8900 H   0  0  0  0  0  0  0  0  0  0  0  0
    4.4297   -1.0623    0.8900 H   0  0  0  0  0  0  0  0  0  0  0  0
    3.1744    1.0762    0.8900 H   0  0  0  0  0  0  0  0  0  0  0  0
    3.1744    1.0762   -0.8900 H   0  0  0  0  0  0  0  0  0  0  0  0
    1.9312   -1.0693   -0.8900 H   0  0  0  0  0  0  0  0  0  0  0  0
    1.9312   -1.0693    0.8900 H   0  0  0  0  0  0  0  0  0  0  0  0
    0.6759    1.0692    0.8900 H   0  0  0  0  0  0  0  0  0  0  0  0
    0.6759    1.0692   -0.8900 H   0  0  0  0  0  0  0  0  0  0  0  0
   -0.5673   -1.0763   -0.8900 H   0  0  0  0  0  0  0  0  0  0  0  0
   -0.5673   -1.0763    0.8900 H   0  0  0  0  0  0  0  0  0  0  0  0
   -1.8225    1.0621    0.8900 H   0  0  0  0  0  0  0  0  0  0  0  0
   -1.8225    1.0621   -0.8900 H   0  0  0  0  0  0  0  0  0  0  0  0
   -3.0657   -1.0833   -0.8900 H   0  0  0  0  0  0  0  0  0  0  0  0
   -3.0657   -1.0833    0.8900 H   0  0  0  0  0  0  0  0  0  0  0  0
   -4.3210    1.0551    0.8900 H   0  0  0  0  0  0  0  0  0  0  0  0
   -4.3210    1.0551   -0.8900 H   0  0  0  0  0  0  0  0  0  0  0  0
   -5.5642   -1.0904   -0.8900 H   0  0  0  0  0  0  0  0  0  0  0  0
   -5.5642   -1.0904    0.8900 H   0  0  0  0  0  0  0  0  0  0  0  0
   -6.8195    1.0481    0.8900 H   0  0  0  0  0  0  0  0  0  0  0  0
   -6.8195    1.0481   -0.8900 H   0  0  0  0  0  0  0  0  0  0  0  0
   -8.0627   -1.0974   -0.8900 H   0  0  0  0  0  0  0  0  0  0  0  0
   -8.0627   -1.0974    0.8900 H   0  0  0  0  0  0  0  0  0  0  0  0
   -9.3179    1.0411    0.8900 H   0  0  0  0  0  0  0  0  0  0  0  0
   -9.3179    1.0411   -0.8900 H   0  0  0  0  0  0  0  0  0  0  0  0
  -10.5611   -1.1044   -0.8900 H   0  0  0  0  0  0  0  0  0  0  0  0
  -10.5611   -1.1044    0.8900 H   0  0  0  0  0  0  0  0  0  0  0  0
  -11.8164    1.0340    0.8900 H   0  0  0  0  0  0  0  0  0  0  0  0
  -11.8164    1.0340   -0.8900 H   0  0  0  0  0  0  0  0  0  0  0  0
  -13.0596   -1.1114   -0.8900 H   0  0  0  0  0  0  0  0  0  0  0  0
  -13.0596   -1.1114    0.8900 H   0  0  0  0  0  0  0  0  0  0  0  0
  -14.3149    1.0270    0.8900 H   0  0  0  0  0  0  0  0  0  0  0  0
  -14.3149    1.0270   -0.8900 H   0  0  0  0  0  0  0  0  0  0  0  0
  -15.5581   -1.1184   -0.8900 H   0  0  0  0  0  0  0  0  0  0  0  0
  -15.5581   -1.1184    0.8900 H   0  0  0  0  0  0  0  0  0  0  0  0
  -17.9737   -1.3615    0.0000 H   0  0  0  0  0  0  0  0  0  0  0  0
  1  2  1  0  0  0  0
  2  3  1  0  0  0  0
  3  4  1  0  0  0  0
  4  5  1  0  0  0  0
  5  6  1  0  0  0  0
  6  7  1  0  0  0  0
  7  8  1  0  0  0  0
  8  9  1  0  0  0  0
  9 10  1  0  0  0  0
 10 11  1  0  0  0  0
 11 12  1  0  0  0  0
 12 13  1  0  0  0  0
 13 14  1  0  0  0  0
 14 15  1  0  0  0  0
 15 16  1  0  0  0  0
 16 17  1  0  0  0  0
 17 18  1  0  0  0  0
 18 19  1  0  0  0  0
 19 20  1  0  0  0  0
 20 21  1  0  0  0  0
 21 22  1  0  0  0  0
 22 23  1  0  0  0  0
 23 24  1  0  0  0  0
 24 25  1  0  0  0  0
 25 26  1  0  0  0  0
 26 27  1  0  0  0  0
 27 28  1  0  0  0  0
 28 29  1  0  0  0  0
 29 30  1  0  0  0  0
 30 31  1  0  0  0  0
 31 32  2  0  0  0  0
  1 33  1  0  0  0  0
  1 34  1  0  0  0  0
  1 35  1  0  0  0  0
  2 36  1  0  0  0  0
  2 37  1  0  0  0  0
  3 38  1  0  0  0  0
  3 39  1  0  0  0  0
  4 40  1  0  0  0  0
  4 41  1  0  0  0  0
  5 42  1  0  0  0  0
  5 43  1  0  0  0  0
  6 44  1  0  0  0  0
  6 45  1  0  0  0  0
  7 46  1  0  0  0  0
  7 47  1  0  0  0  0
  8 48  1  0  0  0  0
  8 49  1  0  0  0  0
  9 50  1  0  0  0  0
  9 51  1  0  0  0  0
 10 52  1  0  0  0  0
 10 53  1  0  0  0  0
 11 54  1  0  0  0  0
 11 55  1  0  0  0  0
 12 56  1  0  0  0  0
 12 57  1  0  0  0  0
 13 58  1  0  0  0  0
 13 59  1  0  0  0  0
 14 60  1  0  0  0  0
 14 61  1  0  0  0  0
 15 62  1  0  0  0  0
 15 63  1  0  0  0  0
 16 64  1  0  0  0  0
 16 65  1  0  0  0  0
 17 66  1  0  0  0  0
 17 67  1  0  0  0  0
 18 68  1  0  0  0  0
 18 69  1  0  0  0  0
 19 70  1  0  0  0  0
 19 71  1  0  0  0  0
 20 72  1  0  0  0  0
 20 73  1  0  0  0  0
 21 74  1  0  0  0  0
 21 75  1  0  0  0  0
 22 76  1  0  0  0  0
 22 77  1  0  0  0  0
 23 78  1  0  0  0  0
 23 79  1  0  0  0  0
 24 80  1  0  0  0  0
 24 81  1  0  0  0  0
 25 82  1  0  0  0  0
 25 83  1  0  0  0  0
 26 84  1  0  0  0  0
 26 85  1  0  0  0  0
 27 86  1  0  0  0  0
 27 87  1  0  0  0  0
 28 88  1  0  0  0  0
 28 89  1  0  0  0  0
 29 90  1  0  0  0  0
 29 91  1  0  0  0  0
 31 92  1  0  0  0  0
M  END
$$$$
