C27H36O2
APtclcactv06291803023D 0   0.00000     0.00000
 
 65 65  0  0  0  0  0  0  0  0999 V2000
   -5.1627   -1.6378   -1.5499 C   0  0  0  0  0  0  0  0  0  0  0  0
   -6.2689   -1.0710   -0.6978 C   0  0  0  0  0  0  0  0  0  0  0  0
   -6.0613    0.0884   -0.0956 C   0  0  0  0  0  0  0  0  0  0  0  0
   -7.0783    0.7692    0.7735 C   0  0  0  0  0  0  0  0  0  0  0  0
   -8.1608   -0.2261    1.1959 C   0  0  0  0  0  0  0  0  0  0  0  0
   -8.6664   -0.9562   -0.0543 C   0  0  0  0  0  0  0  0  0  0  0  0
   -7.5465   -1.8509   -0.5850 C   0  0  0  0  0  0  0  0  0  0  0  0
   -9.8021   -1.7553    0.2829 O   0  0  0  0  0  0  0  0  0  0  0  0
   -6.3883    1.3274    2.0197 C   0  0  0  0  0  0  0  0  0  0  0  0
   -7.7220    1.9188   -0.0044 C   0  0  0  0  0  0  0  0  0  0  0  0
   -4.8078    0.7232   -0.2811 C   0  0  0  0  0  0  0  0  0  0  0  0
   -3.6606    0.0717    0.0477 C   0  0  0  0  0  0  0  0  0  0  0  0
   -2.4148    0.6450   -0.2580 C   0  0  0  0  0  0  0  0  0  0  0  0
   -1.2622   -0.0095    0.0723 C   0  0  0  0  0  0  0  0  0  0  0  0
   -0.0204    0.5620   -0.2324 C   0  0  0  0  0  0  0  0  0  0  0  0
    1.1428   -0.0985    0.1010 C   0  0  0  0  0  0  0  0  0  0  0  0
    2.3825    0.4720   -0.2032 C   0  0  0  0  0  0  0  0  0  0  0  0
    3.5472   -0.1894    0.1305 C   0  0  0  0  0  0  0  0  0  0  0  0
    4.7857    0.3806   -0.1734 C   0  0  0  0  0  0  0  0  0  0  0  0
    5.9513   -0.2813    0.1606 C   0  0  0  0  0  0  0  0  0  0  0  0
    7.1891    0.2884   -0.1431 C   0  0  0  0  0  0  0  0  0  0  0  0
    8.3552   -0.3738    0.1911 C   0  0  0  0  0  0  0  0  0  0  0  0
    8.2905   -1.7108    0.8833 C   0  0  0  0  0  0  0  0  0  0  0  0
    9.5925    0.1957   -0.1125 C   0  0  0  0  0  0  0  0  0  0  0  0
   10.7589   -0.4667    0.2217 C   0  0  0  0  0  0  0  0  0  0  0  0
   11.9961    0.1026   -0.0818 C   0  0  0  0  0  0  0  0  0  0  0  0
   13.0227   -0.4804    0.2124 O   0  0  0  0  0  0  0  0  0  0  0  0
    2.4471    1.8090   -0.8955 C   0  0  0  0  0  0  0  0  0  0  0  0
   -2.3501    1.9821   -0.9503 C   0  0  0  0  0  0  0  0  0  0  0  0
   -4.4661   -2.1911   -0.9200 H   0  0  0  0  0  0  0  0  0  0  0  0
   -5.5871   -2.3077   -2.2978 H   0  0  0  0  0  0  0  0  0  0  0  0
   -4.6349   -0.8247   -2.0481 H   0  0  0  0  0  0  0  0  0  0  0  0
   -7.7412   -0.9479    1.8967 H   0  0  0  0  0  0  0  0  0  0  0  0
   -8.9860    0.3083    1.6667 H   0  0  0  0  0  0  0  0  0  0  0  0
   -8.9413   -0.2280   -0.8174 H   0  0  0  0  0  0  0  0  0  0  0  0
   -7.8267   -2.2376   -1.5649 H   0  0  0  0  0  0  0  0  0  0  0  0
   -7.3946   -2.6846    0.1004 H   0  0  0  0  0  0  0  0  0  0  0  0
  -10.1735   -2.2456   -0.4633 H   0  0  0  0  0  0  0  0  0  0  0  0
   -5.6889    2.1108    1.7276 H   0  0  0  0  0  0  0  0  0  0  0  0
   -7.1371    1.7421    2.6946 H   0  0  0  0  0  0  0  0  0  0  0  0
   -5.8473    0.5272    2.5247 H   0  0  0  0  0  0  0  0  0  0  0  0
   -8.2097    1.5257   -0.8964 H   0  0  0  0  0  0  0  0  0  0  0  0
   -8.4610    2.4146    0.6252 H   0  0  0  0  0  0  0  0  0  0  0  0
   -6.9539    2.6351   -0.2960 H   0  0  0  0  0  0  0  0  0  0  0  0
   -4.7639    1.7244   -0.6835 H   0  0  0  0  0  0  0  0  0  0  0  0
   -3.7069   -0.8865    0.5438 H   0  0  0  0  0  0  0  0  0  0  0  0
   -1.3085   -0.9677    0.5684 H   0  0  0  0  0  0  0  0  0  0  0  0
    0.0259    1.5202   -0.7285 H   0  0  0  0  0  0  0  0  0  0  0  0
    1.0965   -1.0567    0.5971 H   0  0  0  0  0  0  0  0  0  0  0  0
    3.5009   -1.1476    0.6266 H   0  0  0  0  0  0  0  0  0  0  0  0
    4.8320    1.3388   -0.6695 H   0  0  0  0  0  0  0  0  0  0  0  0
    5.9050   -1.2395    0.6567 H   0  0  0  0  0  0  0  0  0  0  0  0
    7.2354    1.2466   -0.6392 H   0  0  0  0  0  0  0  0  0  0  0  0
    8.2683   -2.5054    0.1375 H   0  0  0  0  0  0  0  0  0  0  0  0
    9.1674   -1.8336    1.5190 H   0  0  0  0  0  0  0  0  0  0  0  0
    7.3891   -1.7605    1.4941 H   0  0  0  0  0  0  0  0  0  0  0  0
    9.6389    1.1539   -0.6087 H   0  0  0  0  0  0  0  0  0  0  0  0
   10.7126   -1.4249    0.7178 H   0  0  0  0  0  0  0  0  0  0  0  0
   12.0424    1.0608   -0.5780 H   0  0  0  0  0  0  0  0  0  0  0  0
    2.4693    2.6036   -0.1497 H   0  0  0  0  0  0  0  0  0  0  0  0
    3.3486    1.8587   -1.5063 H   0  0  0  0  0  0  0  0  0  0  0  0
    1.5703    1.9318   -1.5312 H   0  0  0  0  0  0  0  0  0  0  0  0
   -2.3279    2.7767   -0.2045 H   0  0  0  0  0  0  0  0  0  0  0  0
   -1.4487    2.0318   -1.5611 H   0  0  0  0  0  0  0  0  0  0  0  0
   -3.2270    2.1048   -1.5860 H   0  0  0  0  0  0  0  0  0  0  0  0
  1  2  1  0  0  0  0
  2  3  2  0  0  0  0
  3  4  1  0  0  0  0
  4  5  1  0  0  0  0
  5  6  1  0  0  0  0
  6  7  1  0  0  0  0
  2  7  1  0  0  0  0
  6  8  1  0  0  0  0
  4  9  1  0  0  0  0
  4 10  1  0  0  0  0
  3 11  1  0  0  0  0
 11 12  2  0  0  0  0
 12 13  1  0  0  0  0
 13 14  2  0  0  0  0
 14 15  1  0  0  0  0
 15 16  2  0  0  0  0
 16 17  1  0  0  0  0
 17 18  2  0  0  0  0
 18 19  1  0  0  0  0
 19 20  2  0  0  0  0
 20 21  1  0  0  0  0
 21 22  2  0  0  0  0
 22 23  1  0  0  0  0
 22 24  1  0  0  0  0
 24 25  2  0  0  0  0
 25 26  1  0  0  0  0
 26 27  2  0  0  0  0
 17 28  1  0  0  0  0
 13 29  1  0  0  0  0
  1 30  1  0  0  0  0
  1 31  1  0  0  0  0
  1 32  1  0  0  0  0
  5 33  1  0  0  0  0
  5 34  1  0  0  0  0
  6 35  1  0  0  0  0
  7 36  1  0  0  0  0
  7 37  1  0  0  0  0
  8 38  1  0  0  0  0
  9 39  1  0  0  0  0
  9 40  1  0  0  0  0
  9 41  1  0  0  0  0
 10 42  1  0  0  0  0
 10 43  1  0  0  0  0
 10 44  1  0  0  0  0
 11 45  1  0  0  0  0
 12 46  1  0  0  0  0
 14 47  1  0  0  0  0
 15 48  1  0  0  0  0
 16 49  1  0  0  0  0
 18 50  1  0  0  0  0
 19 51  1  0  0  0  0
 20 52  1  0  0  0  0
 21 53  1  0  0  0  0
 23 54  1  0  0  0  0
 23 55  1  0  0  0  0
 23 56  1  0  0  0  0
 24 57  1  0  0  0  0
 25 58  1  0  0  0  0
 26 59  1  0  0  0  0
 28 60  1  0  0  0  0
 28 61  1  0  0  0  0
 28 62  1  0  0  0  0
 29 63  1  0  0  0  0
 29 64  1  0  0  0  0
 29 65  1  0  0  0  0
M  END
$$$$
