C10H15N3O8
APtclcactv06211806303D 0   0.00000     0.00000
 
 36 37  0  0  0  0  0  0  0  0999 V2000
   -2.1200    2.4478   -1.0108 C   0  0  0  0  0  0  0  0  0  0  0  0
   -1.8377    1.0741   -0.3990 C   0  0  0  0  0  0  0  0  0  0  0  0
   -3.1611    0.3524   -0.1321 C   0  0  0  0  0  0  0  0  0  0  0  0
   -2.8687   -1.0447    0.4239 C   0  0  0  0  0  0  0  0  0  0  0  0
   -1.9833   -1.8027   -0.5701 C   0  0  0  0  0  0  0  0  0  0  0  0
   -0.7053   -0.9977   -0.8201 C   0  0  0  0  0  0  0  0  0  0  0  0
   -1.0496    0.3011   -1.3066 O   0  0  0  0  0  0  0  0  0  0  0  0
    0.0247   -0.8708    0.4018 O   0  0  0  0  0  0  0  0  0  0  0  0
    1.3127   -0.4308    0.3108 C   0  0  0  0  0  0  0  0  0  0  0  0
    1.6844    0.7517    0.8891 C   0  0  0  0  0  0  0  0  0  0  0  0
    2.9898    1.1738    0.7832 N   0  0  0  0  0  0  0  0  0  0  0  0
    3.8931    0.4312    0.1173 C   0  0  0  0  0  0  0  0  0  0  0  0
    5.0424    0.8195    0.0336 O   0  0  0  0  0  0  0  0  0  0  0  0
    3.5444   -0.7344   -0.4570 N   0  0  0  0  0  0  0  0  0  0  0  0
    2.2785   -1.1886   -0.3735 C   0  0  0  0  0  0  0  0  0  0  0  0
    1.9705   -2.2465   -0.8965 O   0  0  0  0  0  0  0  0  0  0  0  0
    0.7622    1.5118    1.5696 N   0  0  0  0  0  0  0  0  0  0  0  0
   -1.6442   -3.0811   -0.0290 O   0  0  0  0  0  0  0  0  0  0  0  0
   -2.1903   -0.9285    1.6762 O   0  0  0  0  0  0  0  0  0  0  0  0
   -3.9263    1.0945    0.8196 O   0  0  0  0  0  0  0  0  0  0  0  0
   -0.8936    3.1675   -1.1521 O   0  0  0  0  0  0  0  0  0  0  0  0
   -2.5821    2.3215   -1.9899 H   0  0  0  0  0  0  0  0  0  0  0  0
   -2.7946    3.0038   -0.3597 H   0  0  0  0  0  0  0  0  0  0  0  0
   -1.2957    1.1982    0.5385 H   0  0  0  0  0  0  0  0  0  0  0  0
   -3.7220    0.2641   -1.0625 H   0  0  0  0  0  0  0  0  0  0  0  0
   -3.8050   -1.5849    0.5636 H   0  0  0  0  0  0  0  0  0  0  0  0
   -2.5204   -1.9345   -1.5093 H   0  0  0  0  0  0  0  0  0  0  0  0
   -0.0908   -1.5116   -1.5592 H   0  0  0  0  0  0  0  0  0  0  0  0
    3.2604    2.0115    1.1906 H   0  0  0  0  0  0  0  0  0  0  0  0
    4.2112   -1.2543   -0.9324 H   0  0  0  0  0  0  0  0  0  0  0  0
   -0.1177    1.1508    1.7606 H   0  0  0  0  0  0  0  0  0  0  0  0
    0.9915    2.4089    1.8585 H   0  0  0  0  0  0  0  0  0  0  0  0
   -1.0834   -3.6166   -0.6068 H   0  0  0  0  0  0  0  0  0  0  0  0
   -1.9735   -1.7770    2.0863 H   0  0  0  0  0  0  0  0  0  0  0  0
   -4.7794    0.6942    1.0364 H   0  0  0  0  0  0  0  0  0  0  0  0
   -0.9970    4.0495   -1.5348 H   0  0  0  0  0  0  0  0  0  0  0  0
  1  2  1  0  0  0  0
  2  3  1  0  0  0  0
  3  4  1  0  0  0  0
  4  5  1  0  0  0  0
  5  6  1  0  0  0  0
  6  7  1  0  0  0  0
  2  7  1  0  0  0  0
  6  8  1  0  0  0  0
  8  9  1  0  0  0  0
  9 10  2  0  0  0  0
 10 11  1  0  0  0  0
 11 12  1  0  0  0  0
 12 13  2  0  0  0  0
 12 14  1  0  0  0  0
 14 15  1  0  0  0  0
  9 15  1  0  0  0  0
 15 16  2  0  0  0  0
 10 17  1  0  0  0  0
  5 18  1  0  0  0  0
  4 19  1  0  0  0  0
  3 20  1  0  0  0  0
  1 21  1  0  0  0  0
  1 22  1  0  0  0  0
  1 23  1  0  0  0  0
  2 24  1  0  0  0  0
  3 25  1  0  0  0  0
  4 26  1  0  0  0  0
  5 27  1  0  0  0  0
  6 28  1  0  0  0  0
 11 29  1  0  0  0  0
 14 30  1  0  0  0  0
 17 31  1  0  0  0  0
 17 32  1  0  0  0  0
 18 33  1  0  0  0  0
 19 34  1  0  0  0  0
 20 35  1  0  0  0  0
 21 36  1  0  0  0  0
M  END
$$$$
