C14H24O2
APtclcactv06291803023D 0   0.00000     0.00000
 
 40 39  0  0  0  0  0  0  0  0999 V2000
    6.3489   -0.2420   -0.8398 C   0  0  0  0  0  0  0  0  0  0  0  0
    5.1159   -0.6072   -0.0108 C   0  0  0  0  0  0  0  0  0  0  0  0
    3.8647   -0.0315   -0.6770 C   0  0  0  0  0  0  0  0  0  0  0  0
    2.6502   -0.3913    0.1396 C   0  0  0  0  0  0  0  0  0  0  0  0
    2.7729   -1.0414    1.1506 O   0  0  0  0  0  0  0  0  0  0  0  0
    1.4322    0.0105   -0.2563 O   0  0  0  0  0  0  0  0  0  0  0  0
    0.3079   -0.3723    0.5791 C   0  0  0  0  0  0  0  0  0  0  0  0
   -0.9869    0.1716   -0.0278 C   0  0  0  0  0  0  0  0  0  0  0  0
   -2.1820   -0.3355    0.7818 C   0  0  0  0  0  0  0  0  0  0  0  0
   -3.4615    0.0981    0.1140 C   0  0  0  0  0  0  0  0  0  0  0  0
   -4.3345   -0.7984   -0.2735 C   0  0  0  0  0  0  0  0  0  0  0  0
   -4.0035   -2.2651   -0.1733 C   0  0  0  0  0  0  0  0  0  0  0  0
   -5.6700   -0.3630   -0.8195 C   0  0  0  0  0  0  0  0  0  0  0  0
   -0.9621    1.6781    0.0031 C   0  0  0  0  0  0  0  0  0  0  0  0
   -1.0430    2.3576   -1.1140 C   0  0  0  0  0  0  0  0  0  0  0  0
   -0.8442    2.4029    1.3190 C   0  0  0  0  0  0  0  0  0  0  0  0
    7.2404   -0.6521   -0.3653 H   0  0  0  0  0  0  0  0  0  0  0  0
    6.2481   -0.6564   -1.8429 H   0  0  0  0  0  0  0  0  0  0  0  0
    6.4367    0.8427   -0.9019 H   0  0  0  0  0  0  0  0  0  0  0  0
    5.0281   -1.6919    0.0513 H   0  0  0  0  0  0  0  0  0  0  0  0
    5.2168   -0.1929    0.9923 H   0  0  0  0  0  0  0  0  0  0  0  0
    3.9525    1.0531   -0.7391 H   0  0  0  0  0  0  0  0  0  0  0  0
    3.7638   -0.4459   -1.6801 H   0  0  0  0  0  0  0  0  0  0  0  0
    0.2529   -1.4593    0.6383 H   0  0  0  0  0  0  0  0  0  0  0  0
    0.4416    0.0397    1.5793 H   0  0  0  0  0  0  0  0  0  0  0  0
   -1.0759   -0.1692   -1.0593 H   0  0  0  0  0  0  0  0  0  0  0  0
   -2.1501   -1.4237    0.8339 H   0  0  0  0  0  0  0  0  0  0  0  0
   -2.1399    0.0780    1.7895 H   0  0  0  0  0  0  0  0  0  0  0  0
   -3.6587    1.1480   -0.0452 H   0  0  0  0  0  0  0  0  0  0  0  0
   -4.2339   -2.6218    0.8306 H   0  0  0  0  0  0  0  0  0  0  0  0
   -4.5941   -2.8215   -0.9011 H   0  0  0  0  0  0  0  0  0  0  0  0
   -2.9429   -2.4130   -0.3769 H   0  0  0  0  0  0  0  0  0  0  0  0
   -5.5963   -0.2335   -1.8993 H   0  0  0  0  0  0  0  0  0  0  0  0
   -6.4193   -1.1220   -0.5949 H   0  0  0  0  0  0  0  0  0  0  0  0
   -5.9602    0.5815   -0.3593 H   0  0  0  0  0  0  0  0  0  0  0  0
   -1.1275    1.8381   -2.0571 H   0  0  0  0  0  0  0  0  0  0  0  0
   -1.0252    3.4372   -1.0919 H   0  0  0  0  0  0  0  0  0  0  0  0
    0.2084    2.5625    1.5529 H   0  0  0  0  0  0  0  0  0  0  0  0
   -1.3511    3.3654    1.2504 H   0  0  0  0  0  0  0  0  0  0  0  0
   -1.3046    1.8051    2.1056 H   0  0  0  0  0  0  0  0  0  0  0  0
  1  2  1  0  0  0  0
  2  3  1  0  0  0  0
  3  4  1  0  0  0  0
  4  5  2  0  0  0  0
  4  6  1  0  0  0  0
  6  7  1  0  0  0  0
  7  8  1  0  0  0  0
  8  9  1  0  0  0  0
  9 10  1  0  0  0  0
 10 11  2  0  0  0  0
 11 12  1  0  0  0  0
 11 13  1  0  0  0  0
  8 14  1  0  0  0  0
 14 15  2  0  0  0  0
 14 16  1  0  0  0  0
  1 17  1  0  0  0  0
  1 18  1  0  0  0  0
  1 19  1  0  0  0  0
  2 20  1  0  0  0  0
  2 21  1  0  0  0  0
  3 22  1  0  0  0  0
  3 23  1  0  0  0  0
  7 24  1  0  0  0  0
  7 25  1  0  0  0  0
  8 26  1  0  0  0  0
  9 27  1  0  0  0  0
  9 28  1  0  0  0  0
 10 29  1  0  0  0  0
 12 30  1  0  0  0  0
 12 31  1  0  0  0  0
 12 32  1  0  0  0  0
 13 33  1  0  0  0  0
 13 34  1  0  0  0  0
 13 35  1  0  0  0  0
 15 36  1  0  0  0  0
 15 37  1  0  0  0  0
 16 38  1  0  0  0  0
 16 39  1  0  0  0  0
 16 40  1  0  0  0  0
M  END
$$$$
