C6H8O7
APtclcactv06291803023D 0   0.00000     0.00000
 
 21 18  0  0  0  0  0  0  0  0999 V2000
  -19.8908   -9.1376   -1.5792 H   0  3  0  0  0  0  0  0  0  0  0  0
  -12.4220   -4.8430   -0.6997 H   0  3  0  0  0  0  0  0  0  0  0  0
   -1.4072   -0.4980    0.3821 C   0  0  0  0  0  0  0  0  0  0  0  0
   -2.1629    0.8057    0.3569 C   0  0  0  0  0  0  0  0  0  0  0  0
   -1.5616    1.8511    0.2835 O   0  0  0  0  0  0  0  0  0  0  0  0
   -3.5038    0.8054    0.4162 O   0  0  0  0  0  0  0  0  0  0  0  0
    0.0949   -0.2184    0.3032 C   0  0  0  0  0  0  0  0  0  0  0  0
    0.8555   -1.5421    0.2031 C   0  0  0  0  0  0  0  0  0  0  0  0
    2.3351   -1.2667    0.1254 C   0  0  0  0  0  0  0  0  0  0  0  0
    2.7434   -0.1181    0.1480 O   0  0  0  0  0  0  0  0  0  0  0  0
    3.1238   -2.1925    0.0399 O   0  5  0  0  0  0  0  0  0  0  0  0
    0.3863    0.6217   -0.9135 C   0  0  0  0  0  0  0  0  0  0  0  0
    0.9026    1.7189   -0.7873 O   0  0  0  0  0  0  0  0  0  0  0  0
    0.1057    0.2040   -2.0241 O   0  5  0  0  0  0  0  0  0  0  0  0
    0.5112    0.4826    1.4768 O   0  0  0  0  0  0  0  0  0  0  0  0
   -1.6299   -1.0291    1.3075 H   0  0  0  0  0  0  0  0  0  0  0  0
   -1.7083   -1.1089   -0.4689 H   0  0  0  0  0  0  0  0  0  0  0  0
   -3.9443    1.6661    0.3970 H   0  0  0  0  0  0  0  0  0  0  0  0
    0.6447   -2.1497    1.0832 H   0  0  0  0  0  0  0  0  0  0  0  0
    0.5380   -2.0768   -0.6921 H   0  0  0  0  0  0  0  0  0  0  0  0
    0.3536    0.0000    2.2999 H   0  0  0  0  0  0  0  0  0  0  0  0
  3  4  1  0  0  0  0
  4  5  2  0  0  0  0
  4  6  1  0  0  0  0
  3  7  1  0  0  0  0
  7  8  1  0  0  0  0
  8  9  1  0  0  0  0
  9 10  2  0  0  0  0
  9 11  1  0  0  0  0
  7 12  1  0  0  0  0
 12 13  2  0  0  0  0
 12 14  1  0  0  0  0
  7 15  1  0  0  0  0
  3 16  1  0  0  0  0
  3 17  1  0  0  0  0
  6 18  1  0  0  0  0
  8 19  1  0  0  0  0
  8 20  1  0  0  0  0
 15 21  1  0  0  0  0
M  CHG  4   1   1   2   1  11  -1  14  -1
M  END
$$$$
