C5H8O2
APtclcactv06211804443D 0   0.00000     0.00000
 
 15 14  0  0  0  0  0  0  0  0999 V2000
    3.0931    0.4113    0.0000 C   0  0  0  0  0  0  0  0  0  0  0  0
    1.8000   -0.4065   -0.0000 C   0  0  0  0  0  0  0  0  0  0  0  0
    0.6592    0.4918   -0.0000 O   0  0  0  0  0  0  0  0  0  0  0  0
   -0.5647   -0.0732   -0.0000 C   0  0  0  0  0  0  0  0  0  0  0  0
   -0.6752   -1.2835   -0.0000 O   0  0  0  0  0  0  0  0  0  0  0  0
   -1.7652    0.7743   -0.0000 C   0  0  0  0  0  0  0  0  0  0  0  0
   -2.9734    0.2165    0.0000 C   0  0  0  0  0  0  0  0  0  0  0  0
    3.1255    1.0397    0.8900 H   0  0  0  0  0  0  0  0  0  0  0  0
    3.9494   -0.2631    0.0000 H   0  0  0  0  0  0  0  0  0  0  0  0
    3.1255    1.0397   -0.8900 H   0  0  0  0  0  0  0  0  0  0  0  0
    1.7675   -1.0350   -0.8900 H   0  0  0  0  0  0  0  0  0  0  0  0
    1.7675   -1.0350    0.8900 H   0  0  0  0  0  0  0  0  0  0  0  0
   -1.6669    1.8498   -0.0000 H   0  0  0  0  0  0  0  0  0  0  0  0
   -3.8558    0.8393    0.0000 H   0  0  0  0  0  0  0  0  0  0  0  0
   -3.0717   -0.8590    0.0000 H   0  0  0  0  0  0  0  0  0  0  0  0
  1  2  1  0  0  0  0
  2  3  1  0  0  0  0
  3  4  1  0  0  0  0
  4  5  2  0  0  0  0
  4  6  1  0  0  0  0
  6  7  2  0  0  0  0
  1  8  1  0  0  0  0
  1  9  1  0  0  0  0
  1 10  1  0  0  0  0
  2 11  1  0  0  0  0
  2 12  1  0  0  0  0
  6 13  1  0  0  0  0
  7 14  1  0  0  0  0
  7 15  1  0  0  0  0
M  END
$$$$
