C13H24O2
APtclcactv06211804443D 0   0.00000     0.00000
 
 39 38  0  0  0  0  0  0  0  0999 V2000
    6.6723   -0.4811    0.2326 C   0  0  0  0  0  0  0  0  0  0  0  0
    5.4351   -0.8546   -0.5863 C   0  0  0  0  0  0  0  0  0  0  0  0
    4.2127   -0.2327    0.0383 C   0  0  0  0  0  0  0  0  0  0  0  0
    4.3201    0.4402    1.0360 O   0  0  0  0  0  0  0  0  0  0  0  0
    3.0046   -0.4263   -0.5138 O   0  0  0  0  0  0  0  0  0  0  0  0
    1.8719    0.2028    0.1414 C   0  0  0  0  0  0  0  0  0  0  0  0
    0.5904   -0.1282   -0.6260 C   0  0  0  0  0  0  0  0  0  0  0  0
   -0.6032    0.5348    0.0644 C   0  0  0  0  0  0  0  0  0  0  0  0
   -0.4617    2.0558   -0.0211 C   0  0  0  0  0  0  0  0  0  0  0  0
   -1.8974    0.1033   -0.6283 C   0  0  0  0  0  0  0  0  0  0  0  0
   -3.0973    0.6651    0.1368 C   0  0  0  0  0  0  0  0  0  0  0  0
   -4.3720    0.2401   -0.5455 C   0  0  0  0  0  0  0  0  0  0  0  0
   -5.2676   -0.4530    0.1128 C   0  0  0  0  0  0  0  0  0  0  0  0
   -4.9685   -0.9388    1.5077 C   0  0  0  0  0  0  0  0  0  0  0  0
   -6.5971   -0.7646   -0.5247 C   0  0  0  0  0  0  0  0  0  0  0  0
    6.7840    0.6031    0.2483 H   0  0  0  0  0  0  0  0  0  0  0  0
    6.5580   -0.8493    1.2521 H   0  0  0  0  0  0  0  0  0  0  0  0
    7.5564   -0.9309   -0.2192 H   0  0  0  0  0  0  0  0  0  0  0  0
    5.5494   -0.4863   -1.6058 H   0  0  0  0  0  0  0  0  0  0  0  0
    5.3234   -1.9387   -0.6020 H   0  0  0  0  0  0  0  0  0  0  0  0
    1.7902   -0.1693    1.1627 H   0  0  0  0  0  0  0  0  0  0  0  0
    2.0162    1.2831    0.1588 H   0  0  0  0  0  0  0  0  0  0  0  0
    0.6720    0.2440   -1.6473 H   0  0  0  0  0  0  0  0  0  0  0  0
    0.4460   -1.2084   -0.6434 H   0  0  0  0  0  0  0  0  0  0  0  0
   -0.6325    0.2309    1.1108 H   0  0  0  0  0  0  0  0  0  0  0  0
    0.4603    2.3632    0.4724 H   0  0  0  0  0  0  0  0  0  0  0  0
   -0.4324    2.3597   -1.0675 H   0  0  0  0  0  0  0  0  0  0  0  0
   -1.3120    2.5281    0.4708 H   0  0  0  0  0  0  0  0  0  0  0  0
   -1.9071    0.4839   -1.6497 H   0  0  0  0  0  0  0  0  0  0  0  0
   -1.9548   -0.9851   -0.6457 H   0  0  0  0  0  0  0  0  0  0  0  0
   -3.0875    0.2845    1.1582 H   0  0  0  0  0  0  0  0  0  0  0  0
   -3.0399    1.7535    0.1541 H   0  0  0  0  0  0  0  0  0  0  0  0
   -4.5470    0.5070   -1.5773 H   0  0  0  0  0  0  0  0  0  0  0  0
   -5.1993   -0.1505    2.2242 H   0  0  0  0  0  0  0  0  0  0  0  0
   -5.5768   -1.8168    1.7249 H   0  0  0  0  0  0  0  0  0  0  0  0
   -3.9130   -1.2004    1.5828 H   0  0  0  0  0  0  0  0  0  0  0  0
   -6.5288   -1.7091   -1.0645 H   0  0  0  0  0  0  0  0  0  0  0  0
   -7.3614   -0.8426    0.2485 H   0  0  0  0  0  0  0  0  0  0  0  0
   -6.8628    0.0324   -1.2191 H   0  0  0  0  0  0  0  0  0  0  0  0
  1  2  1  0  0  0  0
  2  3  1  0  0  0  0
  3  4  2  0  0  0  0
  3  5  1  0  0  0  0
  5  6  1  0  0  0  0
  6  7  1  0  0  0  0
  7  8  1  0  0  0  0
  8  9  1  0  0  0  0
  8 10  1  0  0  0  0
 10 11  1  0  0  0  0
 11 12  1  0  0  0  0
 12 13  2  0  0  0  0
 13 14  1  0  0  0  0
 13 15  1  0  0  0  0
  1 16  1  0  0  0  0
  1 17  1  0  0  0  0
  1 18  1  0  0  0  0
  2 19  1  0  0  0  0
  2 20  1  0  0  0  0
  6 21  1  0  0  0  0
  6 22  1  0  0  0  0
  7 23  1  0  0  0  0
  7 24  1  0  0  0  0
  8 25  1  0  0  0  0
  9 26  1  0  0  0  0
  9 27  1  0  0  0  0
  9 28  1  0  0  0  0
 10 29  1  0  0  0  0
 10 30  1  0  0  0  0
 11 31  1  0  0  0  0
 11 32  1  0  0  0  0
 12 33  1  0  0  0  0
 14 34  1  0  0  0  0
 14 35  1  0  0  0  0
 14 36  1  0  0  0  0
 15 37  1  0  0  0  0
 15 38  1  0  0  0  0
 15 39  1  0  0  0  0
M  END
$$$$
