C14H26O2
APtclcactv06211804443D 0   0.00000     0.00000
 
 42 41  0  0  0  0  0  0  0  0999 V2000
    7.4474    0.8579    0.2045 C   0  0  0  0  0  0  0  0  0  0  0  0
    6.1824    0.1994   -0.3496 C   0  0  0  0  0  0  0  0  0  0  0  0
    4.9650    0.6933    0.4346 C   0  0  0  0  0  0  0  0  0  0  0  0
    3.7190    0.0447   -0.1112 C   0  0  0  0  0  0  0  0  0  0  0  0
    3.7967   -0.7328   -1.0328 O   0  0  0  0  0  0  0  0  0  0  0  0
    2.5228    0.3308    0.4266 O   0  0  0  0  0  0  0  0  0  0  0  0
    1.3659   -0.3309   -0.1496 C   0  0  0  0  0  0  0  0  0  0  0  0
    0.1024    0.1166    0.5882 C   0  0  0  0  0  0  0  0  0  0  0  0
   -1.1167   -0.5805   -0.0189 C   0  0  0  0  0  0  0  0  0  0  0  0
   -1.0171   -2.0875    0.2264 C   0  0  0  0  0  0  0  0  0  0  0  0
   -2.3907   -0.0407    0.6341 C   0  0  0  0  0  0  0  0  0  0  0  0
   -3.6140   -0.6451   -0.0579 C   0  0  0  0  0  0  0  0  0  0  0  0
   -4.8688   -0.1133    0.5853 C   0  0  0  0  0  0  0  0  0  0  0  0
   -5.7517    0.5320   -0.1360 C   0  0  0  0  0  0  0  0  0  0  0  0
   -5.4541    0.8584   -1.5768 C   0  0  0  0  0  0  0  0  0  0  0  0
   -7.0650    0.9478    0.4751 C   0  0  0  0  0  0  0  0  0  0  0  0
    7.3665    1.9404    0.1060 H   0  0  0  0  0  0  0  0  0  0  0  0
    7.5622    0.5963    1.2564 H   0  0  0  0  0  0  0  0  0  0  0  0
    8.3147    0.5060   -0.3542 H   0  0  0  0  0  0  0  0  0  0  0  0
    6.0675    0.4609   -1.4015 H   0  0  0  0  0  0  0  0  0  0  0  0
    6.2633   -0.8831   -0.2511 H   0  0  0  0  0  0  0  0  0  0  0  0
    5.0798    0.4317    1.4865 H   0  0  0  0  0  0  0  0  0  0  0  0
    4.8841    1.7758    0.3361 H   0  0  0  0  0  0  0  0  0  0  0  0
    1.2838   -0.0666   -1.2039 H   0  0  0  0  0  0  0  0  0  0  0  0
    1.4795   -1.4107   -0.0535 H   0  0  0  0  0  0  0  0  0  0  0  0
    0.1845   -0.1476    1.6425 H   0  0  0  0  0  0  0  0  0  0  0  0
   -0.0112    1.1964    0.4921 H   0  0  0  0  0  0  0  0  0  0  0  0
   -1.1486   -0.3883   -1.0913 H   0  0  0  0  0  0  0  0  0  0  0  0
   -1.8856   -2.5842   -0.2061 H   0  0  0  0  0  0  0  0  0  0  0  0
   -0.1095   -2.4721   -0.2388 H   0  0  0  0  0  0  0  0  0  0  0  0
   -0.9852   -2.2797    1.2988 H   0  0  0  0  0  0  0  0  0  0  0  0
   -2.4002   -0.3107    1.6901 H   0  0  0  0  0  0  0  0  0  0  0  0
   -2.4172    1.0446    0.5364 H   0  0  0  0  0  0  0  0  0  0  0  0
   -3.6045   -0.3750   -1.1139 H   0  0  0  0  0  0  0  0  0  0  0  0
   -3.5875   -1.7304    0.0398 H   0  0  0  0  0  0  0  0  0  0  0  0
   -5.0403   -0.2643    1.6408 H   0  0  0  0  0  0  0  0  0  0  0  0
   -5.7146    0.0058   -2.2038 H   0  0  0  0  0  0  0  0  0  0  0  0
   -6.0398    1.7258   -1.8813 H   0  0  0  0  0  0  0  0  0  0  0  0
   -4.3925    1.0798   -1.6874 H   0  0  0  0  0  0  0  0  0  0  0  0
   -7.0989    0.6273    1.5163 H   0  0  0  0  0  0  0  0  0  0  0  0
   -7.1616    2.0324    0.4254 H   0  0  0  0  0  0  0  0  0  0  0  0
   -7.8844    0.4846   -0.0746 H   0  0  0  0  0  0  0  0  0  0  0  0
  1  2  1  0  0  0  0
  2  3  1  0  0  0  0
  3  4  1  0  0  0  0
  4  5  2  0  0  0  0
  4  6  1  0  0  0  0
  6  7  1  0  0  0  0
  7  8  1  0  0  0  0
  8  9  1  0  0  0  0
  9 10  1  0  0  0  0
  9 11  1  0  0  0  0
 11 12  1  0  0  0  0
 12 13  1  0  0  0  0
 13 14  2  0  0  0  0
 14 15  1  0  0  0  0
 14 16  1  0  0  0  0
  1 17  1  0  0  0  0
  1 18  1  0  0  0  0
  1 19  1  0  0  0  0
  2 20  1  0  0  0  0
  2 21  1  0  0  0  0
  3 22  1  0  0  0  0
  3 23  1  0  0  0  0
  7 24  1  0  0  0  0
  7 25  1  0  0  0  0
  8 26  1  0  0  0  0
  8 27  1  0  0  0  0
  9 28  1  0  0  0  0
 10 29  1  0  0  0  0
 10 30  1  0  0  0  0
 10 31  1  0  0  0  0
 11 32  1  0  0  0  0
 11 33  1  0  0  0  0
 12 34  1  0  0  0  0
 12 35  1  0  0  0  0
 13 36  1  0  0  0  0
 15 37  1  0  0  0  0
 15 38  1  0  0  0  0
 15 39  1  0  0  0  0
 16 40  1  0  0  0  0
 16 41  1  0  0  0  0
 16 42  1  0  0  0  0
M  END
$$$$
