C4H8O2
APtclcactv06211804443D 0   0.00000     0.00000
 
 14 13  0  0  0  0  0  0  0  0999 V2000
    2.6730    0.3517    0.0000 C   0  0  0  0  0  0  0  0  0  0  0  0
    1.3588   -0.4318   -0.0000 C   0  0  0  0  0  0  0  0  0  0  0  0
    0.2420    0.4962   -0.0000 O   0  0  0  0  0  0  0  0  0  0  0  0
   -0.9910   -0.0342    0.0000 C   0  0  0  0  0  0  0  0  0  0  0  0
   -1.1325   -1.2342    0.0000 O   0  0  0  0  0  0  0  0  0  0  0  0
   -2.1989    0.8669    0.0000 C   0  0  0  0  0  0  0  0  0  0  0  0
    2.7219    0.9791    0.8900 H   0  0  0  0  0  0  0  0  0  0  0  0
    3.5113   -0.3449    0.0000 H   0  0  0  0  0  0  0  0  0  0  0  0
    2.7219    0.9791   -0.8900 H   0  0  0  0  0  0  0  0  0  0  0  0
    1.3099   -1.0592   -0.8900 H   0  0  0  0  0  0  0  0  0  0  0  0
    1.3099   -1.0592    0.8900 H   0  0  0  0  0  0  0  0  0  0  0  0
   -2.4901    1.0842   -1.0277 H   0  0  0  0  0  0  0  0  0  0  0  0
   -3.0223    0.3708    0.5138 H   0  0  0  0  0  0  0  0  0  0  0  0
   -1.9580    1.7975    0.5138 H   0  0  0  0  0  0  0  0  0  0  0  0
  1  2  1  0  0  0  0
  2  3  1  0  0  0  0
  3  4  1  0  0  0  0
  4  5  2  0  0  0  0
  4  6  1  0  0  0  0
  1  7  1  0  0  0  0
  1  8  1  0  0  0  0
  1  9  1  0  0  0  0
  2 10  1  0  0  0  0
  2 11  1  0  0  0  0
  6 12  1  0  0  0  0
  6 13  1  0  0  0  0
  6 14  1  0  0  0  0
M  END
$$$$
