C6H10O
APtclcactv06211804443D 0   0.00000     0.00000
 
 17 16  0  0  0  0  0  0  0  0999 V2000
   -1.2182    1.3742    0.1613 C   0  0  0  0  0  0  0  0  0  0  0  0
   -1.2153   -0.1270    0.0298 C   0  0  0  0  0  0  0  0  0  0  0  0
   -0.0591   -0.7936    0.0187 C   0  0  0  0  0  0  0  0  0  0  0  0
    1.2063   -0.0621   -0.0328 C   0  0  0  0  0  0  0  0  0  0  0  0
    1.2053    1.1424   -0.1788 O   0  0  0  0  0  0  0  0  0  0  0  0
    2.5115   -0.8044    0.0956 C   0  0  0  0  0  0  0  0  0  0  0  0
   -2.5178   -0.8755   -0.0892 C   0  0  0  0  0  0  0  0  0  0  0  0
   -1.0640    1.8252   -0.8190 H   0  0  0  0  0  0  0  0  0  0  0  0
   -2.1762    1.7017    0.5653 H   0  0  0  0  0  0  0  0  0  0  0  0
   -0.4165    1.6817    0.8328 H   0  0  0  0  0  0  0  0  0  0  0  0
   -0.0580   -1.8732    0.0477 H   0  0  0  0  0  0  0  0  0  0  0  0
    2.3134   -1.8691    0.2188 H   0  0  0  0  0  0  0  0  0  0  0  0
    3.1086   -0.6475   -0.8028 H   0  0  0  0  0  0  0  0  0  0  0  0
    3.0567   -0.4335    0.9635 H   0  0  0  0  0  0  0  0  0  0  0  0
   -2.7900   -0.9663   -1.1408 H   0  0  0  0  0  0  0  0  0  0  0  0
   -2.4067   -1.8694    0.3444 H   0  0  0  0  0  0  0  0  0  0  0  0
   -3.2989   -0.3323    0.4427 H   0  0  0  0  0  0  0  0  0  0  0  0
  1  2  1  0  0  0  0
  2  3  2  0  0  0  0
  3  4  1  0  0  0  0
  4  5  2  0  0  0  0
  4  6  1  0  0  0  0
  2  7  1  0  0  0  0
  1  8  1  0  0  0  0
  1  9  1  0  0  0  0
  1 10  1  0  0  0  0
  3 11  1  0  0  0  0
  6 12  1  0  0  0  0
  6 13  1  0  0  0  0
  6 14  1  0  0  0  0
  7 15  1  0  0  0  0
  7 16  1  0  0  0  0
  7 17  1  0  0  0  0
M  END
$$$$
