C7H19N2O3PS
APtclcactv06211806303D 0   0.00000     0.00000
 
 33 32  0  0  0  0  0  0  0  0999 V2000
    5.5864    0.0047   -0.3067 C   0  0  0  0  0  0  0  0  0  0  0  0
    4.2398    0.2216    0.3866 C   0  0  0  0  0  0  0  0  0  0  0  0
    3.1512   -0.5514   -0.3606 C   0  0  0  0  0  0  0  0  0  0  0  0
    1.8583   -0.3432    0.3050 N   0  0  0  0  0  0  0  0  0  0  0  0
    0.7867   -1.0723   -0.3864 C   0  0  0  0  0  0  0  0  0  0  0  0
   -0.5413   -0.8315    0.3342 C   0  0  0  0  0  0  0  0  0  0  0  0
   -1.6573   -1.5909   -0.3860 C   0  0  0  0  0  0  0  0  0  0  0  0
   -3.2318   -1.3054    0.4685 S   0  0  0  0  0  0  0  0  0  0  0  0
   -3.7342    0.6726   -0.1055 P   0  0  0  0  0  0  0  0  0  0  0  0
   -3.8656    0.7406   -1.5781 O   0  0  0  0  0  0  0  0  0  0  0  0
   -5.1305    1.0915    0.5779 O   0  0  0  0  0  0  0  0  0  0  0  0
   -2.5764    1.6819    0.3771 O   0  0  0  0  0  0  0  0  0  0  0  0
    6.6750    0.7778    0.4404 C   0  0  0  0  0  0  0  0  0  0  0  0
    7.9679    0.5695   -0.2252 N   0  0  0  0  0  0  0  0  0  0  0  0
    5.8291   -1.0579   -0.3048 H   0  0  0  0  0  0  0  0  0  0  0  0
    5.5275    0.3621   -1.3347 H   0  0  0  0  0  0  0  0  0  0  0  0
    4.2987   -0.1358    1.4146 H   0  0  0  0  0  0  0  0  0  0  0  0
    3.9972    1.2843    0.3846 H   0  0  0  0  0  0  0  0  0  0  0  0
    3.0923   -0.1941   -1.3886 H   0  0  0  0  0  0  0  0  0  0  0  0
    3.3939   -1.6141   -0.3586 H   0  0  0  0  0  0  0  0  0  0  0  0
    1.9058   -0.6070    1.2778 H   0  0  0  0  0  0  0  0  0  0  0  0
    0.7115   -0.7185   -1.4147 H   0  0  0  0  0  0  0  0  0  0  0  0
    1.0130   -2.1385   -0.3847 H   0  0  0  0  0  0  0  0  0  0  0  0
   -0.4660   -1.1853    1.3625 H   0  0  0  0  0  0  0  0  0  0  0  0
   -0.7675    0.2347    0.3325 H   0  0  0  0  0  0  0  0  0  0  0  0
   -1.7326   -1.2371   -1.4142 H   0  0  0  0  0  0  0  0  0  0  0  0
   -1.4311   -2.6571   -0.3842 H   0  0  0  0  0  0  0  0  0  0  0  0
   -5.4227    1.9868    0.3585 H   0  0  0  0  0  0  0  0  0  0  0  0
   -2.4349    1.6896    1.3337 H   0  0  0  0  0  0  0  0  0  0  0  0
    6.4324    1.8404    0.4385 H   0  0  0  0  0  0  0  0  0  0  0  0
    6.7339    0.4204    1.4685 H   0  0  0  0  0  0  0  0  0  0  0  0
    7.9205    0.8333   -1.1979 H   0  0  0  0  0  0  0  0  0  0  0  0
    8.7039    1.0703    0.2498 H   0  0  0  0  0  0  0  0  0  0  0  0
  1  2  1  0  0  0  0
  2  3  1  0  0  0  0
  3  4  1  0  0  0  0
  4  5  1  0  0  0  0
  5  6  1  0  0  0  0
  6  7  1  0  0  0  0
  7  8  1  0  0  0  0
  8  9  1  0  0  0  0
  9 10  2  0  0  0  0
  9 11  1  0  0  0  0
  9 12  1  0  0  0  0
  1 13  1  0  0  0  0
 13 14  1  0  0  0  0
  1 15  1  0  0  0  0
  1 16  1  0  0  0  0
  2 17  1  0  0  0  0
  2 18  1  0  0  0  0
  3 19  1  0  0  0  0
  3 20  1  0  0  0  0
  4 21  1  0  0  0  0
  5 22  1  0  0  0  0
  5 23  1  0  0  0  0
  6 24  1  0  0  0  0
  6 25  1  0  0  0  0
  7 26  1  0  0  0  0
  7 27  1  0  0  0  0
 11 28  1  0  0  0  0
 12 29  1  0  0  0  0
 13 30  1  0  0  0  0
 13 31  1  0  0  0  0
 14 32  1  0  0  0  0
 14 33  1  0  0  0  0
M  END
$$$$
