C20H25NO4
APtclcactv06211806303D 0   0.00000     0.00000
 
 50 52  0  0  0  0  0  0  0  0999 V2000
   -1.3427    3.6627   -0.2668 C   0  0  0  0  0  0  0  0  0  0  0  0
   -0.3928    2.6288    0.1654 N   0  0  0  0  0  0  0  0  0  0  0  0
    0.5168    3.1474    1.1994 C   0  0  0  0  0  0  0  0  0  0  0  0
    1.2194    1.9640    1.8653 C   0  0  0  0  0  0  0  0  0  0  0  0
    1.8093    1.0579    0.8149 C   0  0  0  0  0  0  0  0  0  0  0  0
    2.7743    0.1402    1.2021 C   0  0  0  0  0  0  0  0  0  0  0  0
    3.3412   -0.7136    0.2724 C   0  0  0  0  0  0  0  0  0  0  0  0
    2.9379   -0.6493   -1.0579 C   0  0  0  0  0  0  0  0  0  0  0  0
    1.9752    0.2685   -1.4390 C   0  0  0  0  0  0  0  0  0  0  0  0
    1.4111    1.1239   -0.5037 C   0  0  0  0  0  0  0  0  0  0  0  0
    0.3745    2.1116   -0.9720 C   0  0  0  0  0  0  0  0  0  0  0  0
   -0.5767    1.4197   -1.9505 C   0  0  0  0  0  0  0  0  0  0  0  0
   -1.2781    0.2840   -1.2510 C   0  0  0  0  0  0  0  0  0  0  0  0
   -2.4099    0.5323   -0.4970 C   0  0  0  0  0  0  0  0  0  0  0  0
   -3.0560   -0.5108    0.1468 C   0  0  0  0  0  0  0  0  0  0  0  0
   -2.5630   -1.8071    0.0323 C   0  0  0  0  0  0  0  0  0  0  0  0
   -1.4281   -2.0490   -0.7251 C   0  0  0  0  0  0  0  0  0  0  0  0
   -0.7916   -1.0047   -1.3694 C   0  0  0  0  0  0  0  0  0  0  0  0
   -3.1934   -2.8341    0.6627 O   0  0  0  0  0  0  0  0  0  0  0  0
   -2.6311   -4.1378    0.5005 C   0  0  0  0  0  0  0  0  0  0  0  0
   -4.1692   -0.2682    0.8894 O   0  0  0  0  0  0  0  0  0  0  0  0
   -4.6177    1.0866    0.9625 C   0  0  0  0  0  0  0  0  0  0  0  0
    3.4879   -1.4846   -1.9794 O   0  0  0  0  0  0  0  0  0  0  0  0
    4.2881   -1.6108    0.6567 O   0  0  0  0  0  0  0  0  0  0  0  0
    4.6518   -1.6184    2.0387 C   0  0  0  0  0  0  0  0  0  0  0  0
   -0.8042    4.4585   -0.7815 H   0  0  0  0  0  0  0  0  0  0  0  0
   -2.0752    3.2229   -0.9436 H   0  0  0  0  0  0  0  0  0  0  0  0
   -1.8534    4.0737    0.6040 H   0  0  0  0  0  0  0  0  0  0  0  0
    1.2577    3.8021    0.7405 H   0  0  0  0  0  0  0  0  0  0  0  0
   -0.0538    3.7012    1.9449 H   0  0  0  0  0  0  0  0  0  0  0  0
    2.0147    2.3331    2.5129 H   0  0  0  0  0  0  0  0  0  0  0  0
    0.4990    1.4048    2.4624 H   0  0  0  0  0  0  0  0  0  0  0  0
    3.0854    0.0919    2.2352 H   0  0  0  0  0  0  0  0  0  0  0  0
    1.6610    0.3193   -2.4710 H   0  0  0  0  0  0  0  0  0  0  0  0
    0.8699    2.9403   -1.4780 H   0  0  0  0  0  0  0  0  0  0  0  0
   -1.3149    2.1372   -2.3085 H   0  0  0  0  0  0  0  0  0  0  0  0
   -0.0087    1.0305   -2.7955 H   0  0  0  0  0  0  0  0  0  0  0  0
   -2.7902    1.5393   -0.4094 H   0  0  0  0  0  0  0  0  0  0  0  0
   -1.0435   -3.0541   -0.8155 H   0  0  0  0  0  0  0  0  0  0  0  0
    0.0929   -1.1946   -1.9594 H   0  0  0  0  0  0  0  0  0  0  0  0
   -3.2288   -4.8625    1.0533 H   0  0  0  0  0  0  0  0  0  0  0  0
   -2.6258   -4.4022   -0.5569 H   0  0  0  0  0  0  0  0  0  0  0  0
   -1.6099   -4.1429    0.8815 H   0  0  0  0  0  0  0  0  0  0  0  0
   -4.8498    1.4471   -0.0396 H   0  0  0  0  0  0  0  0  0  0  0  0
   -5.5115    1.1404    1.5840 H   0  0  0  0  0  0  0  0  0  0  0  0
   -3.8339    1.7057    1.3989 H   0  0  0  0  0  0  0  0  0  0  0  0
    3.0151   -2.3217   -2.0832 H   0  0  0  0  0  0  0  0  0  0  0  0
    3.7735   -1.8420    2.6443 H   0  0  0  0  0  0  0  0  0  0  0  0
    5.4141   -2.3785    2.2096 H   0  0  0  0  0  0  0  0  0  0  0  0
    5.0451   -0.6404    2.3162 H   0  0  0  0  0  0  0  0  0  0  0  0
  1  2  1  0  0  0  0
  2  3  1  0  0  0  0
  3  4  1  0  0  0  0
  4  5  1  0  0  0  0
  5  6  2  0  0  0  0
  6  7  1  0  0  0  0
  7  8  2  0  0  0  0
  8  9  1  0  0  0  0
  9 10  2  0  0  0  0
  5 10  1  0  0  0  0
 10 11  1  0  0  0  0
  2 11  1  0  0  0  0
 11 12  1  0  0  0  0
 12 13  1  0  0  0  0
 13 14  2  0  0  0  0
 14 15  1  0  0  0  0
 15 16  2  0  0  0  0
 16 17  1  0  0  0  0
 17 18  2  0  0  0  0
 13 18  1  0  0  0  0
 16 19  1  0  0  0  0
 19 20  1  0  0  0  0
 15 21  1  0  0  0  0
 21 22  1  0  0  0  0
  8 23  1  0  0  0  0
  7 24  1  0  0  0  0
 24 25  1  0  0  0  0
  1 26  1  0  0  0  0
  1 27  1  0  0  0  0
  1 28  1  0  0  0  0
  3 29  1  0  0  0  0
  3 30  1  0  0  0  0
  4 31  1  0  0  0  0
  4 32  1  0  0  0  0
  6 33  1  0  0  0  0
  9 34  1  0  0  0  0
 11 35  1  0  0  0  0
 12 36  1  0  0  0  0
 12 37  1  0  0  0  0
 14 38  1  0  0  0  0
 17 39  1  0  0  0  0
 18 40  1  0  0  0  0
 20 41  1  0  0  0  0
 20 42  1  0  0  0  0
 20 43  1  0  0  0  0
 22 44  1  0  0  0  0
 22 45  1  0  0  0  0
 22 46  1  0  0  0  0
 23 47  1  0  0  0  0
 25 48  1  0  0  0  0
 25 49  1  0  0  0  0
 25 50  1  0  0  0  0
M  END
$$$$
