C6H4Na2O8S2
APtclcactv06211804443D 0   0.00000     0.00000
 
 22 20  0  0  0  0  0  0  0  0999 V2000
   -3.1594   -0.3178    0.3003 C   0  0  0  0  0  0  0  0  0  0  0  0
   -3.4017    1.0176    0.0396 C   0  0  0  0  0  0  0  0  0  0  0  0
   -2.4926    1.7582   -0.6935 C   0  0  0  0  0  0  0  0  0  0  0  0
   -1.3361    1.1617   -1.1684 C   0  0  0  0  0  0  0  0  0  0  0  0
   -1.0920   -0.1833   -0.9058 C   0  0  0  0  0  0  0  0  0  0  0  0
   -2.0068   -0.9194   -0.1708 C   0  0  0  0  0  0  0  0  0  0  0  0
   -1.7016   -2.6221    0.1643 S   0  0  0  0  0  0  0  0  0  0  0  0
   -0.9668   -2.6775    1.4186 O   0  0  0  0  0  0  0  0  0  0  0  0
   -3.0004   -3.2695    0.2634 O   0  0  0  0  0  0  0  0  0  0  0  0
   -0.9194   -3.1352   -0.9496 O   0  5  0  0  0  0  0  0  0  0  0  0
    0.0417   -0.7735   -1.3701 O   0  0  0  0  0  0  0  0  0  0  0  0
   -0.4412    1.8884   -1.8898 O   0  0  0  0  0  0  0  0  0  0  0  0
   -4.8725    1.7782    0.6421 S   0  0  0  0  0  0  0  0  0  0  0  0
   -5.2180    2.8297   -0.3018 O   0  0  0  0  0  0  0  0  0  0  0  0
   -5.8892    0.7393    0.6982 O   0  0  0  0  0  0  0  0  0  0  0  0
   -4.5607    2.3086    1.9602 O   0  5  0  0  0  0  0  0  0  0  0  0
   11.2258    0.3586   -0.2900 Na  0  3  0  0  0  0  0  0  0  0  0  0
   19.8136    0.8040    0.7354 Na  0  3  0  0  0  0  0  0  0  0  0  0
   -3.8697   -0.8917    0.8770 H   0  0  0  0  0  0  0  0  0  0  0  0
   -2.6845    2.8015   -0.8962 H   0  0  0  0  0  0  0  0  0  0  0  0
    0.7900   -0.7226   -0.7598 H   0  0  0  0  0  0  0  0  0  0  0  0
    0.2378    2.3205   -1.3538 H   0  0  0  0  0  0  0  0  0  0  0  0
  1  2  2  0  0  0  0
  2  3  1  0  0  0  0
  3  4  2  0  0  0  0
  4  5  1  0  0  0  0
  5  6  2  0  0  0  0
  1  6  1  0  0  0  0
  6  7  1  0  0  0  0
  7  8  2  0  0  0  0
  7  9  2  0  0  0  0
  7 10  1  0  0  0  0
  5 11  1  0  0  0  0
  4 12  1  0  0  0  0
  2 13  1  0  0  0  0
 13 14  2  0  0  0  0
 13 15  2  0  0  0  0
 13 16  1  0  0  0  0
  1 19  1  0  0  0  0
  3 20  1  0  0  0  0
 11 21  1  0  0  0  0
 12 22  1  0  0  0  0
M  CHG  4  10  -1  16  -1  17   1  18   1
M  END
$$$$
