C28H33O15
APtclcactv06291803023D 0   0.00000     0.00000
 
 76 80  0  0  0  0  0  0  0  0999 V2000
    6.1718   -2.3977   -1.6743 C   0  0  0  0  0  0  0  0  0  0  0  0
    5.9962   -1.4925   -0.4534 C   0  0  0  0  0  0  0  0  0  0  0  0
    6.3926   -0.0597   -0.8189 C   0  0  0  0  0  0  0  0  0  0  0  0
    5.4584    0.4557   -1.9179 C   0  0  0  0  0  0  0  0  0  0  0  0
    4.0102    0.3603   -1.4280 C   0  0  0  0  0  0  0  0  0  0  0  0
    3.7058   -1.0887   -1.0389 C   0  0  0  0  0  0  0  0  0  0  0  0
    4.6297   -1.5154   -0.0357 O   0  0  0  0  0  0  0  0  0  0  0  0
    2.3740   -1.1752   -0.5280 O   0  0  0  0  0  0  0  0  0  0  0  0
    1.9478   -2.5082   -0.2391 C   0  0  0  0  0  0  0  0  0  0  0  0
    0.5157   -2.4804    0.2987 C   0  0  0  0  0  0  0  0  0  0  0  0
    0.0145   -3.9142    0.4905 C   0  0  0  0  0  0  0  0  0  0  0  0
   -1.3966   -3.8782    1.0854 C   0  0  0  0  0  0  0  0  0  0  0  0
   -1.3647   -3.0927    2.4001 C   0  0  0  0  0  0  0  0  0  0  0  0
   -0.8103   -1.6907    2.1344 C   0  0  0  0  0  0  0  0  0  0  0  0
    0.4910   -1.7967    1.5533 O   0  0  0  0  0  0  0  0  0  0  0  0
   -1.6784   -0.9972    1.2359 O   0  0  0  0  0  0  0  0  0  0  0  0
   -1.3856    0.3045    0.9762 C   0  0  0  0  0  0  0  0  0  0  0  0
   -2.1831    1.0680    0.1045 C   0  0  0  0  0  0  0  0  0  0  0  0
   -1.9505    2.2276   -0.1479 O   0  3  0  0  0  0  0  0  0  0  0  0
   -1.0208    2.8691    0.3070 C   0  0  0  0  0  0  0  0  0  0  0  0
   -0.8374    4.2140   -0.0491 C   0  0  0  0  0  0  0  0  0  0  0  0
    0.2198    4.9249    0.4755 C   0  0  0  0  0  0  0  0  0  0  0  0
    1.1189    4.3279    1.3615 C   0  0  0  0  0  0  0  0  0  0  0  0
    0.9681    3.0195    1.7278 C   0  0  0  0  0  0  0  0  0  0  0  0
   -0.1032    2.2708    1.2072 C   0  0  0  0  0  0  0  0  0  0  0  0
   -0.3011    0.9202    1.5629 C   0  0  0  0  0  0  0  0  0  0  0  0
    1.8465    2.4462    2.5897 O   0  0  0  0  0  0  0  0  0  0  0  0
    0.3903    6.2259    0.1253 O   0  0  0  0  0  0  0  0  0  0  0  0
   -3.3546    0.4255   -0.5302 C   0  0  0  0  0  0  0  0  0  0  0  0
   -4.5485    1.1344   -0.6739 C   0  0  0  0  0  0  0  0  0  0  0  0
   -5.6406    0.5300   -1.2676 C   0  0  0  0  0  0  0  0  0  0  0  0
   -5.5482   -0.7843   -1.7211 C   0  0  0  0  0  0  0  0  0  0  0  0
   -4.3611   -1.4885   -1.5780 C   0  0  0  0  0  0  0  0  0  0  0  0
   -3.2667   -0.8889   -0.9918 C   0  0  0  0  0  0  0  0  0  0  0  0
   -6.6226   -1.3776   -2.3042 O   0  0  0  0  0  0  0  0  0  0  0  0
   -6.8054    1.2178   -1.4086 O   0  0  0  0  0  0  0  0  0  0  0  0
   -6.8290    2.5607   -0.9207 C   0  0  0  0  0  0  0  0  0  0  0  0
   -2.6889   -2.9906    2.9275 O   0  0  0  0  0  0  0  0  0  0  0  0
   -2.2860   -3.2386    0.1678 O   0  0  0  0  0  0  0  0  0  0  0  0
   -0.0166   -4.5822   -0.7723 O   0  0  0  0  0  0  0  0  0  0  0  0
    3.8341    1.2072   -0.2905 O   0  0  0  0  0  0  0  0  0  0  0  0
    5.7741    1.8176   -2.2139 O   0  0  0  0  0  0  0  0  0  0  0  0
    6.2797    0.7761    0.3347 O   0  0  0  0  0  0  0  0  0  0  0  0
    7.2139   -2.3793   -1.9933 H   0  0  0  0  0  0  0  0  0  0  0  0
    5.8895   -3.4178   -1.4139 H   0  0  0  0  0  0  0  0  0  0  0  0
    5.5371   -2.0409   -2.4855 H   0  0  0  0  0  0  0  0  0  0  0  0
    6.6305   -1.8494    0.3580 H   0  0  0  0  0  0  0  0  0  0  0  0
    7.4211   -0.0471   -1.1796 H   0  0  0  0  0  0  0  0  0  0  0  0
    5.5806   -0.1515   -2.8148 H   0  0  0  0  0  0  0  0  0  0  0  0
    3.3349    0.6732   -2.2243 H   0  0  0  0  0  0  0  0  0  0  0  0
    3.8009   -1.7283   -1.9164 H   0  0  0  0  0  0  0  0  0  0  0  0
    1.9823   -3.1061   -1.1498 H   0  0  0  0  0  0  0  0  0  0  0  0
    2.6083   -2.9468    0.5088 H   0  0  0  0  0  0  0  0  0  0  0  0
   -0.1291   -1.9619   -0.4109 H   0  0  0  0  0  0  0  0  0  0  0  0
    0.6821   -4.4458    1.1686 H   0  0  0  0  0  0  0  0  0  0  0  0
   -1.7377   -4.8956    1.2767 H   0  0  0  0  0  0  0  0  0  0  0  0
   -0.7249   -3.6077    3.1167 H   0  0  0  0  0  0  0  0  0  0  0  0
   -0.7452   -1.1416    3.0738 H   0  0  0  0  0  0  0  0  0  0  0  0
   -1.5235    4.6908   -0.7334 H   0  0  0  0  0  0  0  0  0  0  0  0
    1.9404    4.9044    1.7603 H   0  0  0  0  0  0  0  0  0  0  0  0
    0.3555    0.4022    2.2462 H   0  0  0  0  0  0  0  0  0  0  0  0
    1.5956    2.5290    3.5199 H   0  0  0  0  0  0  0  0  0  0  0  0
   -0.0656    6.8520    0.7042 H   0  0  0  0  0  0  0  0  0  0  0  0
   -4.6188    2.1529   -0.3216 H   0  0  0  0  0  0  0  0  0  0  0  0
   -4.2930   -2.5071   -1.9307 H   0  0  0  0  0  0  0  0  0  0  0  0
   -2.3439   -1.4392   -0.8817 H   0  0  0  0  0  0  0  0  0  0  0  0
   -6.6659   -1.2579   -3.2628 H   0  0  0  0  0  0  0  0  0  0  0  0
   -6.6153    2.5627    0.1482 H   0  0  0  0  0  0  0  0  0  0  0  0
   -6.0755    3.1503   -1.4429 H   0  0  0  0  0  0  0  0  0  0  0  0
   -7.8141    2.9934   -1.0950 H   0  0  0  0  0  0  0  0  0  0  0  0
   -2.7436   -2.5042    3.7615 H   0  0  0  0  0  0  0  0  0  0  0  0
   -3.1992   -3.1809    0.4807 H   0  0  0  0  0  0  0  0  0  0  0  0
   -0.3252   -5.4975   -0.7256 H   0  0  0  0  0  0  0  0  0  0  0  0
    2.9381    1.1963    0.0730 H   0  0  0  0  0  0  0  0  0  0  0  0
    5.2200    2.2090   -2.9030 H   0  0  0  0  0  0  0  0  0  0  0  0
    6.8414    0.5048    1.0735 H   0  0  0  0  0  0  0  0  0  0  0  0
  1  2  1  0  0  0  0
  2  3  1  0  0  0  0
  3  4  1  0  0  0  0
  4  5  1  0  0  0  0
  5  6  1  0  0  0  0
  6  7  1  0  0  0  0
  2  7  1  0  0  0  0
  6  8  1  0  0  0  0
  8  9  1  0  0  0  0
  9 10  1  0  0  0  0
 10 11  1  0  0  0  0
 11 12  1  0  0  0  0
 12 13  1  0  0  0  0
 13 14  1  0  0  0  0
 14 15  1  0  0  0  0
 10 15  1  0  0  0  0
 14 16  1  0  0  0  0
 16 17  1  0  0  0  0
 17 18  2  0  0  0  0
 18 19  1  0  0  0  0
 19 20  2  0  0  0  0
 20 21  1  0  0  0  0
 21 22  2  0  0  0  0
 22 23  1  0  0  0  0
 23 24  2  0  0  0  0
 24 25  1  0  0  0  0
 20 25  1  0  0  0  0
 25 26  2  0  0  0  0
 17 26  1  0  0  0  0
 24 27  1  0  0  0  0
 22 28  1  0  0  0  0
 18 29  1  0  0  0  0
 29 30  2  0  0  0  0
 30 31  1  0  0  0  0
 31 32  2  0  0  0  0
 32 33  1  0  0  0  0
 33 34  2  0  0  0  0
 29 34  1  0  0  0  0
 32 35  1  0  0  0  0
 31 36  1  0  0  0  0
 36 37  1  0  0  0  0
 13 38  1  0  0  0  0
 12 39  1  0  0  0  0
 11 40  1  0  0  0  0
  5 41  1  0  0  0  0
  4 42  1  0  0  0  0
  3 43  1  0  0  0  0
  1 44  1  0  0  0  0
  1 45  1  0  0  0  0
  1 46  1  0  0  0  0
  2 47  1  0  0  0  0
  3 48  1  0  0  0  0
  4 49  1  0  0  0  0
  5 50  1  0  0  0  0
  6 51  1  0  0  0  0
  9 52  1  0  0  0  0
  9 53  1  0  0  0  0
 10 54  1  0  0  0  0
 11 55  1  0  0  0  0
 12 56  1  0  0  0  0
 13 57  1  0  0  0  0
 14 58  1  0  0  0  0
 21 59  1  0  0  0  0
 23 60  1  0  0  0  0
 26 61  1  0  0  0  0
 27 62  1  0  0  0  0
 28 63  1  0  0  0  0
 30 64  1  0  0  0  0
 33 65  1  0  0  0  0
 34 66  1  0  0  0  0
 35 67  1  0  0  0  0
 37 68  1  0  0  0  0
 37 69  1  0  0  0  0
 37 70  1  0  0  0  0
 38 71  1  0  0  0  0
 39 72  1  0  0  0  0
 40 73  1  0  0  0  0
 41 74  1  0  0  0  0
 42 75  1  0  0  0  0
 43 76  1  0  0  0  0
M  CHG  1  19   1
M  END
$$$$
