C15H26O2
APtclcactv06211806303D 0   0.00000     0.00000
 
 43 44  0  0  0  0  0  0  0  0999 V2000
    5.4807   -0.3232   -0.4985 C   0  0  0  0  0  0  0  0  0  0  0  0
    4.0015   -0.1664   -0.2572 C   0  0  0  0  0  0  0  0  0  0  0  0
    3.5262    1.0337   -0.1600 C   0  0  0  0  0  0  0  0  0  0  0  0
    2.0799    1.3477    0.0884 C   0  0  0  0  0  0  0  0  0  0  0  0
    1.2152    0.1216   -0.2124 C   0  0  0  0  0  0  0  0  0  0  0  0
    1.8240   -1.0895    0.5057 C   0  0  0  0  0  0  0  0  0  0  0  0
    3.1701   -1.4112   -0.1508 C   0  0  0  0  0  0  0  0  0  0  0  0
   -0.2209    0.3610    0.3006 C   0  0  0  0  0  0  0  0  0  0  0  0
   -0.7738    1.5887   -0.4219 C   0  0  0  0  0  0  0  0  0  0  0  0
   -2.2849    1.6863   -0.2081 C   0  0  0  0  0  0  0  0  0  0  0  0
   -2.9350    0.4184   -0.7636 C   0  0  0  0  0  0  0  0  0  0  0  0
   -2.3832   -0.8121   -0.0449 C   0  0  0  0  0  0  0  0  0  0  0  0
   -0.9787   -0.8007    0.0568 O   0  0  0  0  0  0  0  0  0  0  0  0
   -3.0345   -0.9280    1.3388 C   0  0  0  0  0  0  0  0  0  0  0  0
   -2.8016   -2.0564   -0.8573 C   0  0  0  0  0  0  0  0  0  0  0  0
   -4.3512    0.4866   -0.5737 O   0  0  0  0  0  0  0  0  0  0  0  0
   -0.1284    0.6530    1.8034 C   0  0  0  0  0  0  0  0  0  0  0  0
    5.9457    0.6610   -0.5565 H   0  0  0  0  0  0  0  0  0  0  0  0
    5.9249   -0.8871    0.3218 H   0  0  0  0  0  0  0  0  0  0  0  0
    5.6416   -0.8568   -1.4352 H   0  0  0  0  0  0  0  0  0  0  0  0
    4.2133    1.8604   -0.2637 H   0  0  0  0  0  0  0  0  0  0  0  0
    1.9468    1.6367    1.1310 H   0  0  0  0  0  0  0  0  0  0  0  0
    1.7736    2.1725   -0.5549 H   0  0  0  0  0  0  0  0  0  0  0  0
    1.1981   -0.0601   -1.2870 H   0  0  0  0  0  0  0  0  0  0  0  0
    1.9732   -0.8538    1.5594 H   0  0  0  0  0  0  0  0  0  0  0  0
    1.1567   -1.9460    0.4097 H   0  0  0  0  0  0  0  0  0  0  0  0
    2.9978   -1.8236   -1.1449 H   0  0  0  0  0  0  0  0  0  0  0  0
    3.7015   -2.1448    0.4554 H   0  0  0  0  0  0  0  0  0  0  0  0
   -0.2927    2.4879   -0.0316 H   0  0  0  0  0  0  0  0  0  0  0  0
   -0.5622    1.5083   -1.4901 H   0  0  0  0  0  0  0  0  0  0  0  0
   -2.5144    1.8017    0.8471 H   0  0  0  0  0  0  0  0  0  0  0  0
   -2.6693    2.5547   -0.7515 H   0  0  0  0  0  0  0  0  0  0  0  0
   -2.7218    0.3403   -1.8321 H   0  0  0  0  0  0  0  0  0  0  0  0
   -4.1141   -1.0262    1.2252 H   0  0  0  0  0  0  0  0  0  0  0  0
   -2.6420   -1.8054    1.8529 H   0  0  0  0  0  0  0  0  0  0  0  0
   -2.8104   -0.0347    1.9219 H   0  0  0  0  0  0  0  0  0  0  0  0
   -2.3893   -1.9886   -1.8640 H   0  0  0  0  0  0  0  0  0  0  0  0
   -2.4218   -2.9538   -0.3688 H   0  0  0  0  0  0  0  0  0  0  0  0
   -3.8891   -2.1055   -0.9125 H   0  0  0  0  0  0  0  0  0  0  0  0
   -4.7712    1.2387   -1.0131 H   0  0  0  0  0  0  0  0  0  0  0  0
    0.4869    1.5382    1.9643 H   0  0  0  0  0  0  0  0  0  0  0  0
   -1.1278    0.8279    2.2017 H   0  0  0  0  0  0  0  0  0  0  0  0
    0.3215   -0.1996    2.3122 H   0  0  0  0  0  0  0  0  0  0  0  0
  1  2  1  0  0  0  0
  2  3  2  0  0  0  0
  3  4  1  0  0  0  0
  4  5  1  0  0  0  0
  5  6  1  0  0  0  0
  6  7  1  0  0  0  0
  2  7  1  0  0  0  0
  5  8  1  0  0  0  0
  8  9  1  0  0  0  0
  9 10  1  0  0  0  0
 10 11  1  0  0  0  0
 11 12  1  0  0  0  0
 12 13  1  0  0  0  0
  8 13  1  0  0  0  0
 12 14  1  0  0  0  0
 12 15  1  0  0  0  0
 11 16  1  0  0  0  0
  8 17  1  0  0  0  0
  1 18  1  0  0  0  0
  1 19  1  0  0  0  0
  1 20  1  0  0  0  0
  3 21  1  0  0  0  0
  4 22  1  0  0  0  0
  4 23  1  0  0  0  0
  5 24  1  0  0  0  0
  6 25  1  0  0  0  0
  6 26  1  0  0  0  0
  7 27  1  0  0  0  0
  7 28  1  0  0  0  0
  9 29  1  0  0  0  0
  9 30  1  0  0  0  0
 10 31  1  0  0  0  0
 10 32  1  0  0  0  0
 11 33  1  0  0  0  0
 14 34  1  0  0  0  0
 14 35  1  0  0  0  0
 14 36  1  0  0  0  0
 15 37  1  0  0  0  0
 15 38  1  0  0  0  0
 15 39  1  0  0  0  0
 16 40  1  0  0  0  0
 17 41  1  0  0  0  0
 17 42  1  0  0  0  0
 17 43  1  0  0  0  0
M  END
$$$$
