C7H16N4O2
APtclcactv06211804353D 0   0.00000     0.00000
 
 29 28  0  0  0  0  0  0  0  0999 V2000
    0.2679   -0.5452   -0.3216 C   0  0  0  0  0  0  0  0  0  0  0  0
   -0.9802   -0.1601    0.4751 C   0  0  0  0  0  0  0  0  0  0  0  0
   -2.2081   -0.8293   -0.1455 C   0  0  0  0  0  0  0  0  0  0  0  0
   -3.4032   -0.4605    0.6174 N   0  0  0  0  0  0  0  0  0  0  0  0
   -4.3557    0.2222    0.0467 C   0  0  0  0  0  0  0  0  0  0  0  0
   -4.3003    0.4850   -1.3016 N   0  0  0  0  0  0  0  0  0  0  0  0
   -5.4159    0.6794    0.7932 N   0  0  0  0  0  0  0  0  0  0  0  0
    1.4958    0.1240    0.2990 C   0  0  0  0  0  0  0  0  0  0  0  0
    2.7439   -0.2612   -0.4978 C   0  0  0  0  0  0  0  0  0  0  0  0
    3.9338    0.4934    0.0368 C   0  0  0  0  0  0  0  0  0  0  0  0
    4.7047   -0.0505    0.7917 O   0  0  0  0  0  0  0  0  0  0  0  0
    4.1373    1.7697   -0.3256 O   0  0  0  0  0  0  0  0  0  0  0  0
    2.9812   -1.7051   -0.3683 N   0  0  0  0  0  0  0  0  0  0  0  0
    0.3937   -1.6277   -0.2990 H   0  0  0  0  0  0  0  0  0  0  0  0
    0.1564   -0.2140   -1.3541 H   0  0  0  0  0  0  0  0  0  0  0  0
   -0.8688   -0.4913    1.5075 H   0  0  0  0  0  0  0  0  0  0  0  0
   -1.1060    0.9224    0.4524 H   0  0  0  0  0  0  0  0  0  0  0  0
   -2.3196   -0.4980   -1.1780 H   0  0  0  0  0  0  0  0  0  0  0  0
   -2.0823   -1.9118   -0.1228 H   0  0  0  0  0  0  0  0  0  0  0  0
   -3.6341    0.0470   -1.8541 H   0  0  0  0  0  0  0  0  0  0  0  0
   -4.9274    1.1083   -1.7004 H   0  0  0  0  0  0  0  0  0  0  0  0
   -5.4550    0.4940    1.7445 H   0  0  0  0  0  0  0  0  0  0  0  0
   -6.1247    1.1874    0.3685 H   0  0  0  0  0  0  0  0  0  0  0  0
    1.3700    1.2065    0.2763 H   0  0  0  0  0  0  0  0  0  0  0  0
    1.6073   -0.2073    1.3314 H   0  0  0  0  0  0  0  0  0  0  0  0
    2.5963   -0.0100   -1.5481 H   0  0  0  0  0  0  0  0  0  0  0  0
    4.9140    2.2123    0.0430 H   0  0  0  0  0  0  0  0  0  0  0  0
    3.1211   -1.9634    0.5970 H   0  0  0  0  0  0  0  0  0  0  0  0
    2.2260   -2.2339   -0.7783 H   0  0  0  0  0  0  0  0  0  0  0  0
  1  2  1  0  0  0  0
  2  3  1  0  0  0  0
  3  4  1  0  0  0  0
  4  5  2  0  0  0  0
  5  6  1  0  0  0  0
  5  7  1  0  0  0  0
  1  8  1  0  0  0  0
  8  9  1  0  0  0  0
  9 10  1  0  0  0  0
 10 11  2  0  0  0  0
 10 12  1  0  0  0  0
  9 13  1  0  0  0  0
  1 14  1  0  0  0  0
  1 15  1  0  0  0  0
  2 16  1  0  0  0  0
  2 17  1  0  0  0  0
  3 18  1  0  0  0  0
  3 19  1  0  0  0  0
  6 20  1  0  0  0  0
  6 21  1  0  0  0  0
  7 22  1  0  0  0  0
  7 23  1  0  0  0  0
  8 24  1  0  0  0  0
  8 25  1  0  0  0  0
  9 26  1  0  0  0  0
 12 27  1  0  0  0  0
 13 28  1  0  0  0  0
 13 29  1  0  0  0  0
M  END
$$$$
