C3H9NO
APtclcactv06211804443D 0   0.00000     0.00000
 
 14 13  0  0  0  0  0  0  0  0999 V2000
   -0.0273   -0.3718   -0.0307 C   0  0  0  0  0  0  0  0  0  0  0  0
   -1.2700    0.5199    0.0072 C   0  0  0  0  0  0  0  0  0  0  0  0
   -2.4755   -0.3177   -0.0474 N   0  0  0  0  0  0  0  0  0  0  0  0
    1.2284    0.5006    0.0262 C   0  0  0  0  0  0  0  0  0  0  0  0
    2.3890   -0.3323   -0.0092 O   0  0  0  0  0  0  0  0  0  0  0  0
   -0.0390   -1.0479    0.8242 H   0  0  0  0  0  0  0  0  0  0  0  0
   -0.0248   -0.9525   -0.9531 H   0  0  0  0  0  0  0  0  0  0  0  0
   -1.2725    1.1006    0.9297 H   0  0  0  0  0  0  0  0  0  0  0  0
   -1.2582    1.1960   -0.8477 H   0  0  0  0  0  0  0  0  0  0  0  0
   -2.4780   -0.9970    0.6986 H   0  0  0  0  0  0  0  0  0  0  0  0
   -3.3105    0.2484   -0.0237 H   0  0  0  0  0  0  0  0  0  0  0  0
    1.2401    1.1767   -0.8287 H   0  0  0  0  0  0  0  0  0  0  0  0
    1.2259    1.0813    0.9486 H   0  0  0  0  0  0  0  0  0  0  0  0
    3.2238    0.1548    0.0236 H   0  0  0  0  0  0  0  0  0  0  0  0
  1  2  1  0  0  0  0
  2  3  1  0  0  0  0
  1  4  1  0  0  0  0
  4  5  1  0  0  0  0
  1  6  1  0  0  0  0
  1  7  1  0  0  0  0
  2  8  1  0  0  0  0
  2  9  1  0  0  0  0
  3 10  1  0  0  0  0
  3 11  1  0  0  0  0
  4 12  1  0  0  0  0
  4 13  1  0  0  0  0
  5 14  1  0  0  0  0
M  END
$$$$
