C29H60O
APtclcactv06291803023D 0   0.00000     0.00000
 
 90 89  0  0  0  0  0  0  0  0999 V2000
   17.6189   -0.5462   -0.0921 C   0  0  0  0  0  0  0  0  0  0  0  0
   16.3679    0.2400   -0.4894 C   0  0  0  0  0  0  0  0  0  0  0  0
   15.1217   -0.5119   -0.0175 C   0  0  0  0  0  0  0  0  0  0  0  0
   13.8707    0.2743   -0.4148 C   0  0  0  0  0  0  0  0  0  0  0  0
   12.6246   -0.4775    0.0572 C   0  0  0  0  0  0  0  0  0  0  0  0
   11.3736    0.3086   -0.3402 C   0  0  0  0  0  0  0  0  0  0  0  0
   10.1275   -0.4432    0.1318 C   0  0  0  0  0  0  0  0  0  0  0  0
    8.8765    0.3429   -0.2655 C   0  0  0  0  0  0  0  0  0  0  0  0
    7.6303   -0.4089    0.2064 C   0  0  0  0  0  0  0  0  0  0  0  0
    6.3794    0.3772   -0.1909 C   0  0  0  0  0  0  0  0  0  0  0  0
    5.1332   -0.3746    0.2810 C   0  0  0  0  0  0  0  0  0  0  0  0
    3.8822    0.4116   -0.1163 C   0  0  0  0  0  0  0  0  0  0  0  0
    2.6361   -0.3403    0.3556 C   0  0  0  0  0  0  0  0  0  0  0  0
    1.3851    0.4459   -0.0417 C   0  0  0  0  0  0  0  0  0  0  0  0
    0.1390   -0.3060    0.4302 C   0  0  0  0  0  0  0  0  0  0  0  0
   -1.1120    0.4802    0.0329 C   0  0  0  0  0  0  0  0  0  0  0  0
   -2.3582   -0.2717    0.5049 C   0  0  0  0  0  0  0  0  0  0  0  0
   -3.6092    0.5145    0.1075 C   0  0  0  0  0  0  0  0  0  0  0  0
   -4.8563   -0.2954    0.4678 C   0  0  0  0  0  0  0  0  0  0  0  0
   -6.1019    0.4329   -0.0411 C   0  0  0  0  0  0  0  0  0  0  0  0
   -7.3490   -0.3770    0.3191 C   0  0  0  0  0  0  0  0  0  0  0  0
   -8.5946    0.3513   -0.1898 C   0  0  0  0  0  0  0  0  0  0  0  0
   -9.8417   -0.4585    0.1705 C   0  0  0  0  0  0  0  0  0  0  0  0
  -11.0873    0.2697   -0.3384 C   0  0  0  0  0  0  0  0  0  0  0  0
  -12.3344   -0.5401    0.0218 C   0  0  0  0  0  0  0  0  0  0  0  0
  -13.5800    0.1881   -0.4871 C   0  0  0  0  0  0  0  0  0  0  0  0
  -14.8271   -0.6217   -0.1268 C   0  0  0  0  0  0  0  0  0  0  0  0
  -16.0728    0.1065   -0.6358 C   0  0  0  0  0  0  0  0  0  0  0  0
  -17.3199   -0.7033   -0.2755 C   0  0  0  0  0  0  0  0  0  0  0  0
   -3.6314    1.7600    0.8077 O   0  0  0  0  0  0  0  0  0  0  0  0
   18.5066   -0.0105   -0.4283 H   0  0  0  0  0  0  0  0  0  0  0  0
   17.6497   -0.6563    0.9919 H   0  0  0  0  0  0  0  0  0  0  0  0
   17.5914   -1.5318   -0.5568 H   0  0  0  0  0  0  0  0  0  0  0  0
   16.3953    1.2256   -0.0247 H   0  0  0  0  0  0  0  0  0  0  0  0
   16.3370    0.3502   -1.5734 H   0  0  0  0  0  0  0  0  0  0  0  0
   15.0943   -1.4974   -0.4822 H   0  0  0  0  0  0  0  0  0  0  0  0
   15.1526   -0.6220    1.0665 H   0  0  0  0  0  0  0  0  0  0  0  0
   13.8982    1.2599    0.0499 H   0  0  0  0  0  0  0  0  0  0  0  0
   13.8399    0.3845   -1.4988 H   0  0  0  0  0  0  0  0  0  0  0  0
   12.5972   -1.4631   -0.4075 H   0  0  0  0  0  0  0  0  0  0  0  0
   12.6555   -0.5877    1.1411 H   0  0  0  0  0  0  0  0  0  0  0  0
   11.4010    1.2942    0.1245 H   0  0  0  0  0  0  0  0  0  0  0  0
   11.3427    0.4188   -1.4241 H   0  0  0  0  0  0  0  0  0  0  0  0
   10.1000   -1.4288   -0.3329 H   0  0  0  0  0  0  0  0  0  0  0  0
   10.1583   -0.5534    1.2158 H   0  0  0  0  0  0  0  0  0  0  0  0
    8.9039    1.3285    0.1992 H   0  0  0  0  0  0  0  0  0  0  0  0
    8.8456    0.4531   -1.3495 H   0  0  0  0  0  0  0  0  0  0  0  0
    7.6029   -1.3945   -0.2583 H   0  0  0  0  0  0  0  0  0  0  0  0
    7.6612   -0.5191    1.2904 H   0  0  0  0  0  0  0  0  0  0  0  0
    6.4068    1.3628    0.2738 H   0  0  0  0  0  0  0  0  0  0  0  0
    6.3485    0.4874   -1.2749 H   0  0  0  0  0  0  0  0  0  0  0  0
    5.1058   -1.3602   -0.1837 H   0  0  0  0  0  0  0  0  0  0  0  0
    5.1641   -0.4848    1.3650 H   0  0  0  0  0  0  0  0  0  0  0  0
    3.9097    1.3971    0.3484 H   0  0  0  0  0  0  0  0  0  0  0  0
    3.8513    0.5217   -1.2003 H   0  0  0  0  0  0  0  0  0  0  0  0
    2.6087   -1.3259   -0.1091 H   0  0  0  0  0  0  0  0  0  0  0  0
    2.6670   -0.4504    1.4396 H   0  0  0  0  0  0  0  0  0  0  0  0
    1.4125    1.4315    0.4230 H   0  0  0  0  0  0  0  0  0  0  0  0
    1.3542    0.5560   -1.1257 H   0  0  0  0  0  0  0  0  0  0  0  0
    0.1115   -1.2916   -0.0345 H   0  0  0  0  0  0  0  0  0  0  0  0
    0.1698   -0.4161    1.5142 H   0  0  0  0  0  0  0  0  0  0  0  0
   -1.0846    1.4658    0.4976 H   0  0  0  0  0  0  0  0  0  0  0  0
   -1.1429    0.5903   -1.0511 H   0  0  0  0  0  0  0  0  0  0  0  0
   -2.3856   -1.2573    0.0402 H   0  0  0  0  0  0  0  0  0  0  0  0
   -2.3273   -0.3818    1.5888 H   0  0  0  0  0  0  0  0  0  0  0  0
   -3.5950    0.7014   -0.9662 H   0  0  0  0  0  0  0  0  0  0  0  0
   -4.7964   -1.2801    0.0044 H   0  0  0  0  0  0  0  0  0  0  0  0
   -4.9172   -0.4064    1.5504 H   0  0  0  0  0  0  0  0  0  0  0  0
   -6.1617    1.4177    0.4223 H   0  0  0  0  0  0  0  0  0  0  0  0
   -6.0409    0.5439   -1.1237 H   0  0  0  0  0  0  0  0  0  0  0  0
   -7.2891   -1.3617   -0.1443 H   0  0  0  0  0  0  0  0  0  0  0  0
   -7.4099   -0.4880    1.4018 H   0  0  0  0  0  0  0  0  0  0  0  0
   -8.6545    1.3361    0.2736 H   0  0  0  0  0  0  0  0  0  0  0  0
   -8.5337    0.4623   -1.2724 H   0  0  0  0  0  0  0  0  0  0  0  0
   -9.7818   -1.4433   -0.2929 H   0  0  0  0  0  0  0  0  0  0  0  0
   -9.9026   -0.5695    1.2531 H   0  0  0  0  0  0  0  0  0  0  0  0
  -11.1472    1.2545    0.1250 H   0  0  0  0  0  0  0  0  0  0  0  0
  -11.0264    0.3807   -1.4211 H   0  0  0  0  0  0  0  0  0  0  0  0
  -12.2746   -1.5249   -0.4416 H   0  0  0  0  0  0  0  0  0  0  0  0
  -12.3954   -0.6511    1.1044 H   0  0  0  0  0  0  0  0  0  0  0  0
  -13.6399    1.1729   -0.0237 H   0  0  0  0  0  0  0  0  0  0  0  0
  -13.5191    0.2991   -1.5697 H   0  0  0  0  0  0  0  0  0  0  0  0
  -14.7673   -1.6065   -0.5903 H   0  0  0  0  0  0  0  0  0  0  0  0
  -14.8881   -0.7327    0.9558 H   0  0  0  0  0  0  0  0  0  0  0  0
  -16.1326    1.0913   -0.1723 H   0  0  0  0  0  0  0  0  0  0  0  0
  -16.0118    0.2175   -1.7184 H   0  0  0  0  0  0  0  0  0  0  0  0
  -17.2600   -1.6881   -0.7389 H   0  0  0  0  0  0  0  0  0  0  0  0
  -17.3808   -0.8143    0.8071 H   0  0  0  0  0  0  0  0  0  0  0  0
  -18.2073   -0.1845   -0.6381 H   0  0  0  0  0  0  0  0  0  0  0  0
   -3.6448    1.6699    1.7704 H   0  0  0  0  0  0  0  0  0  0  0  0
  1  2  1  0  0  0  0
  2  3  1  0  0  0  0
  3  4  1  0  0  0  0
  4  5  1  0  0  0  0
  5  6  1  0  0  0  0
  6  7  1  0  0  0  0
  7  8  1  0  0  0  0
  8  9  1  0  0  0  0
  9 10  1  0  0  0  0
 10 11  1  0  0  0  0
 11 12  1  0  0  0  0
 12 13  1  0  0  0  0
 13 14  1  0  0  0  0
 14 15  1  0  0  0  0
 15 16  1  0  0  0  0
 16 17  1  0  0  0  0
 17 18  1  0  0  0  0
 18 19  1  0  0  0  0
 19 20  1  0  0  0  0
 20 21  1  0  0  0  0
 21 22  1  0  0  0  0
 22 23  1  0  0  0  0
 23 24  1  0  0  0  0
 24 25  1  0  0  0  0
 25 26  1  0  0  0  0
 26 27  1  0  0  0  0
 27 28  1  0  0  0  0
 28 29  1  0  0  0  0
 18 30  1  0  0  0  0
  1 31  1  0  0  0  0
  1 32  1  0  0  0  0
  1 33  1  0  0  0  0
  2 34  1  0  0  0  0
  2 35  1  0  0  0  0
  3 36  1  0  0  0  0
  3 37  1  0  0  0  0
  4 38  1  0  0  0  0
  4 39  1  0  0  0  0
  5 40  1  0  0  0  0
  5 41  1  0  0  0  0
  6 42  1  0  0  0  0
  6 43  1  0  0  0  0
  7 44  1  0  0  0  0
  7 45  1  0  0  0  0
  8 46  1  0  0  0  0
  8 47  1  0  0  0  0
  9 48  1  0  0  0  0
  9 49  1  0  0  0  0
 10 50  1  0  0  0  0
 10 51  1  0  0  0  0
 11 52  1  0  0  0  0
 11 53  1  0  0  0  0
 12 54  1  0  0  0  0
 12 55  1  0  0  0  0
 13 56  1  0  0  0  0
 13 57  1  0  0  0  0
 14 58  1  0  0  0  0
 14 59  1  0  0  0  0
 15 60  1  0  0  0  0
 15 61  1  0  0  0  0
 16 62  1  0  0  0  0
 16 63  1  0  0  0  0
 17 64  1  0  0  0  0
 17 65  1  0  0  0  0
 18 66  1  0  0  0  0
 19 67  1  0  0  0  0
 19 68  1  0  0  0  0
 20 69  1  0  0  0  0
 20 70  1  0  0  0  0
 21 71  1  0  0  0  0
 21 72  1  0  0  0  0
 22 73  1  0  0  0  0
 22 74  1  0  0  0  0
 23 75  1  0  0  0  0
 23 76  1  0  0  0  0
 24 77  1  0  0  0  0
 24 78  1  0  0  0  0
 25 79  1  0  0  0  0
 25 80  1  0  0  0  0
 26 81  1  0  0  0  0
 26 82  1  0  0  0  0
 27 83  1  0  0  0  0
 27 84  1  0  0  0  0
 28 85  1  0  0  0  0
 28 86  1  0  0  0  0
 29 87  1  0  0  0  0
 29 88  1  0  0  0  0
 29 89  1  0  0  0  0
 30 90  1  0  0  0  0
M  END
$$$$
