C24H26N2O13
APtclcactv06211806303D 0   0.00000     0.00000
 
 65 68  0  0  0  0  0  0  0  0999 V2000
   -4.5901    1.1802    0.2715 C   0  0  0  0  0  0  0  0  0  0  0  0
   -5.8687    1.8772   -0.1939 C   0  0  0  0  0  0  0  0  0  0  0  0
   -7.0258    1.0114    0.0295 N   0  0  0  0  0  0  0  0  0  0  0  0
   -6.9462   -0.2824   -0.1152 C   0  0  0  0  0  0  0  0  0  0  0  0
   -5.7192   -0.9054   -0.4423 C   0  0  0  0  0  0  0  0  0  0  0  0
   -4.5529   -0.2219   -0.2849 C   0  0  0  0  0  0  0  0  0  0  0  0
   -3.3261   -0.8160   -0.6374 C   0  0  0  0  0  0  0  0  0  0  0  0
   -2.1714   -0.1294   -0.4775 C   0  0  0  0  0  0  0  0  0  0  0  0
   -0.9705   -0.7441   -0.7150 N   0  0  0  0  0  0  0  0  0  0  0  0
   -0.8028   -2.1642   -1.0349 C   0  0  0  0  0  0  0  0  0  0  0  0
    0.7116   -2.3621   -1.2103 C   0  0  0  0  0  0  0  0  0  0  0  0
    1.3050   -0.9922   -0.9680 C   0  0  0  0  0  0  0  0  0  0  0  0
    2.6172   -0.5578   -0.9905 C   0  0  0  0  0  0  0  0  0  0  0  0
    2.9158    0.7700   -0.7321 C   0  0  0  0  0  0  0  0  0  0  0  0
    1.8884    1.6651   -0.4496 C   0  0  0  0  0  0  0  0  0  0  0  0
    0.5768    1.2296   -0.4270 C   0  0  0  0  0  0  0  0  0  0  0  0
    0.2735   -0.1073   -0.6936 C   0  0  0  0  0  0  0  0  0  0  0  0
    2.1752    2.9698   -0.1951 O   0  0  0  0  0  0  0  0  0  0  0  0
    4.2075    1.1968   -0.7540 O   0  0  0  0  0  0  0  0  0  0  0  0
    5.2083    0.2210   -1.0510 C   0  0  0  0  0  0  0  0  0  0  0  0
    6.5740    0.9051   -1.1533 C   0  0  0  0  0  0  0  0  0  0  0  0
    6.9242    1.5334    0.1991 C   0  0  0  0  0  0  0  0  0  0  0  0
    6.8983    0.4455    1.2771 C   0  0  0  0  0  0  0  0  0  0  0  0
    5.5201   -0.2209    1.2855 C   0  0  0  0  0  0  0  0  0  0  0  0
    5.2438   -0.7573   -0.0099 O   0  0  0  0  0  0  0  0  0  0  0  0
    5.5052   -1.3492    2.3188 C   0  0  0  0  0  0  0  0  0  0  0  0
    4.1874   -1.8944    2.4099 O   0  0  0  0  0  0  0  0  0  0  0  0
    7.9001   -0.5330    0.9923 O   0  0  0  0  0  0  0  0  0  0  0  0
    8.2297    2.1110    0.1341 O   0  0  0  0  0  0  0  0  0  0  0  0
    7.5672   -0.0612   -1.5025 O   0  0  0  0  0  0  0  0  0  0  0  0
   -1.3141   -3.0187    0.0963 C   0  0  0  0  0  0  0  0  0  0  0  0
   -1.4624   -2.5400    1.1957 O   0  0  0  0  0  0  0  0  0  0  0  0
   -1.6046   -4.3116   -0.1176 O   0  0  0  0  0  0  0  0  0  0  0  0
   -8.1640   -1.1154    0.0671 C   0  0  0  0  0  0  0  0  0  0  0  0
   -8.1006   -2.3200   -0.0653 O   0  0  0  0  0  0  0  0  0  0  0  0
   -9.3370   -0.5334    0.3789 O   0  0  0  0  0  0  0  0  0  0  0  0
   -6.0478    3.1591    0.5779 C   0  0  0  0  0  0  0  0  0  0  0  0
   -6.8109    3.1992    1.5138 O   0  0  0  0  0  0  0  0  0  0  0  0
   -5.3596    4.2563    0.2256 O   0  0  0  0  0  0  0  0  0  0  0  0
   -3.7227    1.7358   -0.0849 H   0  0  0  0  0  0  0  0  0  0  0  0
   -4.5738    1.1397    1.3606 H   0  0  0  0  0  0  0  0  0  0  0  0
   -5.7888    2.1062   -1.2566 H   0  0  0  0  0  0  0  0  0  0  0  0
   -5.7079   -1.9188   -0.8157 H   0  0  0  0  0  0  0  0  0  0  0  0
   -3.3068   -1.8198   -1.0353 H   0  0  0  0  0  0  0  0  0  0  0  0
   -2.1964    0.9034   -0.1627 H   0  0  0  0  0  0  0  0  0  0  0  0
   -1.3256   -2.4077   -1.9598 H   0  0  0  0  0  0  0  0  0  0  0  0
    1.0893   -3.0751   -0.4774 H   0  0  0  0  0  0  0  0  0  0  0  0
    0.9362   -2.7002   -2.2219 H   0  0  0  0  0  0  0  0  0  0  0  0
    3.4117   -1.2557   -1.2098 H   0  0  0  0  0  0  0  0  0  0  0  0
   -0.2176    1.9274   -0.2069 H   0  0  0  0  0  0  0  0  0  0  0  0
    2.1823    3.5317   -0.9821 H   0  0  0  0  0  0  0  0  0  0  0  0
    4.9730   -0.2644   -1.9982 H   0  0  0  0  0  0  0  0  0  0  0  0
    6.5359    1.6820   -1.9169 H   0  0  0  0  0  0  0  0  0  0  0  0
    6.1942    2.3054    0.4425 H   0  0  0  0  0  0  0  0  0  0  0  0
    7.0922    0.8937    2.2516 H   0  0  0  0  0  0  0  0  0  0  0  0
    4.7608    0.5177    1.5426 H   0  0  0  0  0  0  0  0  0  0  0  0
    6.2013   -2.1305    2.0136 H   0  0  0  0  0  0  0  0  0  0  0  0
    5.8037   -0.9560    3.2906 H   0  0  0  0  0  0  0  0  0  0  0  0
    4.1036   -2.6163    3.0478 H   0  0  0  0  0  0  0  0  0  0  0  0
    8.7996   -0.1789    0.9664 H   0  0  0  0  0  0  0  0  0  0  0  0
    8.3202    2.8043   -0.5339 H   0  0  0  0  0  0  0  0  0  0  0  0
    7.4060   -0.5032   -2.3473 H   0  0  0  0  0  0  0  0  0  0  0  0
   -1.9295   -4.8194    0.6385 H   0  0  0  0  0  0  0  0  0  0  0  0
  -10.1011   -1.1161    0.4873 H   0  0  0  0  0  0  0  0  0  0  0  0
   -5.5078    5.0549    0.7505 H   0  0  0  0  0  0  0  0  0  0  0  0
  1  2  1  0  0  0  0
  2  3  1  0  0  0  0
  3  4  2  0  0  0  0
  4  5  1  0  0  0  0
  5  6  2  0  0  0  0
  1  6  1  0  0  0  0
  6  7  1  0  0  0  0
  7  8  2  0  0  0  0
  8  9  1  0  0  0  0
  9 10  1  0  0  0  0
 10 11  1  0  0  0  0
 11 12  1  0  0  0  0
 12 13  2  0  0  0  0
 13 14  1  0  0  0  0
 14 15  2  0  0  0  0
 15 16  1  0  0  0  0
 16 17  2  0  0  0  0
 12 17  1  0  0  0  0
  9 17  1  0  0  0  0
 15 18  1  0  0  0  0
 14 19  1  0  0  0  0
 19 20  1  0  0  0  0
 20 21  1  0  0  0  0
 21 22  1  0  0  0  0
 22 23  1  0  0  0  0
 23 24  1  0  0  0  0
 24 25  1  0  0  0  0
 20 25  1  0  0  0  0
 24 26  1  0  0  0  0
 26 27  1  0  0  0  0
 23 28  1  0  0  0  0
 22 29  1  0  0  0  0
 21 30  1  0  0  0  0
 10 31  1  0  0  0  0
 31 32  2  0  0  0  0
 31 33  1  0  0  0  0
  4 34  1  0  0  0  0
 34 35  2  0  0  0  0
 34 36  1  0  0  0  0
  2 37  1  0  0  0  0
 37 38  2  0  0  0  0
 37 39  1  0  0  0  0
  1 40  1  0  0  0  0
  1 41  1  0  0  0  0
  2 42  1  0  0  0  0
  5 43  1  0  0  0  0
  7 44  1  0  0  0  0
  8 45  1  0  0  0  0
 10 46  1  0  0  0  0
 11 47  1  0  0  0  0
 11 48  1  0  0  0  0
 13 49  1  0  0  0  0
 16 50  1  0  0  0  0
 18 51  1  0  0  0  0
 20 52  1  0  0  0  0
 21 53  1  0  0  0  0
 22 54  1  0  0  0  0
 23 55  1  0  0  0  0
 24 56  1  0  0  0  0
 26 57  1  0  0  0  0
 26 58  1  0  0  0  0
 27 59  1  0  0  0  0
 28 60  1  0  0  0  0
 29 61  1  0  0  0  0
 30 62  1  0  0  0  0
 33 63  1  0  0  0  0
 36 64  1  0  0  0  0
 39 65  1  0  0  0  0
M  END
$$$$
