C15H22O
APtclcactv06291803023D 0   0.00000     0.00000
 
 38 38  0  0  0  0  0  0  0  0999 V2000
   -3.7875    2.5599    0.3354 C   0  0  0  0  0  0  0  0  0  0  0  0
   -3.0408    1.2932    0.0055 C   0  0  0  0  0  0  0  0  0  0  0  0
   -2.2235    1.3352   -0.9934 C   0  0  0  0  0  0  0  0  0  0  0  0
   -1.4169    0.1615   -1.4751 C   0  0  0  0  0  0  0  0  0  0  0  0
   -1.5264   -0.9562   -0.4601 C   0  0  0  0  0  0  0  0  0  0  0  0
   -0.4902   -1.6850   -0.1266 C   0  0  0  0  0  0  0  0  0  0  0  0
   -0.6085   -2.7013    0.9798 C   0  0  0  0  0  0  0  0  0  0  0  0
    0.8202   -1.5070   -0.8494 C   0  0  0  0  0  0  0  0  0  0  0  0
    1.6948   -0.5539   -0.0763 C   0  0  0  0  0  0  0  0  0  0  0  0
    1.2935   -0.0668    0.9599 O   0  0  0  0  0  0  0  0  0  0  0  0
    3.0275   -0.2160   -0.5752 C   0  0  0  0  0  0  0  0  0  0  0  0
    3.7557    0.7151    0.0443 C   0  0  0  0  0  0  0  0  0  0  0  0
    3.1464    1.5338    1.1532 C   0  0  0  0  0  0  0  0  0  0  0  0
    5.1873    0.9478   -0.3649 C   0  0  0  0  0  0  0  0  0  0  0  0
   -2.8940   -1.1910    0.1524 C   0  0  0  0  0  0  0  0  0  0  0  0
   -3.3081    0.0991    0.8687 C   0  0  0  0  0  0  0  0  0  0  0  0
   -3.4975    3.3450   -0.3629 H   0  0  0  0  0  0  0  0  0  0  0  0
   -4.8598    2.3808    0.2558 H   0  0  0  0  0  0  0  0  0  0  0  0
   -3.5454    2.8701    1.3519 H   0  0  0  0  0  0  0  0  0  0  0  0
   -2.1125    2.2735   -1.5165 H   0  0  0  0  0  0  0  0  0  0  0  0
   -1.8041   -0.1782   -2.4357 H   0  0  0  0  0  0  0  0  0  0  0  0
   -0.3729    0.4556   -1.5833 H   0  0  0  0  0  0  0  0  0  0  0  0
   -1.3093   -3.4816    0.6829 H   0  0  0  0  0  0  0  0  0  0  0  0
    0.3686   -3.1444    1.1722 H   0  0  0  0  0  0  0  0  0  0  0  0
   -0.9705   -2.2129    1.8846 H   0  0  0  0  0  0  0  0  0  0  0  0
    1.3212   -2.4712   -0.9358 H   0  0  0  0  0  0  0  0  0  0  0  0
    0.6342   -1.1036   -1.8447 H   0  0  0  0  0  0  0  0  0  0  0  0
    3.4223   -0.7200   -1.4450 H   0  0  0  0  0  0  0  0  0  0  0  0
    3.2299    0.9901    2.0942 H   0  0  0  0  0  0  0  0  0  0  0  0
    3.6735    2.4844    1.2348 H   0  0  0  0  0  0  0  0  0  0  0  0
    2.0952    1.7190    0.9326 H   0  0  0  0  0  0  0  0  0  0  0  0
    5.2222    1.2413   -1.4141 H   0  0  0  0  0  0  0  0  0  0  0  0
    5.6163    1.7402    0.2485 H   0  0  0  0  0  0  0  0  0  0  0  0
    5.7589    0.0303   -0.2251 H   0  0  0  0  0  0  0  0  0  0  0  0
   -3.6134   -1.4302   -0.6308 H   0  0  0  0  0  0  0  0  0  0  0  0
   -2.8418   -2.0100    0.8698 H   0  0  0  0  0  0  0  0  0  0  0  0
   -2.7471    0.1888    1.7989 H   0  0  0  0  0  0  0  0  0  0  0  0
   -4.3734    0.0572    1.0958 H   0  0  0  0  0  0  0  0  0  0  0  0
  1  2  1  0  0  0  0
  2  3  2  0  0  0  0
  3  4  1  0  0  0  0
  4  5  1  0  0  0  0
  5  6  2  0  0  0  0
  6  7  1  0  0  0  0
  6  8  1  0  0  0  0
  8  9  1  0  0  0  0
  9 10  2  0  0  0  0
  9 11  1  0  0  0  0
 11 12  2  0  0  0  0
 12 13  1  0  0  0  0
 12 14  1  0  0  0  0
  5 15  1  0  0  0  0
 15 16  1  0  0  0  0
  2 16  1  0  0  0  0
  1 17  1  0  0  0  0
  1 18  1  0  0  0  0
  1 19  1  0  0  0  0
  3 20  1  0  0  0  0
  4 21  1  0  0  0  0
  4 22  1  0  0  0  0
  7 23  1  0  0  0  0
  7 24  1  0  0  0  0
  7 25  1  0  0  0  0
  8 26  1  0  0  0  0
  8 27  1  0  0  0  0
 11 28  1  0  0  0  0
 13 29  1  0  0  0  0
 13 30  1  0  0  0  0
 13 31  1  0  0  0  0
 14 32  1  0  0  0  0
 14 33  1  0  0  0  0
 14 34  1  0  0  0  0
 15 35  1  0  0  0  0
 15 36  1  0  0  0  0
 16 37  1  0  0  0  0
 16 38  1  0  0  0  0
M  END
$$$$
