C15H22O2
APtclcactv06291803023D 0   0.00000     0.00000
 
 39 40  0  0  0  0  0  0  0  0999 V2000
   -2.1306   -2.1077   -0.9675 C   0  0  0  0  0  0  0  0  0  0  0  0
   -2.0248   -1.1997    0.2594 C   0  0  0  0  0  0  0  0  0  0  0  0
   -0.7500   -0.3250    0.1807 C   0  0  0  0  0  0  0  0  0  0  0  0
    0.2523   -0.8973   -0.8172 C   0  0  0  0  0  0  0  0  0  0  0  0
    1.2328   -1.7873   -0.1067 C   0  0  0  0  0  0  0  0  0  0  0  0
    2.4988   -1.5116   -0.0117 C   0  0  0  0  0  0  0  0  0  0  0  0
    3.1161   -0.2762   -0.6037 C   0  0  0  0  0  0  0  0  0  0  0  0
    3.0287    0.8752    0.4077 C   0  0  0  0  0  0  0  0  0  0  0  0
    1.5751    1.0931    0.7376 C   0  0  0  0  0  0  0  0  0  0  0  0
    0.8958    2.0529    0.1611 C   0  0  0  0  0  0  0  0  0  0  0  0
   -0.5845    2.1673    0.4624 C   0  0  0  0  0  0  0  0  0  0  0  0
   -1.2895    1.0387   -0.2923 C   0  0  0  0  0  0  0  0  0  0  0  0
   -2.7169    1.0416   -0.0136 O   0  0  0  0  0  0  0  0  0  0  0  0
   -3.1539   -0.1911    0.2739 C   0  0  0  0  0  0  0  0  0  0  0  0
   -4.3059   -0.4645    0.5147 O   0  0  0  0  0  0  0  0  0  0  0  0
    1.5697    3.0196   -0.7782 C   0  0  0  0  0  0  0  0  0  0  0  0
    3.3902   -2.4760    0.7274 C   0  0  0  0  0  0  0  0  0  0  0  0
   -1.2577   -2.7588   -1.0140 H   0  0  0  0  0  0  0  0  0  0  0  0
   -3.0330   -2.7145   -0.8937 H   0  0  0  0  0  0  0  0  0  0  0  0
   -2.1765   -1.4965   -1.8689 H   0  0  0  0  0  0  0  0  0  0  0  0
   -2.0272   -1.7919    1.1745 H   0  0  0  0  0  0  0  0  0  0  0  0
   -0.3050   -0.2349    1.1714 H   0  0  0  0  0  0  0  0  0  0  0  0
   -0.2794   -1.4754   -1.5730 H   0  0  0  0  0  0  0  0  0  0  0  0
    0.7890   -0.0805   -1.2999 H   0  0  0  0  0  0  0  0  0  0  0  0
    0.8683   -2.6976    0.3459 H   0  0  0  0  0  0  0  0  0  0  0  0
    4.1615   -0.4713   -0.8427 H   0  0  0  0  0  0  0  0  0  0  0  0
    2.5807   -0.0025   -1.5129 H   0  0  0  0  0  0  0  0  0  0  0  0
    3.5770    0.6134    1.3127 H   0  0  0  0  0  0  0  0  0  0  0  0
    3.4477    1.7819   -0.0288 H   0  0  0  0  0  0  0  0  0  0  0  0
    1.0882    0.4511    1.4567 H   0  0  0  0  0  0  0  0  0  0  0  0
   -0.7545    2.0600    1.5337 H   0  0  0  0  0  0  0  0  0  0  0  0
   -0.9592    3.1323    0.1210 H   0  0  0  0  0  0  0  0  0  0  0  0
   -1.1261    1.1485   -1.3632 H   0  0  0  0  0  0  0  0  0  0  0  0
    2.0310    2.4683   -1.5976 H   0  0  0  0  0  0  0  0  0  0  0  0
    0.8301    3.7132   -1.1780 H   0  0  0  0  0  0  0  0  0  0  0  0
    2.3357    3.5765   -0.2385 H   0  0  0  0  0  0  0  0  0  0  0  0
    2.7955   -3.3130    1.0933 H   0  0  0  0  0  0  0  0  0  0  0  0
    4.1627   -2.8464    0.0534 H   0  0  0  0  0  0  0  0  0  0  0  0
    3.8572   -1.9663    1.5701 H   0  0  0  0  0  0  0  0  0  0  0  0
  1  2  1  0  0  0  0
  2  3  1  0  0  0  0
  3  4  1  0  0  0  0
  4  5  1  0  0  0  0
  5  6  2  0  0  0  0
  6  7  1  0  0  0  0
  7  8  1  0  0  0  0
  8  9  1  0  0  0  0
  9 10  2  0  0  0  0
 10 11  1  0  0  0  0
 11 12  1  0  0  0  0
  3 12  1  0  0  0  0
 12 13  1  0  0  0  0
 13 14  1  0  0  0  0
  2 14  1  0  0  0  0
 14 15  2  0  0  0  0
 10 16  1  0  0  0  0
  6 17  1  0  0  0  0
  1 18  1  0  0  0  0
  1 19  1  0  0  0  0
  1 20  1  0  0  0  0
  2 21  1  0  0  0  0
  3 22  1  0  0  0  0
  4 23  1  0  0  0  0
  4 24  1  0  0  0  0
  5 25  1  0  0  0  0
  7 26  1  0  0  0  0
  7 27  1  0  0  0  0
  8 28  1  0  0  0  0
  8 29  1  0  0  0  0
  9 30  1  0  0  0  0
 11 31  1  0  0  0  0
 11 32  1  0  0  0  0
 12 33  1  0  0  0  0
 16 34  1  0  0  0  0
 16 35  1  0  0  0  0
 16 36  1  0  0  0  0
 17 37  1  0  0  0  0
 17 38  1  0  0  0  0
 17 39  1  0  0  0  0
M  END
$$$$
