C20H30O3
APtclcactv06291803023D 0   0.00000     0.00000
 
 53 53  0  0  0  0  0  0  0  0999 V2000
   10.9690   -1.3084    0.8004 C   0  0  0  0  0  0  0  0  0  0  0  0
    9.7135   -1.2201   -0.0695 C   0  0  0  0  0  0  0  0  0  0  0  0
    8.6100   -0.4914    0.7000 C   0  0  0  0  0  0  0  0  0  0  0  0
    7.3545   -0.4031   -0.1699 C   0  0  0  0  0  0  0  0  0  0  0  0
    6.2510    0.3255    0.5997 C   0  0  0  0  0  0  0  0  0  0  0  0
    4.9955    0.4138   -0.2703 C   0  0  0  0  0  0  0  0  0  0  0  0
    3.8920    1.1425    0.4993 C   0  0  0  0  0  0  0  0  0  0  0  0
    2.6554    1.2295   -0.3576 C   0  0  0  0  0  0  0  0  0  0  0  0
    1.4919    0.7631    0.1006 C   0  0  0  0  0  0  0  0  0  0  0  0
    0.2917    0.8475   -0.7310 C   0  0  0  0  0  0  0  0  0  0  0  0
    0.3538    1.3415   -1.8374 O   0  0  0  0  0  0  0  0  0  0  0  0
   -1.0221    0.3208   -0.2137 C   0  0  0  0  0  0  0  0  0  0  0  0
   -2.1075    0.5298   -1.2716 C   0  0  0  0  0  0  0  0  0  0  0  0
   -3.4212    0.0031   -0.7542 C   0  0  0  0  0  0  0  0  0  0  0  0
   -4.2700    0.8375   -0.0511 C   0  0  0  0  0  0  0  0  0  0  0  0
   -5.4783    0.3548    0.4253 C   0  0  0  0  0  0  0  0  0  0  0  0
   -5.8344   -0.9704    0.1942 C   0  0  0  0  0  0  0  0  0  0  0  0
   -4.9790   -1.8015   -0.5113 C   0  0  0  0  0  0  0  0  0  0  0  0
   -3.7775   -1.3120   -0.9887 C   0  0  0  0  0  0  0  0  0  0  0  0
   -7.0190   -1.4489    0.6601 O   0  0  0  0  0  0  0  0  0  0  0  0
   -7.3184   -2.8189    0.3854 C   0  0  0  0  0  0  0  0  0  0  0  0
   -6.3142    1.1743    1.1176 O   0  0  0  0  0  0  0  0  0  0  0  0
   -5.8831    2.5220    1.3173 C   0  0  0  0  0  0  0  0  0  0  0  0
   11.3062   -0.3036    1.0548 H   0  0  0  0  0  0  0  0  0  0  0  0
   10.7401   -1.8570    1.7141 H   0  0  0  0  0  0  0  0  0  0  0  0
   11.7551   -1.8275    0.2522 H   0  0  0  0  0  0  0  0  0  0  0  0
    9.9424   -0.6715   -0.9832 H   0  0  0  0  0  0  0  0  0  0  0  0
    9.3763   -2.2250   -0.3239 H   0  0  0  0  0  0  0  0  0  0  0  0
    8.3811   -1.0401    1.6137 H   0  0  0  0  0  0  0  0  0  0  0  0
    8.9472    0.5134    0.9544 H   0  0  0  0  0  0  0  0  0  0  0  0
    7.5834    0.1455   -1.0835 H   0  0  0  0  0  0  0  0  0  0  0  0
    7.0173   -1.4080   -0.4243 H   0  0  0  0  0  0  0  0  0  0  0  0
    6.0221   -0.2231    1.5133 H   0  0  0  0  0  0  0  0  0  0  0  0
    6.5882    1.3304    0.8540 H   0  0  0  0  0  0  0  0  0  0  0  0
    5.2244    0.9625   -1.1839 H   0  0  0  0  0  0  0  0  0  0  0  0
    4.6583   -0.5910   -0.5247 H   0  0  0  0  0  0  0  0  0  0  0  0
    3.6631    0.5939    1.4129 H   0  0  0  0  0  0  0  0  0  0  0  0
    4.2292    2.1474    0.7537 H   0  0  0  0  0  0  0  0  0  0  0  0
    2.7106    1.6693   -1.3425 H   0  0  0  0  0  0  0  0  0  0  0  0
    1.4366    0.3233    1.0854 H   0  0  0  0  0  0  0  0  0  0  0  0
   -0.9267   -0.7430    0.0038 H   0  0  0  0  0  0  0  0  0  0  0  0
   -1.2944    0.8548    0.6967 H   0  0  0  0  0  0  0  0  0  0  0  0
   -2.2028    1.5936   -1.4891 H   0  0  0  0  0  0  0  0  0  0  0  0
   -1.8351   -0.0042   -2.1820 H   0  0  0  0  0  0  0  0  0  0  0  0
   -3.9911    1.8656    0.1272 H   0  0  0  0  0  0  0  0  0  0  0  0
   -5.2530   -2.8304   -0.6920 H   0  0  0  0  0  0  0  0  0  0  0  0
   -3.1117   -1.9608   -1.5384 H   0  0  0  0  0  0  0  0  0  0  0  0
   -7.3427   -2.9764   -0.6929 H   0  0  0  0  0  0  0  0  0  0  0  0
   -6.5514   -3.4543    0.8283 H   0  0  0  0  0  0  0  0  0  0  0  0
   -8.2895   -3.0711    0.8114 H   0  0  0  0  0  0  0  0  0  0  0  0
   -6.6404    3.0658    1.8820 H   0  0  0  0  0  0  0  0  0  0  0  0
   -4.9446    2.5249    1.8717 H   0  0  0  0  0  0  0  0  0  0  0  0
   -5.7354    3.0033    0.3505 H   0  0  0  0  0  0  0  0  0  0  0  0
  1  2  1  0  0  0  0
  2  3  1  0  0  0  0
  3  4  1  0  0  0  0
  4  5  1  0  0  0  0
  5  6  1  0  0  0  0
  6  7  1  0  0  0  0
  7  8  1  0  0  0  0
  8  9  2  0  0  0  0
  9 10  1  0  0  0  0
 10 11  2  0  0  0  0
 10 12  1  0  0  0  0
 12 13  1  0  0  0  0
 13 14  1  0  0  0  0
 14 15  2  0  0  0  0
 15 16  1  0  0  0  0
 16 17  2  0  0  0  0
 17 18  1  0  0  0  0
 18 19  2  0  0  0  0
 14 19  1  0  0  0  0
 17 20  1  0  0  0  0
 20 21  1  0  0  0  0
 16 22  1  0  0  0  0
 22 23  1  0  0  0  0
  1 24  1  0  0  0  0
  1 25  1  0  0  0  0
  1 26  1  0  0  0  0
  2 27  1  0  0  0  0
  2 28  1  0  0  0  0
  3 29  1  0  0  0  0
  3 30  1  0  0  0  0
  4 31  1  0  0  0  0
  4 32  1  0  0  0  0
  5 33  1  0  0  0  0
  5 34  1  0  0  0  0
  6 35  1  0  0  0  0
  6 36  1  0  0  0  0
  7 37  1  0  0  0  0
  7 38  1  0  0  0  0
  8 39  1  0  0  0  0
  9 40  1  0  0  0  0
 12 41  1  0  0  0  0
 12 42  1  0  0  0  0
 13 43  1  0  0  0  0
 13 44  1  0  0  0  0
 15 45  1  0  0  0  0
 18 46  1  0  0  0  0
 19 47  1  0  0  0  0
 21 48  1  0  0  0  0
 21 49  1  0  0  0  0
 21 50  1  0  0  0  0
 23 51  1  0  0  0  0
 23 52  1  0  0  0  0
 23 53  1  0  0  0  0
M  END
$$$$
