C14H18O
APtclcactv06291803023D 0   0.00000     0.00000
 
 33 33  0  0  0  0  0  0  0  0999 V2000
    6.1415   -1.2497    0.0128 C   0  0  0  0  0  0  0  0  0  0  0  0
    4.6532   -1.0258    0.0890 C   0  0  0  0  0  0  0  0  0  0  0  0
    4.1493    0.1736   -0.1672 C   0  0  0  0  0  0  0  0  0  0  0  0
    2.6899    0.3932   -0.0926 C   0  0  0  0  0  0  0  0  0  0  0  0
    2.1575    1.6550   -0.3619 C   0  0  0  0  0  0  0  0  0  0  0  0
    0.7954    1.8558   -0.2917 C   0  0  0  0  0  0  0  0  0  0  0  0
   -0.0466    0.8047    0.0465 C   0  0  0  0  0  0  0  0  0  0  0  0
    0.4792   -0.4520    0.3156 C   0  0  0  0  0  0  0  0  0  0  0  0
    1.8397   -0.6621    0.2418 C   0  0  0  0  0  0  0  0  0  0  0  0
   -1.3885    1.0064    0.1146 O   0  0  0  0  0  0  0  0  0  0  0  0
   -2.1965   -0.1179    0.4681 C   0  0  0  0  0  0  0  0  0  0  0  0
   -3.6461    0.2932    0.4933 C   0  0  0  0  0  0  0  0  0  0  0  0
   -4.5530   -0.4694   -0.0652 C   0  0  0  0  0  0  0  0  0  0  0  0
   -4.1468   -1.7578   -0.7330 C   0  0  0  0  0  0  0  0  0  0  0  0
   -6.0026   -0.0582   -0.0400 C   0  0  0  0  0  0  0  0  0  0  0  0
    6.6443   -0.5952    0.7249 H   0  0  0  0  0  0  0  0  0  0  0  0
    6.3654   -2.2889    0.2537 H   0  0  0  0  0  0  0  0  0  0  0  0
    6.4914   -1.0269   -0.9952 H   0  0  0  0  0  0  0  0  0  0  0  0
    3.9971   -1.8422    0.3522 H   0  0  0  0  0  0  0  0  0  0  0  0
    4.8054    0.9901   -0.4304 H   0  0  0  0  0  0  0  0  0  0  0  0
    2.8117    2.4731   -0.6246 H   0  0  0  0  0  0  0  0  0  0  0  0
    0.3827    2.8319   -0.4996 H   0  0  0  0  0  0  0  0  0  0  0  0
   -0.1788   -1.2669    0.5789 H   0  0  0  0  0  0  0  0  0  0  0  0
    2.2480   -1.6398    0.4513 H   0  0  0  0  0  0  0  0  0  0  0  0
   -2.0565   -0.9112   -0.2662 H   0  0  0  0  0  0  0  0  0  0  0  0
   -1.9042   -0.4798    1.4539 H   0  0  0  0  0  0  0  0  0  0  0  0
   -3.9372    1.2166    0.9719 H   0  0  0  0  0  0  0  0  0  0  0  0
   -3.6676   -2.4101   -0.0029 H   0  0  0  0  0  0  0  0  0  0  0  0
   -5.0303   -2.2520   -1.1370 H   0  0  0  0  0  0  0  0  0  0  0  0
   -3.4485   -1.5433   -1.5420 H   0  0  0  0  0  0  0  0  0  0  0  0
   -6.2256    0.5414   -0.9226 H   0  0  0  0  0  0  0  0  0  0  0  0
   -6.6326   -0.9477   -0.0364 H   0  0  0  0  0  0  0  0  0  0  0  0
   -6.1981    0.5292    0.8571 H   0  0  0  0  0  0  0  0  0  0  0  0
  1  2  1  0  0  0  0
  2  3  2  0  0  0  0
  3  4  1  0  0  0  0
  4  5  2  0  0  0  0
  5  6  1  0  0  0  0
  6  7  2  0  0  0  0
  7  8  1  0  0  0  0
  8  9  2  0  0  0  0
  4  9  1  0  0  0  0
  7 10  1  0  0  0  0
 10 11  1  0  0  0  0
 11 12  1  0  0  0  0
 12 13  2  0  0  0  0
 13 14  1  0  0  0  0
 13 15  1  0  0  0  0
  1 16  1  0  0  0  0
  1 17  1  0  0  0  0
  1 18  1  0  0  0  0
  2 19  1  0  0  0  0
  3 20  1  0  0  0  0
  5 21  1  0  0  0  0
  6 22  1  0  0  0  0
  8 23  1  0  0  0  0
  9 24  1  0  0  0  0
 11 25  1  0  0  0  0
 11 26  1  0  0  0  0
 12 27  1  0  0  0  0
 14 28  1  0  0  0  0
 14 29  1  0  0  0  0
 14 30  1  0  0  0  0
 15 31  1  0  0  0  0
 15 32  1  0  0  0  0
 15 33  1  0  0  0  0
M  END
$$$$
