C15H26O
APtclcactv06291803033D 0   0.00000     0.00000
 
 42 43  0  0  0  0  0  0  0  0999 V2000
    3.1855    2.7570   -0.1263 C   0  0  0  0  0  0  0  0  0  0  0  0
    2.3309    1.5161   -0.0963 C   0  0  0  0  0  0  0  0  0  0  0  0
    2.9022    0.3918    0.1932 C   0  0  0  0  0  0  0  0  0  0  0  0
    2.1794   -0.9182    0.2748 C   0  0  0  0  0  0  0  0  0  0  0  0
    0.8186   -0.8286   -0.4266 C   0  0  0  0  0  0  0  0  0  0  0  0
    0.0948    0.4267    0.0751 C   0  0  0  0  0  0  0  0  0  0  0  0
    0.8702    1.6604   -0.3978 C   0  0  0  0  0  0  0  0  0  0  0  0
   -1.3128    0.4878   -0.5249 C   0  0  0  0  0  0  0  0  0  0  0  0
   -2.1040   -0.7599   -0.1342 C   0  0  0  0  0  0  0  0  0  0  0  0
   -1.3852   -1.9972   -0.6784 C   0  0  0  0  0  0  0  0  0  0  0  0
    0.0095   -2.0754   -0.0585 C   0  0  0  0  0  0  0  0  0  0  0  0
    0.7287   -3.3201   -0.5824 C   0  0  0  0  0  0  0  0  0  0  0  0
   -0.1078   -2.1618    1.3630 O   0  0  0  0  0  0  0  0  0  0  0  0
   -2.0343    1.7310   -0.0008 C   0  0  0  0  0  0  0  0  0  0  0  0
   -3.3879    1.8681   -0.7009 C   0  0  0  0  0  0  0  0  0  0  0  0
   -2.2516    1.5967    1.5077 C   0  0  0  0  0  0  0  0  0  0  0  0
    4.2154    2.4948    0.1160 H   0  0  0  0  0  0  0  0  0  0  0  0
    3.1479    3.2000   -1.1215 H   0  0  0  0  0  0  0  0  0  0  0  0
    2.8113    3.4736    0.6048 H   0  0  0  0  0  0  0  0  0  0  0  0
    3.9646    0.3980    0.3876 H   0  0  0  0  0  0  0  0  0  0  0  0
    2.7806   -1.6908   -0.2047 H   0  0  0  0  0  0  0  0  0  0  0  0
    2.0275   -1.1802    1.3218 H   0  0  0  0  0  0  0  0  0  0  0  0
    0.9592   -0.7706   -1.5060 H   0  0  0  0  0  0  0  0  0  0  0  0
    0.0451    0.4176    1.1640 H   0  0  0  0  0  0  0  0  0  0  0  0
    0.4804    2.5448    0.1062 H   0  0  0  0  0  0  0  0  0  0  0  0
    0.7415    1.7749   -1.4741 H   0  0  0  0  0  0  0  0  0  0  0  0
   -1.2407    0.5447   -1.6110 H   0  0  0  0  0  0  0  0  0  0  0  0
   -2.1700   -0.8246    0.9519 H   0  0  0  0  0  0  0  0  0  0  0  0
   -3.1062   -0.7040   -0.5591 H   0  0  0  0  0  0  0  0  0  0  0  0
   -1.9508   -2.8918   -0.4178 H   0  0  0  0  0  0  0  0  0  0  0  0
   -1.2988   -1.9216   -1.7624 H   0  0  0  0  0  0  0  0  0  0  0  0
    0.8152   -3.2601   -1.6673 H   0  0  0  0  0  0  0  0  0  0  0  0
    1.7237   -3.3775   -0.1412 H   0  0  0  0  0  0  0  0  0  0  0  0
    0.1595   -4.2095   -0.3120 H   0  0  0  0  0  0  0  0  0  0  0  0
   -0.6015   -2.9342    1.6707 H   0  0  0  0  0  0  0  0  0  0  0  0
   -1.4293    2.6147   -0.2035 H   0  0  0  0  0  0  0  0  0  0  0  0
   -4.0273    1.0304   -0.4226 H   0  0  0  0  0  0  0  0  0  0  0  0
   -3.8606    2.8024   -0.3979 H   0  0  0  0  0  0  0  0  0  0  0  0
   -3.2400    1.8693   -1.7808 H   0  0  0  0  0  0  0  0  0  0  0  0
   -2.7657    2.4824    1.8810 H   0  0  0  0  0  0  0  0  0  0  0  0
   -2.8567    0.7130    1.7104 H   0  0  0  0  0  0  0  0  0  0  0  0
   -1.2873    1.4990    2.0064 H   0  0  0  0  0  0  0  0  0  0  0  0
  1  2  1  0  0  0  0
  2  3  2  0  0  0  0
  3  4  1  0  0  0  0
  4  5  1  0  0  0  0
  5  6  1  0  0  0  0
  6  7  1  0  0  0  0
  2  7  1  0  0  0  0
  6  8  1  0  0  0  0
  8  9  1  0  0  0  0
  9 10  1  0  0  0  0
 10 11  1  0  0  0  0
  5 11  1  0  0  0  0
 11 12  1  0  0  0  0
 11 13  1  0  0  0  0
  8 14  1  0  0  0  0
 14 15  1  0  0  0  0
 14 16  1  0  0  0  0
  1 17  1  0  0  0  0
  1 18  1  0  0  0  0
  1 19  1  0  0  0  0
  3 20  1  0  0  0  0
  4 21  1  0  0  0  0
  4 22  1  0  0  0  0
  5 23  1  0  0  0  0
  6 24  1  0  0  0  0
  7 25  1  0  0  0  0
  7 26  1  0  0  0  0
  8 27  1  0  0  0  0
  9 28  1  0  0  0  0
  9 29  1  0  0  0  0
 10 30  1  0  0  0  0
 10 31  1  0  0  0  0
 12 32  1  0  0  0  0
 12 33  1  0  0  0  0
 12 34  1  0  0  0  0
 13 35  1  0  0  0  0
 14 36  1  0  0  0  0
 15 37  1  0  0  0  0
 15 38  1  0  0  0  0
 15 39  1  0  0  0  0
 16 40  1  0  0  0  0
 16 41  1  0  0  0  0
 16 42  1  0  0  0  0
M  END
$$$$
