C29H48O
APtclcactv06291803023D 0   0.00000     0.00000
 
 78 81  0  0  0  0  0  0  0  0999 V2000
   -1.6912   -2.7350    0.7693 C   0  0  0  0  0  0  0  0  0  0  0  0
   -2.4828   -2.1035   -0.3777 C   0  0  0  0  0  0  0  0  0  0  0  0
   -3.8087   -1.6085    0.1399 C   0  0  0  0  0  0  0  0  0  0  0  0
   -3.9233   -0.3791    0.5777 C   0  0  0  0  0  0  0  0  0  0  0  0
   -2.7434    0.5562    0.5148 C   0  0  0  0  0  0  0  0  0  0  0  0
   -3.0834    1.7464   -0.3845 C   0  0  0  0  0  0  0  0  0  0  0  0
   -4.3864    2.3905    0.0929 C   0  0  0  0  0  0  0  0  0  0  0  0
   -1.9573    2.7700   -0.3194 C   0  0  0  0  0  0  0  0  0  0  0  0
   -1.7690    3.2695    1.1385 C   0  0  0  0  0  0  0  0  0  0  0  0
   -0.3890    2.7299    1.6116 C   0  0  0  0  0  0  0  0  0  0  0  0
   -0.1704    1.5415    0.6612 C   0  0  0  0  0  0  0  0  0  0  0  0
   -0.5944    2.1574   -0.6897 C   0  0  0  0  0  0  0  0  0  0  0  0
   -0.5861    1.0946   -1.7534 C   0  0  0  0  0  0  0  0  0  0  0  0
    0.7610    0.3616   -1.8060 C   0  0  0  0  0  0  0  0  0  0  0  0
    1.7748    0.8443   -0.7866 C   0  0  0  0  0  0  0  0  0  0  0  0
    1.1952    0.9338    0.6245 C   0  0  0  0  0  0  0  0  0  0  0  0
    2.2022    1.6955    1.4954 C   0  0  0  0  0  0  0  0  0  0  0  0
    3.5196    0.9735    1.4236 C   0  0  0  0  0  0  0  0  0  0  0  0
    3.8494    0.1811    0.4525 C   0  0  0  0  0  0  0  0  0  0  0  0
    2.9826   -0.1012   -0.7487 C   0  0  0  0  0  0  0  0  0  0  0  0
    2.5430   -1.5591   -0.6947 C   0  0  0  0  0  0  0  0  0  0  0  0
    3.5030   -2.3824    0.1603 C   0  0  0  0  0  0  0  0  0  0  0  0
    4.9582   -1.9692   -0.0167 C   0  0  0  0  0  0  0  0  0  0  0  0
    5.1821   -0.5461    0.5091 C   0  0  0  0  0  0  0  0  0  0  0  0
    5.7966   -2.8742    0.7128 O   0  0  0  0  0  0  0  0  0  0  0  0
    3.7963    0.1389   -2.0214 C   0  0  0  0  0  0  0  0  0  0  0  0
    0.2925    3.3406   -1.1000 C   0  0  0  0  0  0  0  0  0  0  0  0
   -5.0029   -2.5276    0.1537 C   0  0  0  0  0  0  0  0  0  0  0  0
   -5.3107   -2.9854   -1.2733 C   0  0  0  0  0  0  0  0  0  0  0  0
   -4.6977   -3.7471    1.0259 C   0  0  0  0  0  0  0  0  0  0  0  0
   -1.5225   -1.9905    1.5474 H   0  0  0  0  0  0  0  0  0  0  0  0
   -2.2550   -3.5712    1.1827 H   0  0  0  0  0  0  0  0  0  0  0  0
   -0.7322   -3.0930    0.3950 H   0  0  0  0  0  0  0  0  0  0  0  0
   -1.9190   -1.2672   -0.7910 H   0  0  0  0  0  0  0  0  0  0  0  0
   -2.6515   -2.8480   -1.1558 H   0  0  0  0  0  0  0  0  0  0  0  0
   -4.8634   -0.0359    0.9837 H   0  0  0  0  0  0  0  0  0  0  0  0
   -2.5092    0.9137    1.5175 H   0  0  0  0  0  0  0  0  0  0  0  0
   -1.8818    0.0273    0.1072 H   0  0  0  0  0  0  0  0  0  0  0  0
   -3.2031    1.4029   -1.4121 H   0  0  0  0  0  0  0  0  0  0  0  0
   -4.6582    3.2031   -0.5808 H   0  0  0  0  0  0  0  0  0  0  0  0
   -5.1800    1.6433    0.0997 H   0  0  0  0  0  0  0  0  0  0  0  0
   -4.2494    2.7841    1.1001 H   0  0  0  0  0  0  0  0  0  0  0  0
   -2.1657    3.6138   -0.9769 H   0  0  0  0  0  0  0  0  0  0  0  0
   -1.7714    4.3576    1.1619 H   0  0  0  0  0  0  0  0  0  0  0  0
   -2.5607    2.8734    1.7717 H   0  0  0  0  0  0  0  0  0  0  0  0
    0.3856    3.4794    1.5191 H   0  0  0  0  0  0  0  0  0  0  0  0
   -0.4593    2.3774    2.6439 H   0  0  0  0  0  0  0  0  0  0  0  0
   -0.8970    0.7516    0.9404 H   0  0  0  0  0  0  0  0  0  0  0  0
   -1.3706    0.3481   -1.5778 H   0  0  0  0  0  0  0  0  0  0  0  0
   -0.7830    1.5533   -2.7340 H   0  0  0  0  0  0  0  0  0  0  0  0
    0.5758   -0.7114   -1.6560 H   0  0  0  0  0  0  0  0  0  0  0  0
    1.1753    0.4738   -2.8177 H   0  0  0  0  0  0  0  0  0  0  0  0
    2.1849    1.8115   -1.0878 H   0  0  0  0  0  0  0  0  0  0  0  0
    1.1282   -0.0974    1.0313 H   0  0  0  0  0  0  0  0  0  0  0  0
    2.3222    2.7092    1.1201 H   0  0  0  0  0  0  0  0  0  0  0  0
    1.8533    1.7161    2.5259 H   0  0  0  0  0  0  0  0  0  0  0  0
    4.2267    1.1240    2.2242 H   0  0  0  0  0  0  0  0  0  0  0  0
    1.5413   -1.6225   -0.2653 H   0  0  0  0  0  0  0  0  0  0  0  0
    2.5205   -1.9684   -1.7065 H   0  0  0  0  0  0  0  0  0  0  0  0
    3.2254   -2.2715    1.2115 H   0  0  0  0  0  0  0  0  0  0  0  0
    3.3984   -3.4370   -0.1102 H   0  0  0  0  0  0  0  0  0  0  0  0
    5.2311   -2.0199   -1.0717 H   0  0  0  0  0  0  0  0  0  0  0  0
    5.9217   -0.0291   -0.1013 H   0  0  0  0  0  0  0  0  0  0  0  0
    5.5331   -0.5874    1.5438 H   0  0  0  0  0  0  0  0  0  0  0  0
    6.7406   -2.6749    0.6479 H   0  0  0  0  0  0  0  0  0  0  0  0
    4.6614   -0.5240   -2.0300 H   0  0  0  0  0  0  0  0  0  0  0  0
    3.1747   -0.0636   -2.8937 H   0  0  0  0  0  0  0  0  0  0  0  0
    4.1325    1.1754   -2.0476 H   0  0  0  0  0  0  0  0  0  0  0  0
    1.2989    2.9823   -1.3168 H   0  0  0  0  0  0  0  0  0  0  0  0
   -0.1233    3.8154   -1.9887 H   0  0  0  0  0  0  0  0  0  0  0  0
    0.3321    4.0646   -0.2861 H   0  0  0  0  0  0  0  0  0  0  0  0
   -5.8647   -1.9976    0.5591 H   0  0  0  0  0  0  0  0  0  0  0  0
   -5.5281   -2.1166   -1.8947 H   0  0  0  0  0  0  0  0  0  0  0  0
   -4.4489   -3.5155   -1.6787 H   0  0  0  0  0  0  0  0  0  0  0  0
   -6.1744   -3.6503   -1.2633 H   0  0  0  0  0  0  0  0  0  0  0  0
   -4.4784   -3.4210    2.0426 H   0  0  0  0  0  0  0  0  0  0  0  0
   -5.5614   -4.4119    1.0359 H   0  0  0  0  0  0  0  0  0  0  0  0
   -3.8358   -4.2772    0.6205 H   0  0  0  0  0  0  0  0  0  0  0  0
  1  2  1  0  0  0  0
  2  3  1  0  0  0  0
  3  4  2  0  0  0  0
  4  5  1  0  0  0  0
  5  6  1  0  0  0  0
  6  7  1  0  0  0  0
  6  8  1  0  0  0  0
  8  9  1  0  0  0  0
  9 10  1  0  0  0  0
 10 11  1  0  0  0  0
 11 12  1  0  0  0  0
  8 12  1  0  0  0  0
 12 13  1  0  0  0  0
 13 14  1  0  0  0  0
 14 15  1  0  0  0  0
 15 16  1  0  0  0  0
 11 16  1  0  0  0  0
 16 17  1  0  0  0  0
 17 18  1  0  0  0  0
 18 19  2  0  0  0  0
 19 20  1  0  0  0  0
 15 20  1  0  0  0  0
 20 21  1  0  0  0  0
 21 22  1  0  0  0  0
 22 23  1  0  0  0  0
 23 24  1  0  0  0  0
 19 24  1  0  0  0  0
 23 25  1  0  0  0  0
 20 26  1  0  0  0  0
 12 27  1  0  0  0  0
  3 28  1  0  0  0  0
 28 29  1  0  0  0  0
 28 30  1  0  0  0  0
  1 31  1  0  0  0  0
  1 32  1  0  0  0  0
  1 33  1  0  0  0  0
  2 34  1  0  0  0  0
  2 35  1  0  0  0  0
  4 36  1  0  0  0  0
  5 37  1  0  0  0  0
  5 38  1  0  0  0  0
  6 39  1  0  0  0  0
  7 40  1  0  0  0  0
  7 41  1  0  0  0  0
  7 42  1  0  0  0  0
  8 43  1  0  0  0  0
  9 44  1  0  0  0  0
  9 45  1  0  0  0  0
 10 46  1  0  0  0  0
 10 47  1  0  0  0  0
 11 48  1  0  0  0  0
 13 49  1  0  0  0  0
 13 50  1  0  0  0  0
 14 51  1  0  0  0  0
 14 52  1  0  0  0  0
 15 53  1  0  0  0  0
 16 54  1  0  0  0  0
 17 55  1  0  0  0  0
 17 56  1  0  0  0  0
 18 57  1  0  0  0  0
 21 58  1  0  0  0  0
 21 59  1  0  0  0  0
 22 60  1  0  0  0  0
 22 61  1  0  0  0  0
 23 62  1  0  0  0  0
 24 63  1  0  0  0  0
 24 64  1  0  0  0  0
 25 65  1  0  0  0  0
 26 66  1  0  0  0  0
 26 67  1  0  0  0  0
 26 68  1  0  0  0  0
 27 69  1  0  0  0  0
 27 70  1  0  0  0  0
 27 71  1  0  0  0  0
 28 72  1  0  0  0  0
 29 73  1  0  0  0  0
 29 74  1  0  0  0  0
 29 75  1  0  0  0  0
 30 76  1  0  0  0  0
 30 77  1  0  0  0  0
 30 78  1  0  0  0  0
M  END
$$$$
