C30H32O10
APtclcactv06291803033D 0   0.00000     0.00000
 
 72 75  0  0  0  0  0  0  0  0999 V2000
   -0.3231    5.9304    1.2454 C   0  0  0  0  0  0  0  0  0  0  0  0
   -1.4760    5.2161    0.7950 O   0  0  0  0  0  0  0  0  0  0  0  0
   -1.2765    3.9562    0.3236 C   0  0  0  0  0  0  0  0  0  0  0  0
    0.0003    3.4197    0.2952 C   0  0  0  0  0  0  0  0  0  0  0  0
    0.2014    2.1385   -0.1846 C   0  0  0  0  0  0  0  0  0  0  0  0
   -0.8693    1.3907   -0.6370 C   0  0  0  0  0  0  0  0  0  0  0  0
   -2.1464    1.9203   -0.6114 C   0  0  0  0  0  0  0  0  0  0  0  0
   -2.3556    3.2008   -0.1263 C   0  0  0  0  0  0  0  0  0  0  0  0
   -3.6110    3.7231   -0.1004 O   0  0  0  0  0  0  0  0  0  0  0  0
   -3.3115    1.1020   -1.1055 C   0  0  0  0  0  0  0  0  0  0  0  0
   -3.0919    0.7374   -2.5751 C   0  0  0  0  0  0  0  0  0  0  0  0
   -4.2474    0.0624   -3.0762 O   0  0  0  0  0  0  0  0  0  0  0  0
   -3.4235   -0.1582   -0.2866 C   0  0  0  0  0  0  0  0  0  0  0  0
   -2.4448   -0.6077    0.2715 O   0  0  0  0  0  0  0  0  0  0  0  0
   -4.7174   -0.8419   -0.1644 C   0  0  0  0  0  0  0  0  0  0  0  0
   -4.8238   -2.0130    0.5961 C   0  0  0  0  0  0  0  0  0  0  0  0
   -6.0427   -2.6511    0.7071 C   0  0  0  0  0  0  0  0  0  0  0  0
   -7.1646   -2.1298    0.0627 C   0  0  0  0  0  0  0  0  0  0  0  0
   -7.0599   -0.9683   -0.6922 C   0  0  0  0  0  0  0  0  0  0  0  0
   -5.8495   -0.3216   -0.8030 C   0  0  0  0  0  0  0  0  0  0  0  0
   -8.3621   -2.7595    0.1732 O   0  0  0  0  0  0  0  0  0  0  0  0
   -6.1498   -3.7887    1.4447 O   0  0  0  0  0  0  0  0  0  0  0  0
   -4.9605   -4.2664    2.0768 C   0  0  0  0  0  0  0  0  0  0  0  0
    1.5911    1.5564   -0.2147 C   0  0  0  0  0  0  0  0  0  0  0  0
    1.8693    0.8318    1.1038 C   0  0  0  0  0  0  0  0  0  0  0  0
    0.9613   -0.4104    1.2515 C   0  0  0  0  0  0  0  0  0  0  0  0
    1.7393   -1.5003    0.6738 O   0  0  0  0  0  0  0  0  0  0  0  0
    3.0482   -1.2704    0.8503 C   0  0  0  0  0  0  0  0  0  0  0  0
    3.9127   -2.1138    0.8149 O   0  0  0  0  0  0  0  0  0  0  0  0
    3.2809    0.2040    1.0996 C   0  0  0  0  0  0  0  0  0  0  0  0
    4.1283    0.8066   -0.0227 C   0  0  0  0  0  0  0  0  0  0  0  0
    5.5133    0.2141    0.0201 C   0  0  0  0  0  0  0  0  0  0  0  0
    5.7949   -0.9338   -0.6970 C   0  0  0  0  0  0  0  0  0  0  0  0
    7.0678   -1.4798   -0.6587 C   0  0  0  0  0  0  0  0  0  0  0  0
    8.0604   -0.8703    0.1027 C   0  0  0  0  0  0  0  0  0  0  0  0
    7.7715    0.2800    0.8191 C   0  0  0  0  0  0  0  0  0  0  0  0
    6.5010    0.8228    0.7720 C   0  0  0  0  0  0  0  0  0  0  0  0
    9.3111   -1.4027    0.1438 O   0  0  0  0  0  0  0  0  0  0  0  0
    7.3463   -2.6092   -1.3632 O   0  0  0  0  0  0  0  0  0  0  0  0
    6.2786   -3.1804   -2.1219 C   0  0  0  0  0  0  0  0  0  0  0  0
   -0.6216    6.9188    1.5948 H   0  0  0  0  0  0  0  0  0  0  0  0
    0.1472    5.3830    2.0623 H   0  0  0  0  0  0  0  0  0  0  0  0
    0.3844    6.0341    0.4227 H   0  0  0  0  0  0  0  0  0  0  0  0
    0.8388    4.0023    0.6474 H   0  0  0  0  0  0  0  0  0  0  0  0
   -0.7081    0.3907   -1.0116 H   0  0  0  0  0  0  0  0  0  0  0  0
   -4.0935    3.5471    0.7189 H   0  0  0  0  0  0  0  0  0  0  0  0
   -4.2297    1.6813   -1.0081 H   0  0  0  0  0  0  0  0  0  0  0  0
   -2.9224    1.6457   -3.1533 H   0  0  0  0  0  0  0  0  0  0  0  0
   -2.2235    0.0843   -2.6616 H   0  0  0  0  0  0  0  0  0  0  0  0
   -4.1784   -0.1992   -4.0046 H   0  0  0  0  0  0  0  0  0  0  0  0
   -3.9543   -2.4161    1.0940 H   0  0  0  0  0  0  0  0  0  0  0  0
   -7.9315   -0.5689   -1.1895 H   0  0  0  0  0  0  0  0  0  0  0  0
   -5.7713    0.5814   -1.3903 H   0  0  0  0  0  0  0  0  0  0  0  0
   -8.8964   -2.4599    0.9214 H   0  0  0  0  0  0  0  0  0  0  0  0
   -4.2064   -4.4786    1.3190 H   0  0  0  0  0  0  0  0  0  0  0  0
   -4.5833   -3.5074    2.7622 H   0  0  0  0  0  0  0  0  0  0  0  0
   -5.1848   -5.1775    2.6315 H   0  0  0  0  0  0  0  0  0  0  0  0
    1.6716    0.8505   -1.0413 H   0  0  0  0  0  0  0  0  0  0  0  0
    2.3178    2.3577   -0.3492 H   0  0  0  0  0  0  0  0  0  0  0  0
    1.7438    1.5072    1.9500 H   0  0  0  0  0  0  0  0  0  0  0  0
    0.7533   -0.6070    2.3032 H   0  0  0  0  0  0  0  0  0  0  0  0
    0.0325   -0.2710    0.6984 H   0  0  0  0  0  0  0  0  0  0  0  0
    3.7656    0.3538    2.0643 H   0  0  0  0  0  0  0  0  0  0  0  0
    3.6677    0.5843   -0.9853 H   0  0  0  0  0  0  0  0  0  0  0  0
    4.1910    1.8868    0.1093 H   0  0  0  0  0  0  0  0  0  0  0  0
    5.0226   -1.4051   -1.2868 H   0  0  0  0  0  0  0  0  0  0  0  0
    8.5401    0.7550    1.4108 H   0  0  0  0  0  0  0  0  0  0  0  0
    6.2771    1.7195    1.3309 H   0  0  0  0  0  0  0  0  0  0  0  0
    9.9050   -1.0651   -0.5405 H   0  0  0  0  0  0  0  0  0  0  0  0
    5.4598   -3.4467   -1.4535 H   0  0  0  0  0  0  0  0  0  0  0  0
    5.9270   -2.4562   -2.8567 H   0  0  0  0  0  0  0  0  0  0  0  0
    6.6346   -4.0742   -2.6343 H   0  0  0  0  0  0  0  0  0  0  0  0
  1  2  1  0  0  0  0
  2  3  1  0  0  0  0
  3  4  2  0  0  0  0
  4  5  1  0  0  0  0
  5  6  2  0  0  0  0
  6  7  1  0  0  0  0
  7  8  2  0  0  0  0
  3  8  1  0  0  0  0
  8  9  1  0  0  0  0
  7 10  1  0  0  0  0
 10 11  1  0  0  0  0
 11 12  1  0  0  0  0
 10 13  1  0  0  0  0
 13 14  2  0  0  0  0
 13 15  1  0  0  0  0
 15 16  2  0  0  0  0
 16 17  1  0  0  0  0
 17 18  2  0  0  0  0
 18 19  1  0  0  0  0
 19 20  2  0  0  0  0
 15 20  1  0  0  0  0
 18 21  1  0  0  0  0
 17 22  1  0  0  0  0
 22 23  1  0  0  0  0
  5 24  1  0  0  0  0
 24 25  1  0  0  0  0
 25 26  1  0  0  0  0
 26 27  1  0  0  0  0
 27 28  1  0  0  0  0
 28 29  2  0  0  0  0
 28 30  1  0  0  0  0
 25 30  1  0  0  0  0
 30 31  1  0  0  0  0
 31 32  1  0  0  0  0
 32 33  2  0  0  0  0
 33 34  1  0  0  0  0
 34 35  2  0  0  0  0
 35 36  1  0  0  0  0
 36 37  2  0  0  0  0
 32 37  1  0  0  0  0
 35 38  1  0  0  0  0
 34 39  1  0  0  0  0
 39 40  1  0  0  0  0
  1 41  1  0  0  0  0
  1 42  1  0  0  0  0
  1 43  1  0  0  0  0
  4 44  1  0  0  0  0
  6 45  1  0  0  0  0
  9 46  1  0  0  0  0
 10 47  1  0  0  0  0
 11 48  1  0  0  0  0
 11 49  1  0  0  0  0
 12 50  1  0  0  0  0
 16 51  1  0  0  0  0
 19 52  1  0  0  0  0
 20 53  1  0  0  0  0
 21 54  1  0  0  0  0
 23 55  1  0  0  0  0
 23 56  1  0  0  0  0
 23 57  1  0  0  0  0
 24 58  1  0  0  0  0
 24 59  1  0  0  0  0
 25 60  1  0  0  0  0
 26 61  1  0  0  0  0
 26 62  1  0  0  0  0
 30 63  1  0  0  0  0
 31 64  1  0  0  0  0
 31 65  1  0  0  0  0
 33 66  1  0  0  0  0
 36 67  1  0  0  0  0
 37 68  1  0  0  0  0
 38 69  1  0  0  0  0
 40 70  1  0  0  0  0
 40 71  1  0  0  0  0
 40 72  1  0  0  0  0
M  END
$$$$
