C30H32O10
APtclcactv06291803033D 0   0.00000     0.00000
 
 72 75  0  0  0  0  0  0  0  0999 V2000
   -0.7522    5.9527    1.0240 C   0  0  0  0  0  0  0  0  0  0  0  0
   -1.8722    5.1163    0.7271 O   0  0  0  0  0  0  0  0  0  0  0  0
   -1.6090    3.9155    0.1455 C   0  0  0  0  0  0  0  0  0  0  0  0
   -0.3020    3.5507   -0.1331 C   0  0  0  0  0  0  0  0  0  0  0  0
   -0.0362    2.3293   -0.7245 C   0  0  0  0  0  0  0  0  0  0  0  0
   -1.0722    1.4705   -1.0394 C   0  0  0  0  0  0  0  0  0  0  0  0
   -2.3792    1.8285   -0.7640 C   0  0  0  0  0  0  0  0  0  0  0  0
   -2.6519    3.0479   -0.1660 C   0  0  0  0  0  0  0  0  0  0  0  0
   -3.9367    3.4015    0.1055 O   0  0  0  0  0  0  0  0  0  0  0  0
   -3.5063    0.8895   -1.1088 C   0  0  0  0  0  0  0  0  0  0  0  0
   -3.5056    0.6234   -2.6155 C   0  0  0  0  0  0  0  0  0  0  0  0
   -4.6418   -0.1722   -2.9592 O   0  0  0  0  0  0  0  0  0  0  0  0
   -3.3213   -0.4104   -0.3691 C   0  0  0  0  0  0  0  0  0  0  0  0
   -2.2134   -0.7542   -0.0149 O   0  0  0  0  0  0  0  0  0  0  0  0
   -4.4825   -1.2607   -0.0770 C   0  0  0  0  0  0  0  0  0  0  0  0
   -4.3129   -2.4690    0.6103 C   0  0  0  0  0  0  0  0  0  0  0  0
   -5.4082   -3.2639    0.8818 C   0  0  0  0  0  0  0  0  0  0  0  0
   -6.6799   -2.8636    0.4716 C   0  0  0  0  0  0  0  0  0  0  0  0
   -6.8490   -1.6654   -0.2106 C   0  0  0  0  0  0  0  0  0  0  0  0
   -5.7631   -0.8630   -0.4798 C   0  0  0  0  0  0  0  0  0  0  0  0
   -7.7553   -3.6474    0.7395 O   0  0  0  0  0  0  0  0  0  0  0  0
   -5.2474   -4.4380    1.5491 O   0  0  0  0  0  0  0  0  0  0  0  0
   -3.9173   -4.7858    1.9388 C   0  0  0  0  0  0  0  0  0  0  0  0
    1.3863    1.9341   -1.0268 C   0  0  0  0  0  0  0  0  0  0  0  0
    1.9759    1.1926    0.1746 C   0  0  0  0  0  0  0  0  0  0  0  0
    3.3903    0.6680   -0.1575 C   0  0  0  0  0  0  0  0  0  0  0  0
    4.2833    1.4016    0.8659 C   0  0  0  0  0  0  0  0  0  0  0  0
    3.4759    2.5212    1.3401 O   0  0  0  0  0  0  0  0  0  0  0  0
    2.1837    2.1459    1.3337 C   0  0  0  0  0  0  0  0  0  0  0  0
    1.3365    2.5066    2.1160 O   0  0  0  0  0  0  0  0  0  0  0  0
    3.4670   -0.8465    0.0456 C   0  0  0  0  0  0  0  0  0  0  0  0
    4.8167   -1.3457   -0.4018 C   0  0  0  0  0  0  0  0  0  0  0  0
    5.8637   -1.4042    0.4991 C   0  0  0  0  0  0  0  0  0  0  0  0
    7.1053   -1.8629    0.0893 C   0  0  0  0  0  0  0  0  0  0  0  0
    7.2950   -2.2639   -1.2296 C   0  0  0  0  0  0  0  0  0  0  0  0
    6.2413   -2.2028   -2.1274 C   0  0  0  0  0  0  0  0  0  0  0  0
    5.0036   -1.7494   -1.7108 C   0  0  0  0  0  0  0  0  0  0  0  0
    8.5119   -2.7145   -1.6366 O   0  0  0  0  0  0  0  0  0  0  0  0
    8.1364   -1.9207    0.9742 O   0  0  0  0  0  0  0  0  0  0  0  0
    7.8689   -1.4925    2.3110 C   0  0  0  0  0  0  0  0  0  0  0  0
   -1.1010    6.8773    1.4840 H   0  0  0  0  0  0  0  0  0  0  0  0
   -0.0839    5.4344    1.7116 H   0  0  0  0  0  0  0  0  0  0  0  0
   -0.2174    6.1843    0.1029 H   0  0  0  0  0  0  0  0  0  0  0  0
    0.5093    4.2203    0.1114 H   0  0  0  0  0  0  0  0  0  0  0  0
   -0.8606    0.5177   -1.5019 H   0  0  0  0  0  0  0  0  0  0  0  0
   -4.2435    3.1276    0.9807 H   0  0  0  0  0  0  0  0  0  0  0  0
   -4.4559    1.3400   -0.8199 H   0  0  0  0  0  0  0  0  0  0  0  0
   -3.5501    1.5712   -3.1519 H   0  0  0  0  0  0  0  0  0  0  0  0
   -2.5940    0.0928   -2.8903 H   0  0  0  0  0  0  0  0  0  0  0  0
   -4.7058   -0.3803   -3.9014 H   0  0  0  0  0  0  0  0  0  0  0  0
   -3.3277   -2.7783    0.9268 H   0  0  0  0  0  0  0  0  0  0  0  0
   -7.8357   -1.3601   -0.5264 H   0  0  0  0  0  0  0  0  0  0  0  0
   -5.8976    0.0681   -1.0101 H   0  0  0  0  0  0  0  0  0  0  0  0
   -8.1823   -3.4538    1.5853 H   0  0  0  0  0  0  0  0  0  0  0  0
   -3.2877   -4.8641    1.0524 H   0  0  0  0  0  0  0  0  0  0  0  0
   -3.5194   -4.0162    2.6002 H   0  0  0  0  0  0  0  0  0  0  0  0
   -3.9301   -5.7425    2.4609 H   0  0  0  0  0  0  0  0  0  0  0  0
    1.4046    1.2827   -1.9006 H   0  0  0  0  0  0  0  0  0  0  0  0
    1.9769    2.8280   -1.2277 H   0  0  0  0  0  0  0  0  0  0  0  0
    1.3248    0.3696    0.4691 H   0  0  0  0  0  0  0  0  0  0  0  0
    3.6714    0.9360   -1.1760 H   0  0  0  0  0  0  0  0  0  0  0  0
    4.5339    0.7383    1.6938 H   0  0  0  0  0  0  0  0  0  0  0  0
    5.1904    1.7664    0.3840 H   0  0  0  0  0  0  0  0  0  0  0  0
    3.3250   -1.0792    1.1009 H   0  0  0  0  0  0  0  0  0  0  0  0
    2.6872   -1.3317   -0.5416 H   0  0  0  0  0  0  0  0  0  0  0  0
    5.7139   -1.0920    1.5221 H   0  0  0  0  0  0  0  0  0  0  0  0
    6.3859   -2.5134   -3.1517 H   0  0  0  0  0  0  0  0  0  0  0  0
    4.1832   -1.7022   -2.4115 H   0  0  0  0  0  0  0  0  0  0  0  0
    8.6313   -3.6689   -1.5372 H   0  0  0  0  0  0  0  0  0  0  0  0
    7.5491   -0.4505    2.3016 H   0  0  0  0  0  0  0  0  0  0  0  0
    7.0802   -2.1108    2.7396 H   0  0  0  0  0  0  0  0  0  0  0  0
    8.7734   -1.5895    2.9115 H   0  0  0  0  0  0  0  0  0  0  0  0
  1  2  1  0  0  0  0
  2  3  1  0  0  0  0
  3  4  2  0  0  0  0
  4  5  1  0  0  0  0
  5  6  2  0  0  0  0
  6  7  1  0  0  0  0
  7  8  2  0  0  0  0
  3  8  1  0  0  0  0
  8  9  1  0  0  0  0
  7 10  1  0  0  0  0
 10 11  1  0  0  0  0
 11 12  1  0  0  0  0
 10 13  1  0  0  0  0
 13 14  2  0  0  0  0
 13 15  1  0  0  0  0
 15 16  2  0  0  0  0
 16 17  1  0  0  0  0
 17 18  2  0  0  0  0
 18 19  1  0  0  0  0
 19 20  2  0  0  0  0
 15 20  1  0  0  0  0
 18 21  1  0  0  0  0
 17 22  1  0  0  0  0
 22 23  1  0  0  0  0
  5 24  1  0  0  0  0
 24 25  1  0  0  0  0
 25 26  1  0  0  0  0
 26 27  1  0  0  0  0
 27 28  1  0  0  0  0
 28 29  1  0  0  0  0
 25 29  1  0  0  0  0
 29 30  2  0  0  0  0
 26 31  1  0  0  0  0
 31 32  1  0  0  0  0
 32 33  2  0  0  0  0
 33 34  1  0  0  0  0
 34 35  2  0  0  0  0
 35 36  1  0  0  0  0
 36 37  2  0  0  0  0
 32 37  1  0  0  0  0
 35 38  1  0  0  0  0
 34 39  1  0  0  0  0
 39 40  1  0  0  0  0
  1 41  1  0  0  0  0
  1 42  1  0  0  0  0
  1 43  1  0  0  0  0
  4 44  1  0  0  0  0
  6 45  1  0  0  0  0
  9 46  1  0  0  0  0
 10 47  1  0  0  0  0
 11 48  1  0  0  0  0
 11 49  1  0  0  0  0
 12 50  1  0  0  0  0
 16 51  1  0  0  0  0
 19 52  1  0  0  0  0
 20 53  1  0  0  0  0
 21 54  1  0  0  0  0
 23 55  1  0  0  0  0
 23 56  1  0  0  0  0
 23 57  1  0  0  0  0
 24 58  1  0  0  0  0
 24 59  1  0  0  0  0
 25 60  1  0  0  0  0
 26 61  1  0  0  0  0
 27 62  1  0  0  0  0
 27 63  1  0  0  0  0
 31 64  1  0  0  0  0
 31 65  1  0  0  0  0
 33 66  1  0  0  0  0
 36 67  1  0  0  0  0
 37 68  1  0  0  0  0
 38 69  1  0  0  0  0
 40 70  1  0  0  0  0
 40 71  1  0  0  0  0
 40 72  1  0  0  0  0
M  END
$$$$
