C19H24O5
APtclcactv06211806303D 0   0.00000     0.00000
 
 48 52  0  0  0  0  0  0  0  0999 V2000
    2.7713    1.6544   -0.5820 C   0  0  0  0  0  0  0  0  0  0  0  0
    2.2045    0.2922   -0.1768 C   0  0  0  0  0  0  0  0  0  0  0  0
    3.2239   -0.8591   -0.3176 C   0  0  0  0  0  0  0  0  0  0  0  0
    2.6818   -2.1372    0.3202 C   0  0  0  0  0  0  0  0  0  0  0  0
    1.2697   -2.4630   -0.1946 C   0  0  0  0  0  0  0  0  0  0  0  0
    0.4224   -1.2204   -0.0177 C   0  0  0  0  0  0  0  0  0  0  0  0
    0.9846   -0.1430   -1.0215 C   0  0  0  0  0  0  0  0  0  0  0  0
   -0.1265    0.9240   -1.0446 C   0  0  0  0  0  0  0  0  0  0  0  0
   -1.3926    0.2139   -0.5830 C   0  0  0  0  0  0  0  0  0  0  0  0
   -1.0275   -1.2706   -0.4110 C   0  0  0  0  0  0  0  0  0  0  0  0
   -1.9880   -2.0914    0.3612 C   0  0  0  0  0  0  0  0  0  0  0  0
   -2.9515   -1.3811    1.2848 C   0  0  0  0  0  0  0  0  0  0  0  0
   -3.2440    0.0581    0.8702 C   0  0  0  0  0  0  0  0  0  0  0  0
   -1.8632    0.7678    0.7805 C   0  0  0  0  0  0  0  0  0  0  0  0
   -3.7980    0.1172   -0.5411 C   0  0  0  0  0  0  0  0  0  0  0  0
   -5.0571    0.0095   -0.8865 C   0  0  0  0  0  0  0  0  0  0  0  0
   -2.6164    0.3253   -1.4829 C   0  0  0  0  0  0  0  0  0  0  0  0
    0.2127    2.0486   -0.1004 C   0  0  0  0  0  0  0  0  0  0  0  0
    0.1473    1.8754    1.0936 O   0  0  0  0  0  0  0  0  0  0  0  0
    0.5874    3.2426   -0.5859 O   0  0  0  0  0  0  0  0  0  0  0  0
    0.6399   -0.6254    1.2885 O   0  0  0  0  0  0  0  0  0  0  0  0
    1.6858    0.2554    1.2535 C   0  0  0  0  0  0  0  0  0  0  0  0
    2.1085    0.8840    2.1949 O   0  0  0  0  0  0  0  0  0  0  0  0
    3.4791   -1.0958   -1.7036 O   0  0  0  0  0  0  0  0  0  0  0  0
    2.6639    1.7869   -1.6586 H   0  0  0  0  0  0  0  0  0  0  0  0
    2.2272    2.4433   -0.0628 H   0  0  0  0  0  0  0  0  0  0  0  0
    3.8265    1.7033   -0.3133 H   0  0  0  0  0  0  0  0  0  0  0  0
    4.1543   -0.5779    0.1756 H   0  0  0  0  0  0  0  0  0  0  0  0
    3.3487   -2.9657    0.0817 H   0  0  0  0  0  0  0  0  0  0  0  0
    2.6465   -2.0089    1.4021 H   0  0  0  0  0  0  0  0  0  0  0  0
    1.3137   -2.7339   -1.2495 H   0  0  0  0  0  0  0  0  0  0  0  0
    0.8460   -3.2851    0.3822 H   0  0  0  0  0  0  0  0  0  0  0  0
    1.2480   -0.5375   -2.0028 H   0  0  0  0  0  0  0  0  0  0  0  0
   -0.2582    1.3081   -2.0562 H   0  0  0  0  0  0  0  0  0  0  0  0
   -1.0407   -1.6854   -1.4189 H   0  0  0  0  0  0  0  0  0  0  0  0
   -2.5767   -2.6702   -0.3505 H   0  0  0  0  0  0  0  0  0  0  0  0
   -1.4137   -2.7976    0.9608 H   0  0  0  0  0  0  0  0  0  0  0  0
   -3.8895   -1.9360    1.3044 H   0  0  0  0  0  0  0  0  0  0  0  0
   -2.5313   -1.3759    2.2905 H   0  0  0  0  0  0  0  0  0  0  0  0
   -3.8997    0.5514    1.5876 H   0  0  0  0  0  0  0  0  0  0  0  0
   -1.2009    0.4558    1.5881 H   0  0  0  0  0  0  0  0  0  0  0  0
   -1.9727    1.8520    0.7545 H   0  0  0  0  0  0  0  0  0  0  0  0
   -5.8139   -0.1367   -0.1301 H   0  0  0  0  0  0  0  0  0  0  0  0
   -5.3382    0.0670   -1.9277 H   0  0  0  0  0  0  0  0  0  0  0  0
   -2.6637    1.3132   -1.9411 H   0  0  0  0  0  0  0  0  0  0  0  0
   -2.5982   -0.4503   -2.2485 H   0  0  0  0  0  0  0  0  0  0  0  0
    0.8632    3.9107    0.0564 H   0  0  0  0  0  0  0  0  0  0  0  0
    4.1119   -1.8075   -1.8711 H   0  0  0  0  0  0  0  0  0  0  0  0
  1  2  1  0  0  0  0
  2  3  1  0  0  0  0
  3  4  1  0  0  0  0
  4  5  1  0  0  0  0
  5  6  1  0  0  0  0
  6  7  1  0  0  0  0
  2  7  1  0  0  0  0
  7  8  1  0  0  0  0
  8  9  1  0  0  0  0
  9 10  1  0  0  0  0
  6 10  1  0  0  0  0
 10 11  1  0  0  0  0
 11 12  1  0  0  0  0
 12 13  1  0  0  0  0
 13 14  1  0  0  0  0
  9 14  1  0  0  0  0
 13 15  1  0  0  0  0
 15 16  2  0  0  0  0
 15 17  1  0  0  0  0
  9 17  1  0  0  0  0
  8 18  1  0  0  0  0
 18 19  2  0  0  0  0
 18 20  1  0  0  0  0
  6 21  1  0  0  0  0
 21 22  1  0  0  0  0
  2 22  1  0  0  0  0
 22 23  2  0  0  0  0
  3 24  1  0  0  0  0
  1 25  1  0  0  0  0
  1 26  1  0  0  0  0
  1 27  1  0  0  0  0
  3 28  1  0  0  0  0
  4 29  1  0  0  0  0
  4 30  1  0  0  0  0
  5 31  1  0  0  0  0
  5 32  1  0  0  0  0
  7 33  1  0  0  0  0
  8 34  1  0  0  0  0
 10 35  1  0  0  0  0
 11 36  1  0  0  0  0
 11 37  1  0  0  0  0
 12 38  1  0  0  0  0
 12 39  1  0  0  0  0
 13 40  1  0  0  0  0
 14 41  1  0  0  0  0
 14 42  1  0  0  0  0
 16 43  1  0  0  0  0
 16 44  1  0  0  0  0
 17 45  1  0  0  0  0
 17 46  1  0  0  0  0
 20 47  1  0  0  0  0
 24 48  1  0  0  0  0
M  END
$$$$
