C20H34O
APtclcactv06211806303D 0   0.00000     0.00000
 
 55 56  0  0  0  0  0  0  0  0999 V2000
    4.3356   -0.2245    0.4204 C   0  0  0  0  0  0  0  0  0  0  0  0
    3.1129    0.5988    0.8222 C   0  0  0  0  0  0  0  0  0  0  0  0
    3.1651    1.9680    0.1469 C   0  0  0  0  0  0  0  0  0  0  0  0
    2.7866    1.8839   -1.3275 C   0  0  0  0  0  0  0  0  0  0  0  0
    1.3688    1.3192   -1.4471 C   0  0  0  0  0  0  0  0  0  0  0  0
    1.3352   -0.1037   -0.8886 C   0  0  0  0  0  0  0  0  0  0  0  0
    1.8067   -0.1275    0.5549 C   0  0  0  0  0  0  0  0  0  0  0  0
    1.8445   -1.5584    1.0946 C   0  0  0  0  0  0  0  0  0  0  0  0
    0.4184   -2.1280    1.0968 C   0  0  0  0  0  0  0  0  0  0  0  0
   -0.1525   -1.9976   -0.2969 C   0  0  0  0  0  0  0  0  0  0  0  0
   -0.6874   -3.0322   -0.9006 C   0  0  0  0  0  0  0  0  0  0  0  0
   -0.1006   -0.6485   -0.9789 C   0  0  0  0  0  0  0  0  0  0  0  0
   -1.1093    0.2945   -0.3330 C   0  0  0  0  0  0  0  0  0  0  0  0
   -2.5263   -0.2265   -0.5814 C   0  0  0  0  0  0  0  0  0  0  0  0
   -3.5387    0.7199    0.0668 C   0  0  0  0  0  0  0  0  0  0  0  0
   -3.3945    2.1159   -0.5426 C   0  0  0  0  0  0  0  0  0  0  0  0
   -4.9343    0.2067   -0.1778 C   0  0  0  0  0  0  0  0  0  0  0  0
   -5.7075   -0.0967    0.8352 C   0  0  0  0  0  0  0  0  0  0  0  0
   -3.2954    0.7868    1.4734 O   0  0  0  0  0  0  0  0  0  0  0  0
    2.2044   -1.0005   -1.7845 C   0  0  0  0  0  0  0  0  0  0  0  0
    3.2159    0.8561    2.3448 C   0  0  0  0  0  0  0  0  0  0  0  0
    5.2345    0.2363    0.8300 H   0  0  0  0  0  0  0  0  0  0  0  0
    4.2361   -1.2372    0.8111 H   0  0  0  0  0  0  0  0  0  0  0  0
    4.4085   -0.2599   -0.6666 H   0  0  0  0  0  0  0  0  0  0  0  0
    2.4756    2.6453    0.6603 H   0  0  0  0  0  0  0  0  0  0  0  0
    4.1772    2.3736    0.2393 H   0  0  0  0  0  0  0  0  0  0  0  0
    2.7930    2.8957   -1.7537 H   0  0  0  0  0  0  0  0  0  0  0  0
    3.4969    1.2786   -1.8778 H   0  0  0  0  0  0  0  0  0  0  0  0
    0.7001    1.9717   -0.8872 H   0  0  0  0  0  0  0  0  0  0  0  0
    1.0738    1.3075   -2.4963 H   0  0  0  0  0  0  0  0  0  0  0  0
    1.0357    0.4049    1.1617 H   0  0  0  0  0  0  0  0  0  0  0  0
    2.4832   -2.1978    0.4950 H   0  0  0  0  0  0  0  0  0  0  0  0
    2.2106   -1.5623    2.1241 H   0  0  0  0  0  0  0  0  0  0  0  0
    0.4491   -3.1788    1.3856 H   0  0  0  0  0  0  0  0  0  0  0  0
   -0.1942   -1.5717    1.8050 H   0  0  0  0  0  0  0  0  0  0  0  0
   -0.7232   -3.9895   -0.4019 H   0  0  0  0  0  0  0  0  0  0  0  0
   -1.0920   -2.9266   -1.8964 H   0  0  0  0  0  0  0  0  0  0  0  0
   -0.3562   -0.7793   -2.0363 H   0  0  0  0  0  0  0  0  0  0  0  0
   -0.9238    0.3455    0.7399 H   0  0  0  0  0  0  0  0  0  0  0  0
   -1.0066    1.2891   -0.7672 H   0  0  0  0  0  0  0  0  0  0  0  0
   -2.7118   -0.2775   -1.6543 H   0  0  0  0  0  0  0  0  0  0  0  0
   -2.6290   -1.2210   -0.1472 H   0  0  0  0  0  0  0  0  0  0  0  0
   -3.5800    2.0649   -1.6155 H   0  0  0  0  0  0  0  0  0  0  0  0
   -4.1157    2.7902   -0.0808 H   0  0  0  0  0  0  0  0  0  0  0  0
   -2.3851    2.4871   -0.3656 H   0  0  0  0  0  0  0  0  0  0  0  0
   -5.2970    0.0890   -1.1883 H   0  0  0  0  0  0  0  0  0  0  0  0
   -5.3449    0.0210    1.8456 H   0  0  0  0  0  0  0  0  0  0  0  0
   -6.7077   -0.4645    0.6598 H   0  0  0  0  0  0  0  0  0  0  0  0
   -3.3699   -0.0643    1.9263 H   0  0  0  0  0  0  0  0  0  0  0  0
    3.2032   -0.5720   -1.8677 H   0  0  0  0  0  0  0  0  0  0  0  0
    2.2716   -1.9961   -1.3460 H   0  0  0  0  0  0  0  0  0  0  0  0
    1.7549   -1.0693   -2.7751 H   0  0  0  0  0  0  0  0  0  0  0  0
    4.1341    1.4028    2.5596 H   0  0  0  0  0  0  0  0  0  0  0  0
    2.3582    1.4433    2.6729 H   0  0  0  0  0  0  0  0  0  0  0  0
    3.2279   -0.0966    2.8742 H   0  0  0  0  0  0  0  0  0  0  0  0
  1  2  1  0  0  0  0
  2  3  1  0  0  0  0
  3  4  1  0  0  0  0
  4  5  1  0  0  0  0
  5  6  1  0  0  0  0
  6  7  1  0  0  0  0
  2  7  1  0  0  0  0
  7  8  1  0  0  0  0
  8  9  1  0  0  0  0
  9 10  1  0  0  0  0
 10 11  2  0  0  0  0
 10 12  1  0  0  0  0
  6 12  1  0  0  0  0
 12 13  1  0  0  0  0
 13 14  1  0  0  0  0
 14 15  1  0  0  0  0
 15 16  1  0  0  0  0
 15 17  1  0  0  0  0
 17 18  2  0  0  0  0
 15 19  1  0  0  0  0
  6 20  1  0  0  0  0
  2 21  1  0  0  0  0
  1 22  1  0  0  0  0
  1 23  1  0  0  0  0
  1 24  1  0  0  0  0
  3 25  1  0  0  0  0
  3 26  1  0  0  0  0
  4 27  1  0  0  0  0
  4 28  1  0  0  0  0
  5 29  1  0  0  0  0
  5 30  1  0  0  0  0
  7 31  1  0  0  0  0
  8 32  1  0  0  0  0
  8 33  1  0  0  0  0
  9 34  1  0  0  0  0
  9 35  1  0  0  0  0
 11 36  1  0  0  0  0
 11 37  1  0  0  0  0
 12 38  1  0  0  0  0
 13 39  1  0  0  0  0
 13 40  1  0  0  0  0
 14 41  1  0  0  0  0
 14 42  1  0  0  0  0
 16 43  1  0  0  0  0
 16 44  1  0  0  0  0
 16 45  1  0  0  0  0
 17 46  1  0  0  0  0
 18 47  1  0  0  0  0
 18 48  1  0  0  0  0
 19 49  1  0  0  0  0
 20 50  1  0  0  0  0
 20 51  1  0  0  0  0
 20 52  1  0  0  0  0
 21 53  1  0  0  0  0
 21 54  1  0  0  0  0
 21 55  1  0  0  0  0
M  END
$$$$
