C18H30O2
APtclcactv06281816433D 0   0.00000     0.00000
 
 50 49  0  0  0  0  0  0  0  0999 V2000
    9.6266   -2.4326   -1.1559 C   0  0  0  0  0  0  0  0  0  0  0  0
    8.7403   -1.1994   -0.9704 C   0  0  0  0  0  0  0  0  0  0  0  0
    7.6339   -1.5135    0.0386 C   0  0  0  0  0  0  0  0  0  0  0  0
    6.7476   -0.2803    0.2241 C   0  0  0  0  0  0  0  0  0  0  0  0
    5.6413   -0.5945    1.2332 C   0  0  0  0  0  0  0  0  0  0  0  0
    4.7683    0.6202    1.4159 C   0  0  0  0  0  0  0  0  0  0  0  0
    3.4745    0.5308    1.2309 C   0  0  0  0  0  0  0  0  0  0  0  0
    2.6015    1.7456    1.4136 C   0  0  0  0  0  0  0  0  0  0  0  0
    1.7956    1.9779    0.1616 C   0  0  0  0  0  0  0  0  0  0  0  0
    0.4900    2.0614    0.2291 C   0  0  0  0  0  0  0  0  0  0  0  0
   -0.3159    2.2937   -1.0230 C   0  0  0  0  0  0  0  0  0  0  0  0
   -1.3527    1.2088   -1.1616 C   0  0  0  0  0  0  0  0  0  0  0  0
   -2.6176    1.5242   -1.2901 C   0  0  0  0  0  0  0  0  0  0  0  0
   -3.6544    0.4393   -1.4287 C   0  0  0  0  0  0  0  0  0  0  0  0
   -4.7257    0.6169   -0.3509 C   0  0  0  0  0  0  0  0  0  0  0  0
   -5.7782   -0.4846   -0.4917 C   0  0  0  0  0  0  0  0  0  0  0  0
   -6.8496   -0.3070    0.5861 C   0  0  0  0  0  0  0  0  0  0  0  0
   -7.8863   -1.3919    0.4475 C   0  0  0  0  0  0  0  0  0  0  0  0
   -7.7793   -2.2220   -0.4239 O   0  0  0  0  0  0  0  0  0  0  0  0
   -8.9286   -1.4360    1.2921 O   0  0  0  0  0  0  0  0  0  0  0  0
   10.4148   -2.2088   -1.8748 H   0  0  0  0  0  0  0  0  0  0  0  0
   10.0735   -2.7059   -0.2001 H   0  0  0  0  0  0  0  0  0  0  0  0
    9.0229   -3.2617   -1.5251 H   0  0  0  0  0  0  0  0  0  0  0  0
    9.3439   -0.3703   -0.6013 H   0  0  0  0  0  0  0  0  0  0  0  0
    8.2933   -0.9261   -1.9263 H   0  0  0  0  0  0  0  0  0  0  0  0
    7.0302   -2.3426   -0.3305 H   0  0  0  0  0  0  0  0  0  0  0  0
    8.0809   -1.7869    0.9945 H   0  0  0  0  0  0  0  0  0  0  0  0
    7.3513    0.5488    0.5933 H   0  0  0  0  0  0  0  0  0  0  0  0
    6.3006   -0.0070   -0.7317 H   0  0  0  0  0  0  0  0  0  0  0  0
    5.0376   -1.4236    0.8641 H   0  0  0  0  0  0  0  0  0  0  0  0
    6.0882   -0.8678    2.1891 H   0  0  0  0  0  0  0  0  0  0  0  0
    5.2092    1.5645    1.6994 H   0  0  0  0  0  0  0  0  0  0  0  0
    3.0335   -0.4134    0.9474 H   0  0  0  0  0  0  0  0  0  0  0  0
    1.9274    1.5853    2.2551 H   0  0  0  0  0  0  0  0  0  0  0  0
    3.2270    2.6164    1.6099 H   0  0  0  0  0  0  0  0  0  0  0  0
    2.2944    2.0755   -0.7914 H   0  0  0  0  0  0  0  0  0  0  0  0
   -0.0088    1.9638    1.1820 H   0  0  0  0  0  0  0  0  0  0  0  0
   -0.8105    3.2632   -0.9621 H   0  0  0  0  0  0  0  0  0  0  0  0
    0.3455    2.2770   -1.8892 H   0  0  0  0  0  0  0  0  0  0  0  0
   -1.0528    0.1713   -1.1550 H   0  0  0  0  0  0  0  0  0  0  0  0
   -2.9175    2.5617   -1.2967 H   0  0  0  0  0  0  0  0  0  0  0  0
   -4.1163    0.5019   -2.4140 H   0  0  0  0  0  0  0  0  0  0  0  0
   -3.1790   -0.5346   -1.3115 H   0  0  0  0  0  0  0  0  0  0  0  0
   -4.2637    0.5542    0.6344 H   0  0  0  0  0  0  0  0  0  0  0  0
   -5.2010    1.5908   -0.4681 H   0  0  0  0  0  0  0  0  0  0  0  0
   -6.2402   -0.4219   -1.4769 H   0  0  0  0  0  0  0  0  0  0  0  0
   -5.3029   -1.4584   -0.3745 H   0  0  0  0  0  0  0  0  0  0  0  0
   -6.3876   -0.3696    1.5714 H   0  0  0  0  0  0  0  0  0  0  0  0
   -7.3249    0.6669    0.4690 H   0  0  0  0  0  0  0  0  0  0  0  0
   -9.5676   -2.1504    1.1638 H   0  0  0  0  0  0  0  0  0  0  0  0
  1  2  1  0  0  0  0
  2  3  1  0  0  0  0
  3  4  1  0  0  0  0
  4  5  1  0  0  0  0
  5  6  1  0  0  0  0
  6  7  2  0  0  0  0
  7  8  1  0  0  0  0
  8  9  1  0  0  0  0
  9 10  2  0  0  0  0
 10 11  1  0  0  0  0
 11 12  1  0  0  0  0
 12 13  2  0  0  0  0
 13 14  1  0  0  0  0
 14 15  1  0  0  0  0
 15 16  1  0  0  0  0
 16 17  1  0  0  0  0
 17 18  1  0  0  0  0
 18 19  2  0  0  0  0
 18 20  1  0  0  0  0
  1 21  1  0  0  0  0
  1 22  1  0  0  0  0
  1 23  1  0  0  0  0
  2 24  1  0  0  0  0
  2 25  1  0  0  0  0
  3 26  1  0  0  0  0
  3 27  1  0  0  0  0
  4 28  1  0  0  0  0
  4 29  1  0  0  0  0
  5 30  1  0  0  0  0
  5 31  1  0  0  0  0
  6 32  1  0  0  0  0
  7 33  1  0  0  0  0
  8 34  1  0  0  0  0
  8 35  1  0  0  0  0
  9 36  1  0  0  0  0
 10 37  1  0  0  0  0
 11 38  1  0  0  0  0
 11 39  1  0  0  0  0
 12 40  1  0  0  0  0
 13 41  1  0  0  0  0
 14 42  1  0  0  0  0
 14 43  1  0  0  0  0
 15 44  1  0  0  0  0
 15 45  1  0  0  0  0
 16 46  1  0  0  0  0
 16 47  1  0  0  0  0
 17 48  1  0  0  0  0
 17 49  1  0  0  0  0
 20 50  1  0  0  0  0
M  END
$$$$
