C15H12O5
APtclcactv06211806313D 0   0.00000     0.00000
 
 32 34  0  0  0  0  0  0  0  0999 V2000
    0.1551    1.6271    0.6234 C   0  0  0  0  0  0  0  0  0  0  0  0
   -0.2228    0.4617   -0.3026 C   0  0  0  0  0  0  0  0  0  0  0  0
    0.6326   -0.6497   -0.0369 O   0  0  0  0  0  0  0  0  0  0  0  0
    1.9721   -0.4575   -0.0523 C   0  0  0  0  0  0  0  0  0  0  0  0
    2.5187    0.8232    0.1430 C   0  0  0  0  0  0  0  0  0  0  0  0
    1.6111    1.9615    0.3521 C   0  0  0  0  0  0  0  0  0  0  0  0
    2.0054    3.1082    0.3097 O   0  0  0  0  0  0  0  0  0  0  0  0
    3.9044    1.0079    0.1344 C   0  0  0  0  0  0  0  0  0  0  0  0
    4.7300   -0.0608   -0.0698 C   0  0  0  0  0  0  0  0  0  0  0  0
    4.1968   -1.3319   -0.2688 C   0  0  0  0  0  0  0  0  0  0  0  0
    2.8238   -1.5303   -0.2605 C   0  0  0  0  0  0  0  0  0  0  0  0
    5.0272   -2.3851   -0.4733 O   0  0  0  0  0  0  0  0  0  0  0  0
   -1.6550    0.0651   -0.0529 C   0  0  0  0  0  0  0  0  0  0  0  0
   -2.6509    0.5038   -0.9055 C   0  0  0  0  0  0  0  0  0  0  0  0
   -3.9683    0.1399   -0.6773 C   0  0  0  0  0  0  0  0  0  0  0  0
   -4.2855   -0.6671    0.4110 C   0  0  0  0  0  0  0  0  0  0  0  0
   -3.2825   -1.1034    1.2618 C   0  0  0  0  0  0  0  0  0  0  0  0
   -1.9694   -0.7414    1.0251 C   0  0  0  0  0  0  0  0  0  0  0  0
   -5.5770   -1.0265    0.6395 O   0  0  0  0  0  0  0  0  0  0  0  0
   -4.9492    0.5710   -1.5148 O   0  0  0  0  0  0  0  0  0  0  0  0
   -0.4712    2.4923    0.4059 H   0  0  0  0  0  0  0  0  0  0  0  0
    0.0303    1.3296    1.6645 H   0  0  0  0  0  0  0  0  0  0  0  0
   -0.1062    0.7702   -1.3416 H   0  0  0  0  0  0  0  0  0  0  0  0
    4.3207    1.9925    0.2883 H   0  0  0  0  0  0  0  0  0  0  0  0
    5.8007    0.0804   -0.0767 H   0  0  0  0  0  0  0  0  0  0  0  0
    2.4195   -2.5198   -0.4152 H   0  0  0  0  0  0  0  0  0  0  0  0
    5.2951   -2.8381    0.3380 H   0  0  0  0  0  0  0  0  0  0  0  0
   -2.4021    1.1303   -1.7492 H   0  0  0  0  0  0  0  0  0  0  0  0
   -3.5260   -1.7298    2.1072 H   0  0  0  0  0  0  0  0  0  0  0  0
   -1.1886   -1.0821    1.6889 H   0  0  0  0  0  0  0  0  0  0  0  0
   -5.8390   -1.8496    0.2048 H   0  0  0  0  0  0  0  0  0  0  0  0
   -5.1211   -0.0233   -2.2580 H   0  0  0  0  0  0  0  0  0  0  0  0
  1  2  1  0  0  0  0
  2  3  1  0  0  0  0
  3  4  1  0  0  0  0
  4  5  2  0  0  0  0
  5  6  1  0  0  0  0
  1  6  1  0  0  0  0
  6  7  2  0  0  0  0
  5  8  1  0  0  0  0
  8  9  2  0  0  0  0
  9 10  1  0  0  0  0
 10 11  2  0  0  0  0
  4 11  1  0  0  0  0
 10 12  1  0  0  0  0
  2 13  1  0  0  0  0
 13 14  2  0  0  0  0
 14 15  1  0  0  0  0
 15 16  2  0  0  0  0
 16 17  1  0  0  0  0
 17 18  2  0  0  0  0
 13 18  1  0  0  0  0
 16 19  1  0  0  0  0
 15 20  1  0  0  0  0
  1 21  1  0  0  0  0
  1 22  1  0  0  0  0
  2 23  1  0  0  0  0
  8 24  1  0  0  0  0
  9 25  1  0  0  0  0
 11 26  1  0  0  0  0
 12 27  1  0  0  0  0
 14 28  1  0  0  0  0
 17 29  1  0  0  0  0
 18 30  1  0  0  0  0
 19 31  1  0  0  0  0
 20 32  1  0  0  0  0
M  END
$$$$
