C30H50O2
APtclcactv06211806313D 0   0.00000     0.00000
 
 82 86  0  0  0  0  0  0  0  0999 V2000
    5.8314   -2.8371    0.3547 C   0  0  0  0  0  0  0  0  0  0  0  0
    4.9738   -1.6809    0.8803 C   0  0  0  0  0  0  0  0  0  0  0  0
    5.7363   -0.3703    0.7173 C   0  0  0  0  0  0  0  0  0  0  0  0
    4.8842    0.8099    1.1709 C   0  0  0  0  0  0  0  0  0  0  0  0
    3.5990    0.8881    0.3217 C   0  0  0  0  0  0  0  0  0  0  0  0
    2.7835    2.0751    0.8200 C   0  0  0  0  0  0  0  0  0  0  0  0
    1.2882    1.8536    0.8934 C   0  0  0  0  0  0  0  0  0  0  0  0
    0.7483    0.9306   -0.1835 C   0  0  0  0  0  0  0  0  0  0  0  0
    1.4641   -0.3873   -0.1310 C   0  0  0  0  0  0  0  0  0  0  0  0
    0.9055   -1.5246   -0.4772 C   0  0  0  0  0  0  0  0  0  0  0  0
   -0.5684   -1.5269   -0.8740 C   0  0  0  0  0  0  0  0  0  0  0  0
   -1.1991   -0.5970    0.1629 C   0  0  0  0  0  0  0  0  0  0  0  0
   -0.7769    0.8237   -0.1110 C   0  0  0  0  0  0  0  0  0  0  0  0
   -1.3880    1.7960    0.8751 C   0  0  0  0  0  0  0  0  0  0  0  0
   -2.8949    1.6068    1.0557 C   0  0  0  0  0  0  0  0  0  0  0  0
   -3.4662    0.4712    0.2252 C   0  0  0  0  0  0  0  0  0  0  0  0
   -2.6794   -0.8128    0.4131 C   0  0  0  0  0  0  0  0  0  0  0  0
   -3.2353   -1.8971   -0.5132 C   0  0  0  0  0  0  0  0  0  0  0  0
   -4.7166   -2.1221   -0.2128 C   0  0  0  0  0  0  0  0  0  0  0  0
   -5.5099   -0.8430   -0.4401 C   0  0  0  0  0  0  0  0  0  0  0  0
   -4.9746    0.3321    0.3775 C   0  0  0  0  0  0  0  0  0  0  0  0
   -5.4389    0.2297    1.8251 C   0  0  0  0  0  0  0  0  0  0  0  0
   -5.6236    1.6080   -0.2190 C   0  0  0  0  0  0  0  0  0  0  0  0
   -5.4741   -0.5011   -1.8313 O   0  0  0  0  0  0  0  0  0  0  0  0
   -2.7863   -1.3253    1.8637 C   0  0  0  0  0  0  0  0  0  0  0  0
   -1.1899    1.2530   -1.5225 C   0  0  0  0  0  0  0  0  0  0  0  0
    2.8478   -0.4154    0.4730 C   0  0  0  0  0  0  0  0  0  0  0  0
    3.6432   -1.6539    0.1241 C   0  0  0  0  0  0  0  0  0  0  0  0
    3.8832   -1.8602   -1.3654 C   0  0  0  0  0  0  0  0  0  0  0  0
    0.9971    1.5702   -1.5547 C   0  0  0  0  0  0  0  0  0  0  0  0
    4.0342    1.1873   -1.1122 C   0  0  0  0  0  0  0  0  0  0  0  0
    4.6086    2.4944   -1.1727 O   0  0  0  0  0  0  0  0  0  0  0  0
    6.7624   -2.8848    0.9195 H   0  0  0  0  0  0  0  0  0  0  0  0
    5.2877   -3.7746    0.4706 H   0  0  0  0  0  0  0  0  0  0  0  0
    6.0541   -2.6741   -0.6998 H   0  0  0  0  0  0  0  0  0  0  0  0
    4.7717   -1.8476    1.9426 H   0  0  0  0  0  0  0  0  0  0  0  0
    6.6366   -0.4087    1.3487 H   0  0  0  0  0  0  0  0  0  0  0  0
    6.0652   -0.2440   -0.3100 H   0  0  0  0  0  0  0  0  0  0  0  0
    4.6050    0.6823    2.2157 H   0  0  0  0  0  0  0  0  0  0  0  0
    5.4401    1.7382    1.0512 H   0  0  0  0  0  0  0  0  0  0  0  0
    3.1453    2.3371    1.8195 H   0  0  0  0  0  0  0  0  0  0  0  0
    2.9849    2.9277    0.1660 H   0  0  0  0  0  0  0  0  0  0  0  0
    1.0409    1.4427    1.8790 H   0  0  0  0  0  0  0  0  0  0  0  0
    0.7897    2.8276    0.8104 H   0  0  0  0  0  0  0  0  0  0  0  0
    1.4511   -2.4510   -0.4725 H   0  0  0  0  0  0  0  0  0  0  0  0
   -0.6929   -1.1862   -1.8877 H   0  0  0  0  0  0  0  0  0  0  0  0
   -0.9577   -2.5414   -0.7638 H   0  0  0  0  0  0  0  0  0  0  0  0
   -0.7031   -0.8742    1.1334 H   0  0  0  0  0  0  0  0  0  0  0  0
   -0.9012    1.6929    1.8524 H   0  0  0  0  0  0  0  0  0  0  0  0
   -1.2085    2.8238    0.5269 H   0  0  0  0  0  0  0  0  0  0  0  0
   -3.0948    1.4423    2.1192 H   0  0  0  0  0  0  0  0  0  0  0  0
   -3.3848    2.5508    0.7802 H   0  0  0  0  0  0  0  0  0  0  0  0
   -3.3736    0.7607   -0.8484 H   0  0  0  0  0  0  0  0  0  0  0  0
   -3.1144   -1.5858   -1.5501 H   0  0  0  0  0  0  0  0  0  0  0  0
   -2.6942   -2.8295   -0.3473 H   0  0  0  0  0  0  0  0  0  0  0  0
   -5.0947   -2.8943   -0.9010 H   0  0  0  0  0  0  0  0  0  0  0  0
   -4.8623   -2.4884    0.7986 H   0  0  0  0  0  0  0  0  0  0  0  0
   -6.5554   -1.0164   -0.1602 H   0  0  0  0  0  0  0  0  0  0  0  0
   -5.1625   -0.7450    2.2273 H   0  0  0  0  0  0  0  0  0  0  0  0
   -4.9647    1.0139    2.4152 H   0  0  0  0  0  0  0  0  0  0  0  0
   -6.5217    0.3469    1.8685 H   0  0  0  0  0  0  0  0  0  0  0  0
   -6.7082    1.5361   -0.1372 H   0  0  0  0  0  0  0  0  0  0  0  0
   -5.2752    2.4832    0.3294 H   0  0  0  0  0  0  0  0  0  0  0  0
   -5.3437    1.7015   -1.2683 H   0  0  0  0  0  0  0  0  0  0  0  0
   -5.8491   -1.1771   -2.4122 H   0  0  0  0  0  0  0  0  0  0  0  0
   -3.7884   -1.7173    2.0377 H   0  0  0  0  0  0  0  0  0  0  0  0
   -2.0538   -2.1163    2.0244 H   0  0  0  0  0  0  0  0  0  0  0  0
   -2.5922   -0.5046    2.5543 H   0  0  0  0  0  0  0  0  0  0  0  0
   -2.2307    0.9795   -1.6954 H   0  0  0  0  0  0  0  0  0  0  0  0
   -1.0766    2.3325   -1.6216 H   0  0  0  0  0  0  0  0  0  0  0  0
   -0.5562    0.7524   -2.2545 H   0  0  0  0  0  0  0  0  0  0  0  0
    2.6594   -0.5067    1.5885 H   0  0  0  0  0  0  0  0  0  0  0  0
    3.0690   -2.5357    0.4824 H   0  0  0  0  0  0  0  0  0  0  0  0
    4.5641   -1.0927   -1.7334 H   0  0  0  0  0  0  0  0  0  0  0  0
    4.3221   -2.8443   -1.5299 H   0  0  0  0  0  0  0  0  0  0  0  0
    2.9354   -1.7913   -1.8992 H   0  0  0  0  0  0  0  0  0  0  0  0
    2.0140    1.9605   -1.5944 H   0  0  0  0  0  0  0  0  0  0  0  0
    0.8649    0.8203   -2.3347 H   0  0  0  0  0  0  0  0  0  0  0  0
    0.2891    2.3843   -1.7097 H   0  0  0  0  0  0  0  0  0  0  0  0
    4.7727    0.4509   -1.4289 H   0  0  0  0  0  0  0  0  0  0  0  0
    3.1680    1.1402   -1.7721 H   0  0  0  0  0  0  0  0  0  0  0  0
    4.8383    2.7820   -2.0669 H   0  0  0  0  0  0  0  0  0  0  0  0
  1  2  1  0  0  0  0
  2  3  1  0  0  0  0
  3  4  1  0  0  0  0
  4  5  1  0  0  0  0
  5  6  1  0  0  0  0
  6  7  1  0  0  0  0
  7  8  1  0  0  0  0
  8  9  1  0  0  0  0
  9 10  2  0  0  0  0
 10 11  1  0  0  0  0
 11 12  1  0  0  0  0
 12 13  1  0  0  0  0
  8 13  1  0  0  0  0
 13 14  1  0  0  0  0
 14 15  1  0  0  0  0
 15 16  1  0  0  0  0
 16 17  1  0  0  0  0
 12 17  1  0  0  0  0
 17 18  1  0  0  0  0
 18 19  1  0  0  0  0
 19 20  1  0  0  0  0
 20 21  1  0  0  0  0
 16 21  1  0  0  0  0
 21 22  1  0  0  0  0
 21 23  1  0  0  0  0
 20 24  1  0  0  0  0
 17 25  1  0  0  0  0
 13 26  1  0  0  0  0
  9 27  1  0  0  0  0
  5 27  1  0  0  0  0
 27 28  1  0  0  0  0
  2 28  1  0  0  0  0
 28 29  1  0  0  0  0
  8 30  1  0  0  0  0
  5 31  1  0  0  0  0
 31 32  1  0  0  0  0
  1 33  1  0  0  0  0
  1 34  1  0  0  0  0
  1 35  1  0  0  0  0
  2 36  1  0  0  0  0
  3 37  1  0  0  0  0
  3 38  1  0  0  0  0
  4 39  1  0  0  0  0
  4 40  1  0  0  0  0
  6 41  1  0  0  0  0
  6 42  1  0  0  0  0
  7 43  1  0  0  0  0
  7 44  1  0  0  0  0
 10 45  1  0  0  0  0
 11 46  1  0  0  0  0
 11 47  1  0  0  0  0
 12 48  1  0  0  0  0
 14 49  1  0  0  0  0
 14 50  1  0  0  0  0
 15 51  1  0  0  0  0
 15 52  1  0  0  0  0
 16 53  1  0  0  0  0
 18 54  1  0  0  0  0
 18 55  1  0  0  0  0
 19 56  1  0  0  0  0
 19 57  1  0  0  0  0
 20 58  1  0  0  0  0
 22 59  1  0  0  0  0
 22 60  1  0  0  0  0
 22 61  1  0  0  0  0
 23 62  1  0  0  0  0
 23 63  1  0  0  0  0
 23 64  1  0  0  0  0
 24 65  1  0  0  0  0
 25 66  1  0  0  0  0
 25 67  1  0  0  0  0
 25 68  1  0  0  0  0
 26 69  1  0  0  0  0
 26 70  1  0  0  0  0
 26 71  1  0  0  0  0
 27 72  1  0  0  0  0
 28 73  1  0  0  0  0
 29 74  1  0  0  0  0
 29 75  1  0  0  0  0
 29 76  1  0  0  0  0
 30 77  1  0  0  0  0
 30 78  1  0  0  0  0
 30 79  1  0  0  0  0
 31 80  1  0  0  0  0
 31 81  1  0  0  0  0
 32 82  1  0  0  0  0
M  END
$$$$
