C8H15NO
APtclcactv06211806313D 0   0.00000     0.00000
 
 25 25  0  0  0  0  0  0  0  0999 V2000
    3.6835   -0.2800    0.2944 C   0  0  0  0  0  0  0  0  0  0  0  0
    2.2579    0.0328   -0.0810 C   0  0  0  0  0  0  0  0  0  0  0  0
    1.9963    1.0638   -0.6527 O   0  0  0  0  0  0  0  0  0  0  0  0
    1.1586   -0.9411    0.2572 C   0  0  0  0  0  0  0  0  0  0  0  0
   -0.1816   -0.3868   -0.2301 C   0  0  0  0  0  0  0  0  0  0  0  0
   -1.2785   -1.4286    0.0007 C   0  0  0  0  0  0  0  0  0  0  0  0
   -2.6209   -0.8620   -0.4698 C   0  0  0  0  0  0  0  0  0  0  0  0
   -2.9098    0.4386    0.2849 C   0  0  0  0  0  0  0  0  0  0  0  0
   -1.7655    1.4263    0.0458 C   0  0  0  0  0  0  0  0  0  0  0  0
   -0.5038    0.8381    0.5131 N   0  0  0  0  0  0  0  0  0  0  0  0
    4.3315    0.5345   -0.0292 H   0  0  0  0  0  0  0  0  0  0  0  0
    3.7575   -0.3956    1.3757 H   0  0  0  0  0  0  0  0  0  0  0  0
    3.9926   -1.2053   -0.1919 H   0  0  0  0  0  0  0  0  0  0  0  0
    1.3560   -1.8956   -0.2307 H   0  0  0  0  0  0  0  0  0  0  0  0
    1.1210   -1.0859    1.3369 H   0  0  0  0  0  0  0  0  0  0  0  0
   -0.1151   -0.1589   -1.2940 H   0  0  0  0  0  0  0  0  0  0  0  0
   -1.0470   -2.3320   -0.5635 H   0  0  0  0  0  0  0  0  0  0  0  0
   -1.3363   -1.6670    1.0627 H   0  0  0  0  0  0  0  0  0  0  0  0
   -2.5760   -0.6598   -1.5400 H   0  0  0  0  0  0  0  0  0  0  0  0
   -3.4121   -1.5839   -0.2675 H   0  0  0  0  0  0  0  0  0  0  0  0
   -3.8437    0.8692   -0.0763 H   0  0  0  0  0  0  0  0  0  0  0  0
   -2.9933    0.2296    1.3514 H   0  0  0  0  0  0  0  0  0  0  0  0
   -1.6915    1.6455   -1.0194 H   0  0  0  0  0  0  0  0  0  0  0  0
   -1.9612    2.3482    0.5934 H   0  0  0  0  0  0  0  0  0  0  0  0
   -0.5331    0.6613    1.5061 H   0  0  0  0  0  0  0  0  0  0  0  0
  1  2  1  0  0  0  0
  2  3  2  0  0  0  0
  2  4  1  0  0  0  0
  4  5  1  0  0  0  0
  5  6  1  0  0  0  0
  6  7  1  0  0  0  0
  7  8  1  0  0  0  0
  8  9  1  0  0  0  0
  9 10  1  0  0  0  0
  5 10  1  0  0  0  0
  1 11  1  0  0  0  0
  1 12  1  0  0  0  0
  1 13  1  0  0  0  0
  4 14  1  0  0  0  0
  4 15  1  0  0  0  0
  5 16  1  0  0  0  0
  6 17  1  0  0  0  0
  6 18  1  0  0  0  0
  7 19  1  0  0  0  0
  7 20  1  0  0  0  0
  8 21  1  0  0  0  0
  8 22  1  0  0  0  0
  9 23  1  0  0  0  0
  9 24  1  0  0  0  0
 10 25  1  0  0  0  0
M  END
$$$$
