C10H16O2
APtclcactv06211806313D 0   0.00000     0.00000
 
 28 29  0  0  0  0  0  0  0  0999 V2000
    2.4033   -0.0910   -1.4285 C   0  0  0  0  0  0  0  0  0  0  0  0
    2.3320   -0.1087    0.0997 C   0  0  0  0  0  0  0  0  0  0  0  0
    3.1893    1.0263    0.6635 C   0  0  0  0  0  0  0  0  0  0  0  0
    0.8802    0.0794    0.5447 C   0  0  0  0  0  0  0  0  0  0  0  0
    0.3304    1.3463   -0.0796 C   0  0  0  0  0  0  0  0  0  0  0  0
   -1.1297    1.5876    0.2261 C   0  0  0  0  0  0  0  0  0  0  0  0
   -2.0127    0.3795   -0.0440 C   0  0  0  0  0  0  0  0  0  0  0  0
   -1.4105   -1.0236   -0.0196 C   0  0  0  0  0  0  0  0  0  0  0  0
    0.0813   -1.1235    0.1354 C   0  0  0  0  0  0  0  0  0  0  0  0
    0.6388   -2.1748   -0.0700 O   0  0  0  0  0  0  0  0  0  0  0  0
   -2.1998   -0.5278    1.0534 O   0  0  0  0  0  0  0  0  0  0  0  0
   -3.1998    0.6241   -0.9778 C   0  0  0  0  0  0  0  0  0  0  0  0
    3.4375   -0.2250   -1.7455 H   0  0  0  0  0  0  0  0  0  0  0  0
    1.7925   -0.8995   -1.8301 H   0  0  0  0  0  0  0  0  0  0  0  0
    2.0307    0.8641   -1.7986 H   0  0  0  0  0  0  0  0  0  0  0  0
    2.7046   -1.0638    0.4699 H   0  0  0  0  0  0  0  0  0  0  0  0
    3.0577    1.0787    1.7442 H   0  0  0  0  0  0  0  0  0  0  0  0
    4.2381    0.8379    0.4339 H   0  0  0  0  0  0  0  0  0  0  0  0
    2.8829    1.9708    0.2139 H   0  0  0  0  0  0  0  0  0  0  0  0
    0.8495    0.1744    1.6302 H   0  0  0  0  0  0  0  0  0  0  0  0
    0.9082    2.1948    0.2869 H   0  0  0  0  0  0  0  0  0  0  0  0
    0.4546    1.2845   -1.1607 H   0  0  0  0  0  0  0  0  0  0  0  0
   -1.2258    1.8624    1.2765 H   0  0  0  0  0  0  0  0  0  0  0  0
   -1.4811    2.4202   -0.3833 H   0  0  0  0  0  0  0  0  0  0  0  0
   -1.8664   -1.7757   -0.6635 H   0  0  0  0  0  0  0  0  0  0  0  0
   -2.8770    0.5120   -2.0129 H   0  0  0  0  0  0  0  0  0  0  0  0
   -3.9866   -0.0988   -0.7622 H   0  0  0  0  0  0  0  0  0  0  0  0
   -3.5814    1.6334   -0.8235 H   0  0  0  0  0  0  0  0  0  0  0  0
  1  2  1  0  0  0  0
  2  3  1  0  0  0  0
  2  4  1  0  0  0  0
  4  5  1  0  0  0  0
  5  6  1  0  0  0  0
  6  7  1  0  0  0  0
  7  8  1  0  0  0  0
  8  9  1  0  0  0  0
  4  9  1  0  0  0  0
  9 10  2  0  0  0  0
  8 11  1  0  0  0  0
  7 11  1  0  0  0  0
  7 12  1  0  0  0  0
  1 13  1  0  0  0  0
  1 14  1  0  0  0  0
  1 15  1  0  0  0  0
  2 16  1  0  0  0  0
  3 17  1  0  0  0  0
  3 18  1  0  0  0  0
  3 19  1  0  0  0  0
  4 20  1  0  0  0  0
  5 21  1  0  0  0  0
  5 22  1  0  0  0  0
  6 23  1  0  0  0  0
  6 24  1  0  0  0  0
  8 25  1  0  0  0  0
 12 26  1  0  0  0  0
 12 27  1  0  0  0  0
 12 28  1  0  0  0  0
M  END
$$$$
