C11H12O4
APtclcactv06211806313D 0   0.00000     0.00000
 
 27 28  0  0  0  0  0  0  0  0999 V2000
    3.9507    1.7340    0.0685 C   0  0  0  0  0  0  0  0  0  0  0  0
    2.6681    0.9560    0.3696 C   0  0  0  0  0  0  0  0  0  0  0  0
    1.4609    1.7463   -0.1366 C   0  0  0  0  0  0  0  0  0  0  0  0
    0.2185    0.8964   -0.0786 C   0  0  0  0  0  0  0  0  0  0  0  0
   -1.0117    1.4919   -0.0578 C   0  0  0  0  0  0  0  0  0  0  0  0
   -2.1676    0.7190   -0.0075 C   0  0  0  0  0  0  0  0  0  0  0  0
   -2.0869   -0.6655    0.0213 C   0  0  0  0  0  0  0  0  0  0  0  0
   -0.8466   -1.2832    0.0014 C   0  0  0  0  0  0  0  0  0  0  0  0
    0.3135   -0.4985   -0.0461 C   0  0  0  0  0  0  0  0  0  0  0  0
    1.6441   -1.1361   -0.0569 C   0  0  0  0  0  0  0  0  0  0  0  0
    1.7775   -2.3271    0.1455 O   0  0  0  0  0  0  0  0  0  0  0  0
    2.7134   -0.3359   -0.3030 O   0  0  0  0  0  0  0  0  0  0  0  0
   -0.7562   -2.6363    0.0283 O   0  0  0  0  0  0  0  0  0  0  0  0
   -3.3822    1.3237    0.0140 O   0  0  0  0  0  0  0  0  0  0  0  0
   -4.5295    0.4734    0.0657 C   0  0  0  0  0  0  0  0  0  0  0  0
    3.9146    2.7017    0.5688 H   0  0  0  0  0  0  0  0  0  0  0  0
    4.8108    1.1701    0.4295 H   0  0  0  0  0  0  0  0  0  0  0  0
    4.0404    1.8842   -1.0074 H   0  0  0  0  0  0  0  0  0  0  0  0
    2.5786    0.8041    1.4452 H   0  0  0  0  0  0  0  0  0  0  0  0
    1.3223    2.6310    0.4849 H   0  0  0  0  0  0  0  0  0  0  0  0
    1.6384    2.0560   -1.1665 H   0  0  0  0  0  0  0  0  0  0  0  0
   -1.0869    2.5690   -0.0802 H   0  0  0  0  0  0  0  0  0  0  0  0
   -2.9877   -1.2601    0.0594 H   0  0  0  0  0  0  0  0  0  0  0  0
   -0.7537   -3.0478   -0.8468 H   0  0  0  0  0  0  0  0  0  0  0  0
   -5.4332    1.0828    0.0782 H   0  0  0  0  0  0  0  0  0  0  0  0
   -4.5408   -0.1753   -0.8102 H   0  0  0  0  0  0  0  0  0  0  0  0
   -4.4897   -0.1359    0.9686 H   0  0  0  0  0  0  0  0  0  0  0  0
  1  2  1  0  0  0  0
  2  3  1  0  0  0  0
  3  4  1  0  0  0  0
  4  5  2  0  0  0  0
  5  6  1  0  0  0  0
  6  7  2  0  0  0  0
  7  8  1  0  0  0  0
  8  9  2  0  0  0  0
  4  9  1  0  0  0  0
  9 10  1  0  0  0  0
 10 11  2  0  0  0  0
 10 12  1  0  0  0  0
  2 12  1  0  0  0  0
  8 13  1  0  0  0  0
  6 14  1  0  0  0  0
 14 15  1  0  0  0  0
  1 16  1  0  0  0  0
  1 17  1  0  0  0  0
  1 18  1  0  0  0  0
  2 19  1  0  0  0  0
  3 20  1  0  0  0  0
  3 21  1  0  0  0  0
  5 22  1  0  0  0  0
  7 23  1  0  0  0  0
 13 24  1  0  0  0  0
 15 25  1  0  0  0  0
 15 26  1  0  0  0  0
 15 27  1  0  0  0  0
M  END
$$$$
