C9H14N4O3
APtclcactv06211804443D 0   0.00000     0.00000
 
 30 30  0  0  0  0  0  0  0  0999 V2000
    2.0175    1.6463    0.9430 C   0  0  0  0  0  0  0  0  0  0  0  0
    2.3494    0.5434    0.2452 C   0  0  0  0  0  0  0  0  0  0  0  0
    3.1619    0.9517   -0.7779 N   0  0  0  0  0  0  0  0  0  0  0  0
    3.2984    2.2908   -0.6696 C   0  0  0  0  0  0  0  0  0  0  0  0
    2.6112    2.6993    0.3619 N   0  0  0  0  0  0  0  0  0  0  0  0
    1.9109   -0.8690    0.5352 C   0  0  0  0  0  0  0  0  0  0  0  0
    0.5458   -1.1214   -0.1080 C   0  0  0  0  0  0  0  0  0  0  0  0
    0.1632   -2.5673    0.0766 C   0  0  0  0  0  0  0  0  0  0  0  0
   -0.8455   -2.8534    0.6772 O   0  0  0  0  0  0  0  0  0  0  0  0
    0.9429   -3.5373   -0.4262 O   0  0  0  0  0  0  0  0  0  0  0  0
   -0.4591   -0.2654    0.5274 N   0  0  0  0  0  0  0  0  0  0  0  0
   -1.5749    0.0780   -0.1462 C   0  0  0  0  0  0  0  0  0  0  0  0
   -1.7470   -0.3216   -1.2783 O   0  0  0  0  0  0  0  0  0  0  0  0
   -2.6086    0.9586    0.5073 C   0  0  0  0  0  0  0  0  0  0  0  0
   -3.7660    1.1944   -0.4651 C   0  0  0  0  0  0  0  0  0  0  0  0
   -4.7737    2.0527    0.1720 N   0  0  0  0  0  0  0  0  0  0  0  0
    1.3810    1.6779    1.8150 H   0  0  0  0  0  0  0  0  0  0  0  0
    3.5645    0.3849   -1.4544 H   0  0  0  0  0  0  0  0  0  0  0  0
    3.8799    2.9196   -1.3275 H   0  0  0  0  0  0  0  0  0  0  0  0
    2.6404   -1.5674    0.1251 H   0  0  0  0  0  0  0  0  0  0  0  0
    1.8367   -1.0123    1.6132 H   0  0  0  0  0  0  0  0  0  0  0  0
    0.5977   -0.8923   -1.1724 H   0  0  0  0  0  0  0  0  0  0  0  0
    0.6563   -4.4496   -0.2825 H   0  0  0  0  0  0  0  0  0  0  0  0
   -0.3215    0.0542    1.4328 H   0  0  0  0  0  0  0  0  0  0  0  0
   -2.9838    0.4718    1.4075 H   0  0  0  0  0  0  0  0  0  0  0  0
   -2.1565    1.9142    0.7726 H   0  0  0  0  0  0  0  0  0  0  0  0
   -3.3908    1.6811   -1.3653 H   0  0  0  0  0  0  0  0  0  0  0  0
   -4.2181    0.2387   -0.7304 H   0  0  0  0  0  0  0  0  0  0  0  0
   -5.5491    2.2233   -0.4507 H   0  0  0  0  0  0  0  0  0  0  0  0
   -5.0903    1.6534    1.0428 H   0  0  0  0  0  0  0  0  0  0  0  0
  1  2  2  0  0  0  0
  2  3  1  0  0  0  0
  3  4  1  0  0  0  0
  4  5  2  0  0  0  0
  1  5  1  0  0  0  0
  2  6  1  0  0  0  0
  6  7  1  0  0  0  0
  7  8  1  0  0  0  0
  8  9  2  0  0  0  0
  8 10  1  0  0  0  0
  7 11  1  0  0  0  0
 11 12  1  0  0  0  0
 12 13  2  0  0  0  0
 12 14  1  0  0  0  0
 14 15  1  0  0  0  0
 15 16  1  0  0  0  0
  1 17  1  0  0  0  0
  3 18  1  0  0  0  0
  4 19  1  0  0  0  0
  6 20  1  0  0  0  0
  6 21  1  0  0  0  0
  7 22  1  0  0  0  0
 10 23  1  0  0  0  0
 11 24  1  0  0  0  0
 14 25  1  0  0  0  0
 14 26  1  0  0  0  0
 15 27  1  0  0  0  0
 15 28  1  0  0  0  0
 16 29  1  0  0  0  0
 16 30  1  0  0  0  0
M  END
$$$$
