NO3
APtclcactv06201813283D 0   0.00000     0.00000
 
  4  3  0  0  0  0  0  0  0  0999 V2000
   -0.0000    0.0000   -0.0013 N   0  3  0  0  0  0  0  0  0  0  0  0
   -1.0548    0.6090    0.0004 O   0  0  0  0  0  0  0  0  0  0  0  0
    1.0548    0.6090    0.0004 O   0  5  0  0  0  0  0  0  0  0  0  0
    0.0000   -1.2180    0.0004 O   0  5  0  0  0  0  0  0  0  0  0  0
  1  2  2  0  0  0  0
  1  3  1  0  0  0  0
  1  4  1  0  0  0  0
M  CHG  3   1   1   3  -1   4  -1
M  END
$$$$
