C10H14O2
APtclcactv06211806323D 0   0.00000     0.00000
 
 26 27  0  0  0  0  0  0  0  0999 V2000
    3.7189   -0.6130   -0.5148 C   0  0  0  0  0  0  0  0  0  0  0  0
    2.4234   -0.1901    0.1806 C   0  0  0  0  0  0  0  0  0  0  0  0
    2.0487    1.2190   -0.2736 C   0  0  0  0  0  0  0  0  0  0  0  0
    0.8047    1.7074    0.4888 C   0  0  0  0  0  0  0  0  0  0  0  0
   -0.2355    0.6229    0.3541 C   0  0  0  0  0  0  0  0  0  0  0  0
   -1.4974    0.6894   -0.0167 C   0  0  0  0  0  0  0  0  0  0  0  0
   -2.0553   -0.6680   -0.0827 C   0  0  0  0  0  0  0  0  0  0  0  0
   -3.2047   -0.9372   -0.3714 O   0  0  0  0  0  0  0  0  0  0  0  0
   -1.1006   -1.5720    0.2243 O   0  0  0  0  0  0  0  0  0  0  0  0
    0.0708   -0.8363    0.6477 C   0  0  0  0  0  0  0  0  0  0  0  0
    1.3188   -1.1959   -0.1610 C   0  0  0  0  0  0  0  0  0  0  0  0
   -2.2506    1.9580   -0.3240 C   0  0  0  0  0  0  0  0  0  0  0  0
    4.5165    0.0814   -0.2506 H   0  0  0  0  0  0  0  0  0  0  0  0
    3.9917   -1.6185   -0.1945 H   0  0  0  0  0  0  0  0  0  0  0  0
    3.5715   -0.6031   -1.5947 H   0  0  0  0  0  0  0  0  0  0  0  0
    2.5816   -0.1874    1.2591 H   0  0  0  0  0  0  0  0  0  0  0  0
    2.8810    1.8951   -0.0779 H   0  0  0  0  0  0  0  0  0  0  0  0
    1.8368    1.2097   -1.3427 H   0  0  0  0  0  0  0  0  0  0  0  0
    1.0481    1.8628    1.5398 H   0  0  0  0  0  0  0  0  0  0  0  0
    0.4370    2.6342    0.0485 H   0  0  0  0  0  0  0  0  0  0  0  0
    0.2438   -0.9808    1.7141 H   0  0  0  0  0  0  0  0  0  0  0  0
    1.0931   -1.1454   -1.2261 H   0  0  0  0  0  0  0  0  0  0  0  0
    1.6464   -2.2028    0.0980 H   0  0  0  0  0  0  0  0  0  0  0  0
   -2.1465    2.1950   -1.3828 H   0  0  0  0  0  0  0  0  0  0  0  0
   -3.3052    1.8216   -0.0842 H   0  0  0  0  0  0  0  0  0  0  0  0
   -1.8451    2.7750    0.2728 H   0  0  0  0  0  0  0  0  0  0  0  0
  1  2  1  0  0  0  0
  2  3  1  0  0  0  0
  3  4  1  0  0  0  0
  4  5  1  0  0  0  0
  5  6  2  0  0  0  0
  6  7  1  0  0  0  0
  7  8  2  0  0  0  0
  7  9  1  0  0  0  0
  9 10  1  0  0  0  0
  5 10  1  0  0  0  0
 10 11  1  0  0  0  0
  2 11  1  0  0  0  0
  6 12  1  0  0  0  0
  1 13  1  0  0  0  0
  1 14  1  0  0  0  0
  1 15  1  0  0  0  0
  2 16  1  0  0  0  0
  3 17  1  0  0  0  0
  3 18  1  0  0  0  0
  4 19  1  0  0  0  0
  4 20  1  0  0  0  0
 10 21  1  0  0  0  0
 11 22  1  0  0  0  0
 11 23  1  0  0  0  0
 12 24  1  0  0  0  0
 12 25  1  0  0  0  0
 12 26  1  0  0  0  0
M  END
$$$$
