C4H7N
APtclcactv06211806323D 0   0.00000     0.00000
 
 12 12  0  0  0  0  0  0  0  0999 V2000
   -0.1492   -1.2647   -0.0000 C   0  0  0  0  0  0  0  0  0  0  0  0
   -1.2340   -0.1699    0.0000 C   0  0  0  0  0  0  0  0  0  0  0  0
   -0.4680    1.0854    0.0000 N   0  0  0  0  0  0  0  0  0  0  0  0
    0.8821    0.7947    0.0000 C   0  0  0  0  0  0  0  0  0  0  0  0
    1.1493   -0.4891   -0.0000 C   0  0  0  0  0  0  0  0  0  0  0  0
   -0.2270   -1.8803    0.8961 H   0  0  0  0  0  0  0  0  0  0  0  0
   -0.2270   -1.8803   -0.8962 H   0  0  0  0  0  0  0  0  0  0  0  0
   -1.8503   -0.2420   -0.8961 H   0  0  0  0  0  0  0  0  0  0  0  0
   -1.8503   -0.2420    0.8962 H   0  0  0  0  0  0  0  0  0  0  0  0
   -0.8505    1.9768   -0.0004 H   0  0  0  0  0  0  0  0  0  0  0  0
    1.6483    1.5558    0.0000 H   0  0  0  0  0  0  0  0  0  0  0  0
    2.1382   -0.9231    0.0003 H   0  0  0  0  0  0  0  0  0  0  0  0
  1  2  1  0  0  0  0
  2  3  1  0  0  0  0
  3  4  1  0  0  0  0
  4  5  2  0  0  0  0
  1  5  1  0  0  0  0
  1  6  1  0  0  0  0
  1  7  1  0  0  0  0
  2  8  1  0  0  0  0
  2  9  1  0  0  0  0
  3 10  1  0  0  0  0
  4 11  1  0  0  0  0
  5 12  1  0  0  0  0
M  END
$$$$
