C31H62O
APtclcactv06211806323D 0   0.00000     0.00000
 
 94 93  0  0  0  0  0  0  0  0999 V2000
   18.7207    0.3782   -0.0000 C   0  0  0  0  0  0  0  0  0  0  0  0
   17.3957    1.1432    0.0000 C   0  0  0  0  0  0  0  0  0  0  0  0
   16.2327    0.1490   -0.0000 C   0  0  0  0  0  0  0  0  0  0  0  0
   14.9077    0.9140    0.0000 C   0  0  0  0  0  0  0  0  0  0  0  0
   13.7448   -0.0803   -0.0000 C   0  0  0  0  0  0  0  0  0  0  0  0
   12.4198    0.6847    0.0000 C   0  0  0  0  0  0  0  0  0  0  0  0
   11.2569   -0.3095   -0.0000 C   0  0  0  0  0  0  0  0  0  0  0  0
    9.9318    0.4555    0.0000 C   0  0  0  0  0  0  0  0  0  0  0  0
    8.7689   -0.5387   -0.0000 C   0  0  0  0  0  0  0  0  0  0  0  0
    7.4439    0.2263    0.0000 C   0  0  0  0  0  0  0  0  0  0  0  0
    6.2810   -0.7680   -0.0000 C   0  0  0  0  0  0  0  0  0  0  0  0
    4.9560   -0.0030    0.0000 C   0  0  0  0  0  0  0  0  0  0  0  0
    3.7930   -0.9972   -0.0000 C   0  0  0  0  0  0  0  0  0  0  0  0
    2.4680   -0.2322    0.0000 C   0  0  0  0  0  0  0  0  0  0  0  0
    1.3051   -1.2265    0.0000 C   0  0  0  0  0  0  0  0  0  0  0  0
    0.0000   -0.4730    0.0000 C   0  0  0  0  0  0  0  0  0  0  0  0
   -0.0000    0.7346    0.0000 O   0  0  0  0  0  0  0  0  0  0  0  0
   -1.3051   -1.2265    0.0000 C   0  0  0  0  0  0  0  0  0  0  0  0
   -2.4680   -0.2322    0.0000 C   0  0  0  0  0  0  0  0  0  0  0  0
   -3.7930   -0.9972    0.0000 C   0  0  0  0  0  0  0  0  0  0  0  0
   -4.9560   -0.0030   -0.0000 C   0  0  0  0  0  0  0  0  0  0  0  0
   -6.2810   -0.7680    0.0000 C   0  0  0  0  0  0  0  0  0  0  0  0
   -7.4439    0.2263   -0.0000 C   0  0  0  0  0  0  0  0  0  0  0  0
   -8.7689   -0.5387    0.0000 C   0  0  0  0  0  0  0  0  0  0  0  0
   -9.9318    0.4555   -0.0000 C   0  0  0  0  0  0  0  0  0  0  0  0
  -11.2569   -0.3095    0.0000 C   0  0  0  0  0  0  0  0  0  0  0  0
  -12.4198    0.6847   -0.0000 C   0  0  0  0  0  0  0  0  0  0  0  0
  -13.7448   -0.0803    0.0000 C   0  0  0  0  0  0  0  0  0  0  0  0
  -14.9077    0.9140   -0.0000 C   0  0  0  0  0  0  0  0  0  0  0  0
  -16.2327    0.1490    0.0000 C   0  0  0  0  0  0  0  0  0  0  0  0
  -17.3957    1.1432   -0.0000 C   0  0  0  0  0  0  0  0  0  0  0  0
  -18.7207    0.3782    0.0000 C   0  0  0  0  0  0  0  0  0  0  0  0
   19.5492    1.0865    0.0000 H   0  0  0  0  0  0  0  0  0  0  0  0
   18.7784   -0.2484    0.8900 H   0  0  0  0  0  0  0  0  0  0  0  0
   18.7784   -0.2484   -0.8900 H   0  0  0  0  0  0  0  0  0  0  0  0
   17.3379    1.7699    0.8900 H   0  0  0  0  0  0  0  0  0  0  0  0
   17.3379    1.7699   -0.8900 H   0  0  0  0  0  0  0  0  0  0  0  0
   16.2905   -0.4777   -0.8900 H   0  0  0  0  0  0  0  0  0  0  0  0
   16.2905   -0.4777    0.8900 H   0  0  0  0  0  0  0  0  0  0  0  0
   14.8500    1.5406    0.8900 H   0  0  0  0  0  0  0  0  0  0  0  0
   14.8500    1.5406   -0.8900 H   0  0  0  0  0  0  0  0  0  0  0  0
   13.8025   -0.7069   -0.8900 H   0  0  0  0  0  0  0  0  0  0  0  0
   13.8025   -0.7069    0.8900 H   0  0  0  0  0  0  0  0  0  0  0  0
   12.3620    1.3114    0.8900 H   0  0  0  0  0  0  0  0  0  0  0  0
   12.3620    1.3114   -0.8900 H   0  0  0  0  0  0  0  0  0  0  0  0
   11.3146   -0.9362   -0.8900 H   0  0  0  0  0  0  0  0  0  0  0  0
   11.3146   -0.9362    0.8900 H   0  0  0  0  0  0  0  0  0  0  0  0
    9.8741    1.0822    0.8900 H   0  0  0  0  0  0  0  0  0  0  0  0
    9.8741    1.0822   -0.8900 H   0  0  0  0  0  0  0  0  0  0  0  0
    8.8267   -1.1654   -0.8900 H   0  0  0  0  0  0  0  0  0  0  0  0
    8.8267   -1.1654    0.8900 H   0  0  0  0  0  0  0  0  0  0  0  0
    7.3862    0.8529    0.8900 H   0  0  0  0  0  0  0  0  0  0  0  0
    7.3862    0.8529   -0.8900 H   0  0  0  0  0  0  0  0  0  0  0  0
    6.3387   -1.3946   -0.8900 H   0  0  0  0  0  0  0  0  0  0  0  0
    6.3387   -1.3946    0.8900 H   0  0  0  0  0  0  0  0  0  0  0  0
    4.8982    0.6237    0.8900 H   0  0  0  0  0  0  0  0  0  0  0  0
    4.8982    0.6237   -0.8900 H   0  0  0  0  0  0  0  0  0  0  0  0
    3.8508   -1.6239   -0.8900 H   0  0  0  0  0  0  0  0  0  0  0  0
    3.8508   -1.6239    0.8900 H   0  0  0  0  0  0  0  0  0  0  0  0
    2.4103    0.3944    0.8900 H   0  0  0  0  0  0  0  0  0  0  0  0
    2.4103    0.3944   -0.8900 H   0  0  0  0  0  0  0  0  0  0  0  0
    1.3628   -1.8531   -0.8900 H   0  0  0  0  0  0  0  0  0  0  0  0
    1.3628   -1.8531    0.8900 H   0  0  0  0  0  0  0  0  0  0  0  0
   -1.3628   -1.8531   -0.8900 H   0  0  0  0  0  0  0  0  0  0  0  0
   -1.3628   -1.8531    0.8900 H   0  0  0  0  0  0  0  0  0  0  0  0
   -2.4103    0.3944    0.8900 H   0  0  0  0  0  0  0  0  0  0  0  0
   -2.4103    0.3944   -0.8900 H   0  0  0  0  0  0  0  0  0  0  0  0
   -3.8508   -1.6239   -0.8900 H   0  0  0  0  0  0  0  0  0  0  0  0
   -3.8508   -1.6239    0.8900 H   0  0  0  0  0  0  0  0  0  0  0  0
   -4.8982    0.6237    0.8900 H   0  0  0  0  0  0  0  0  0  0  0  0
   -4.8982    0.6237   -0.8900 H   0  0  0  0  0  0  0  0  0  0  0  0
   -6.3387   -1.3946   -0.8900 H   0  0  0  0  0  0  0  0  0  0  0  0
   -6.3387   -1.3946    0.8900 H   0  0  0  0  0  0  0  0  0  0  0  0
   -7.3862    0.8529    0.8900 H   0  0  0  0  0  0  0  0  0  0  0  0
   -7.3862    0.8529   -0.8900 H   0  0  0  0  0  0  0  0  0  0  0  0
   -8.8267   -1.1654   -0.8900 H   0  0  0  0  0  0  0  0  0  0  0  0
   -8.8267   -1.1654    0.8900 H   0  0  0  0  0  0  0  0  0  0  0  0
   -9.8741    1.0822    0.8900 H   0  0  0  0  0  0  0  0  0  0  0  0
   -9.8741    1.0822   -0.8900 H   0  0  0  0  0  0  0  0  0  0  0  0
  -11.3146   -0.9362   -0.8900 H   0  0  0  0  0  0  0  0  0  0  0  0
  -11.3146   -0.9362    0.8900 H   0  0  0  0  0  0  0  0  0  0  0  0
  -12.3620    1.3114    0.8900 H   0  0  0  0  0  0  0  0  0  0  0  0
  -12.3620    1.3114   -0.8900 H   0  0  0  0  0  0  0  0  0  0  0  0
  -13.8025   -0.7069   -0.8900 H   0  0  0  0  0  0  0  0  0  0  0  0
  -13.8025   -0.7069    0.8900 H   0  0  0  0  0  0  0  0  0  0  0  0
  -14.8500    1.5406    0.8900 H   0  0  0  0  0  0  0  0  0  0  0  0
  -14.8500    1.5406   -0.8900 H   0  0  0  0  0  0  0  0  0  0  0  0
  -16.2905   -0.4777   -0.8900 H   0  0  0  0  0  0  0  0  0  0  0  0
  -16.2905   -0.4777    0.8900 H   0  0  0  0  0  0  0  0  0  0  0  0
  -17.3379    1.7699    0.8900 H   0  0  0  0  0  0  0  0  0  0  0  0
  -17.3379    1.7699   -0.8900 H   0  0  0  0  0  0  0  0  0  0  0  0
  -18.7784   -0.2484    0.8900 H   0  0  0  0  0  0  0  0  0  0  0  0
  -19.5492    1.0865   -0.0000 H   0  0  0  0  0  0  0  0  0  0  0  0
  -18.7784   -0.2484   -0.8900 H   0  0  0  0  0  0  0  0  0  0  0  0
  1  2  1  0  0  0  0
  2  3  1  0  0  0  0
  3  4  1  0  0  0  0
  4  5  1  0  0  0  0
  5  6  1  0  0  0  0
  6  7  1  0  0  0  0
  7  8  1  0  0  0  0
  8  9  1  0  0  0  0
  9 10  1  0  0  0  0
 10 11  1  0  0  0  0
 11 12  1  0  0  0  0
 12 13  1  0  0  0  0
 13 14  1  0  0  0  0
 14 15  1  0  0  0  0
 15 16  1  0  0  0  0
 16 17  2  0  0  0  0
 16 18  1  0  0  0  0
 18 19  1  0  0  0  0
 19 20  1  0  0  0  0
 20 21  1  0  0  0  0
 21 22  1  0  0  0  0
 22 23  1  0  0  0  0
 23 24  1  0  0  0  0
 24 25  1  0  0  0  0
 25 26  1  0  0  0  0
 26 27  1  0  0  0  0
 27 28  1  0  0  0  0
 28 29  1  0  0  0  0
 29 30  1  0  0  0  0
 30 31  1  0  0  0  0
 31 32  1  0  0  0  0
  1 33  1  0  0  0  0
  1 34  1  0  0  0  0
  1 35  1  0  0  0  0
  2 36  1  0  0  0  0
  2 37  1  0  0  0  0
  3 38  1  0  0  0  0
  3 39  1  0  0  0  0
  4 40  1  0  0  0  0
  4 41  1  0  0  0  0
  5 42  1  0  0  0  0
  5 43  1  0  0  0  0
  6 44  1  0  0  0  0
  6 45  1  0  0  0  0
  7 46  1  0  0  0  0
  7 47  1  0  0  0  0
  8 48  1  0  0  0  0
  8 49  1  0  0  0  0
  9 50  1  0  0  0  0
  9 51  1  0  0  0  0
 10 52  1  0  0  0  0
 10 53  1  0  0  0  0
 11 54  1  0  0  0  0
 11 55  1  0  0  0  0
 12 56  1  0  0  0  0
 12 57  1  0  0  0  0
 13 58  1  0  0  0  0
 13 59  1  0  0  0  0
 14 60  1  0  0  0  0
 14 61  1  0  0  0  0
 15 62  1  0  0  0  0
 15 63  1  0  0  0  0
 18 64  1  0  0  0  0
 18 65  1  0  0  0  0
 19 66  1  0  0  0  0
 19 67  1  0  0  0  0
 20 68  1  0  0  0  0
 20 69  1  0  0  0  0
 21 70  1  0  0  0  0
 21 71  1  0  0  0  0
 22 72  1  0  0  0  0
 22 73  1  0  0  0  0
 23 74  1  0  0  0  0
 23 75  1  0  0  0  0
 24 76  1  0  0  0  0
 24 77  1  0  0  0  0
 25 78  1  0  0  0  0
 25 79  1  0  0  0  0
 26 80  1  0  0  0  0
 26 81  1  0  0  0  0
 27 82  1  0  0  0  0
 27 83  1  0  0  0  0
 28 84  1  0  0  0  0
 28 85  1  0  0  0  0
 29 86  1  0  0  0  0
 29 87  1  0  0  0  0
 30 88  1  0  0  0  0
 30 89  1  0  0  0  0
 31 90  1  0  0  0  0
 31 91  1  0  0  0  0
 32 92  1  0  0  0  0
 32 93  1  0  0  0  0
 32 94  1  0  0  0  0
M  END
$$$$
