C2H6OS2
APtclcactv06211806323D 0   0.00000     0.00000
 
 11 10  0  0  0  0  0  0  0  0999 V2000
    2.3016   -0.4301   -0.2152 C   0  0  0  0  0  0  0  0  0  0  0  0
    0.9752    0.7272    0.2229 S   0  0  0  0  0  0  0  0  0  0  0  0
   -0.7162   -0.2578   -0.3866 S   0  0  0  0  0  0  0  0  0  0  0  0
   -0.7622   -1.3816    0.4818 O   0  0  0  0  0  0  0  0  0  0  0  0
   -2.0426    0.8995    0.0515 C   0  0  0  0  0  0  0  0  0  0  0  0
    2.1516   -1.3716    0.3133 H   0  0  0  0  0  0  0  0  0  0  0  0
    2.2861   -0.6104   -1.2901 H   0  0  0  0  0  0  0  0  0  0  0  0
    3.2640   -0.0038    0.0680 H   0  0  0  0  0  0  0  0  0  0  0  0
   -1.8927    1.8410   -0.4770 H   0  0  0  0  0  0  0  0  0  0  0  0
   -3.0050    0.4732   -0.2317 H   0  0  0  0  0  0  0  0  0  0  0  0
   -2.0272    1.0798    1.1264 H   0  0  0  0  0  0  0  0  0  0  0  0
  1  2  1  0  0  0  0
  2  3  1  0  0  0  0
  3  4  2  0  0  0  0
  3  5  1  0  0  0  0
  1  6  1  0  0  0  0
  1  7  1  0  0  0  0
  1  8  1  0  0  0  0
  5  9  1  0  0  0  0
  5 10  1  0  0  0  0
  5 11  1  0  0  0  0
M  END
$$$$
