C30H50O
APtclcactv06281817193D 0   0.00000     0.00000
 
 81 84  0  0  0  0  0  0  0  0999 V2000
    8.4802   -0.1766   -0.7866 C   0  0  0  0  0  0  0  0  0  0  0  0
    7.0447   -0.4394   -1.1623 C   0  0  0  0  0  0  0  0  0  0  0  0
    6.1088    0.4041   -0.8035 C   0  0  0  0  0  0  0  0  0  0  0  0
    4.6732    0.1413   -1.1793 C   0  0  0  0  0  0  0  0  0  0  0  0
    3.9657   -0.5700   -0.0241 C   0  0  0  0  0  0  0  0  0  0  0  0
    2.5082   -0.8368   -0.4056 C   0  0  0  0  0  0  0  0  0  0  0  0
    2.4594   -1.8199   -1.5770 C   0  0  0  0  0  0  0  0  0  0  0  0
    1.7715   -1.4320    0.7881 C   0  0  0  0  0  0  0  0  0  0  0  0
    1.9858   -0.5506    2.0498 C   0  0  0  0  0  0  0  0  0  0  0  0
    0.6146    0.1209    2.3542 C   0  0  0  0  0  0  0  0  0  0  0  0
   -0.0898    0.0327    0.9935 C   0  0  0  0  0  0  0  0  0  0  0  0
    0.2495   -1.4196    0.5826 C   0  0  0  0  0  0  0  0  0  0  0  0
   -0.2920   -1.7157   -0.7816 C   0  0  0  0  0  0  0  0  0  0  0  0
   -1.7854   -1.3913   -0.9092 C   0  0  0  0  0  0  0  0  0  0  0  0
   -2.4200   -0.8364    0.3519 C   0  0  0  0  0  0  0  0  0  0  0  0
   -1.5745    0.2266    0.9860 C   0  0  0  0  0  0  0  0  0  0  0  0
   -2.0472    1.3451    1.4711 C   0  0  0  0  0  0  0  0  0  0  0  0
   -3.5092    1.6992    1.3673 C   0  0  0  0  0  0  0  0  0  0  0  0
   -4.0082    1.0808    0.0558 C   0  0  0  0  0  0  0  0  0  0  0  0
   -3.8740   -0.4268    0.1260 C   0  0  0  0  0  0  0  0  0  0  0  0
   -4.4060   -1.0630   -1.1584 C   0  0  0  0  0  0  0  0  0  0  0  0
   -5.8603   -0.6485   -1.3795 C   0  0  0  0  0  0  0  0  0  0  0  0
   -5.9609    0.8650   -1.5326 C   0  0  0  0  0  0  0  0  0  0  0  0
   -5.3739    1.5988   -0.3318 C   0  0  0  0  0  0  0  0  0  0  0  0
   -6.3680    1.6187    0.8243 C   0  0  0  0  0  0  0  0  0  0  0  0
   -5.2772    1.2725   -2.7222 O   0  0  0  0  0  0  0  0  0  0  0  0
   -4.6568   -1.0054    1.3075 C   0  0  0  0  0  0  0  0  0  0  0  0
   -0.2936   -2.4391    1.5921 C   0  0  0  0  0  0  0  0  0  0  0  0
    6.4676    1.6372   -0.0151 C   0  0  0  0  0  0  0  0  0  0  0  0
    6.0576    2.8833   -0.8025 C   0  0  0  0  0  0  0  0  0  0  0  0
    5.7322    1.6167    1.3264 C   0  0  0  0  0  0  0  0  0  0  0  0
    8.8009    0.7717   -1.2178 H   0  0  0  0  0  0  0  0  0  0  0  0
    8.5691   -0.1306    0.2988 H   0  0  0  0  0  0  0  0  0  0  0  0
    9.1090   -0.9807   -1.1689 H   0  0  0  0  0  0  0  0  0  0  0  0
    6.7875   -1.3231   -1.7274 H   0  0  0  0  0  0  0  0  0  0  0  0
    4.1724    1.0874   -1.3847 H   0  0  0  0  0  0  0  0  0  0  0  0
    4.6398   -0.4881   -2.0686 H   0  0  0  0  0  0  0  0  0  0  0  0
    4.4665   -1.5161    0.1813 H   0  0  0  0  0  0  0  0  0  0  0  0
    3.9991    0.0594    0.8651 H   0  0  0  0  0  0  0  0  0  0  0  0
    2.0317    0.0992   -0.6968 H   0  0  0  0  0  0  0  0  0  0  0  0
    1.4280   -2.1261   -1.7516 H   0  0  0  0  0  0  0  0  0  0  0  0
    2.8520   -1.3380   -2.4724 H   0  0  0  0  0  0  0  0  0  0  0  0
    3.0636   -2.6961   -1.3414 H   0  0  0  0  0  0  0  0  0  0  0  0
    2.1049   -2.4503    0.9807 H   0  0  0  0  0  0  0  0  0  0  0  0
    2.2917   -1.1714    2.8900 H   0  0  0  0  0  0  0  0  0  0  0  0
    2.7366    0.2113    1.8476 H   0  0  0  0  0  0  0  0  0  0  0  0
    0.0758   -0.3959    3.1362 H   0  0  0  0  0  0  0  0  0  0  0  0
    0.7674    1.1691    2.6303 H   0  0  0  0  0  0  0  0  0  0  0  0
    0.3752    0.7556    0.2975 H   0  0  0  0  0  0  0  0  0  0  0  0
    0.2444   -1.1380   -1.5434 H   0  0  0  0  0  0  0  0  0  0  0  0
   -0.1391   -2.7795   -1.0088 H   0  0  0  0  0  0  0  0  0  0  0  0
   -1.9114   -0.6633   -1.7220 H   0  0  0  0  0  0  0  0  0  0  0  0
   -2.3147   -2.3052   -1.2071 H   0  0  0  0  0  0  0  0  0  0  0  0
   -2.5170   -1.6572    1.0688 H   0  0  0  0  0  0  0  0  0  0  0  0
   -1.3695    2.0286    1.9554 H   0  0  0  0  0  0  0  0  0  0  0  0
   -4.0451    1.3288    2.2299 H   0  0  0  0  0  0  0  0  0  0  0  0
   -3.6067    2.7879    1.3143 H   0  0  0  0  0  0  0  0  0  0  0  0
   -3.2956    1.4247   -0.7349 H   0  0  0  0  0  0  0  0  0  0  0  0
   -3.8066   -0.7322   -2.0073 H   0  0  0  0  0  0  0  0  0  0  0  0
   -4.3482   -2.1493   -1.0775 H   0  0  0  0  0  0  0  0  0  0  0  0
   -6.2186   -1.1202   -2.3051 H   0  0  0  0  0  0  0  0  0  0  0  0
   -6.4916   -0.9930   -0.5660 H   0  0  0  0  0  0  0  0  0  0  0  0
   -7.0184    1.1408   -1.6322 H   0  0  0  0  0  0  0  0  0  0  0  0
   -5.2433    2.6603   -0.6491 H   0  0  0  0  0  0  0  0  0  0  0  0
   -6.6639    0.5980    1.0667 H   0  0  0  0  0  0  0  0  0  0  0  0
   -5.9025    2.0787    1.6960 H   0  0  0  0  0  0  0  0  0  0  0  0
   -7.2483    2.1936    0.5367 H   0  0  0  0  0  0  0  0  0  0  0  0
   -5.6301    0.8803   -3.5326 H   0  0  0  0  0  0  0  0  0  0  0  0
   -5.7245   -0.8647    1.1397 H   0  0  0  0  0  0  0  0  0  0  0  0
   -4.4407   -2.0698    1.4001 H   0  0  0  0  0  0  0  0  0  0  0  0
   -4.3624   -0.4938    2.2239 H   0  0  0  0  0  0  0  0  0  0  0  0
   -1.3826   -2.4494    1.5480 H   0  0  0  0  0  0  0  0  0  0  0  0
    0.0893   -3.4303    1.3492 H   0  0  0  0  0  0  0  0  0  0  0  0
    0.0267   -2.1619    2.5965 H   0  0  0  0  0  0  0  0  0  0  0  0
    7.5433    1.6560    0.1605 H   0  0  0  0  0  0  0  0  0  0  0  0
    4.9820    2.8646   -0.9780 H   0  0  0  0  0  0  0  0  0  0  0  0
    6.3172    3.7752   -0.2322 H   0  0  0  0  0  0  0  0  0  0  0  0
    6.5815    2.8979   -1.7582 H   0  0  0  0  0  0  0  0  0  0  0  0
    6.0244    0.7290    1.8874 H   0  0  0  0  0  0  0  0  0  0  0  0
    5.9918    2.5086    1.8967 H   0  0  0  0  0  0  0  0  0  0  0  0
    4.6566    1.5980    1.1509 H   0  0  0  0  0  0  0  0  0  0  0  0
  1  2  1  0  0  0  0
  2  3  2  0  0  0  0
  3  4  1  0  0  0  0
  4  5  1  0  0  0  0
  5  6  1  0  0  0  0
  6  7  1  0  0  0  0
  6  8  1  0  0  0  0
  8  9  1  0  0  0  0
  9 10  1  0  0  0  0
 10 11  1  0  0  0  0
 11 12  1  0  0  0  0
  8 12  1  0  0  0  0
 12 13  1  0  0  0  0
 13 14  1  0  0  0  0
 14 15  1  0  0  0  0
 15 16  1  0  0  0  0
 11 16  1  0  0  0  0
 16 17  2  0  0  0  0
 17 18  1  0  0  0  0
 18 19  1  0  0  0  0
 19 20  1  0  0  0  0
 15 20  1  0  0  0  0
 20 21  1  0  0  0  0
 21 22  1  0  0  0  0
 22 23  1  0  0  0  0
 23 24  1  0  0  0  0
 19 24  1  0  0  0  0
 24 25  1  0  0  0  0
 23 26  1  0  0  0  0
 20 27  1  0  0  0  0
 12 28  1  0  0  0  0
  3 29  1  0  0  0  0
 29 30  1  0  0  0  0
 29 31  1  0  0  0  0
  1 32  1  0  0  0  0
  1 33  1  0  0  0  0
  1 34  1  0  0  0  0
  2 35  1  0  0  0  0
  4 36  1  0  0  0  0
  4 37  1  0  0  0  0
  5 38  1  0  0  0  0
  5 39  1  0  0  0  0
  6 40  1  0  0  0  0
  7 41  1  0  0  0  0
  7 42  1  0  0  0  0
  7 43  1  0  0  0  0
  8 44  1  0  0  0  0
  9 45  1  0  0  0  0
  9 46  1  0  0  0  0
 10 47  1  0  0  0  0
 10 48  1  0  0  0  0
 11 49  1  0  0  0  0
 13 50  1  0  0  0  0
 13 51  1  0  0  0  0
 14 52  1  0  0  0  0
 14 53  1  0  0  0  0
 15 54  1  0  0  0  0
 17 55  1  0  0  0  0
 18 56  1  0  0  0  0
 18 57  1  0  0  0  0
 19 58  1  0  0  0  0
 21 59  1  0  0  0  0
 21 60  1  0  0  0  0
 22 61  1  0  0  0  0
 22 62  1  0  0  0  0
 23 63  1  0  0  0  0
 24 64  1  0  0  0  0
 25 65  1  0  0  0  0
 25 66  1  0  0  0  0
 25 67  1  0  0  0  0
 26 68  1  0  0  0  0
 27 69  1  0  0  0  0
 27 70  1  0  0  0  0
 27 71  1  0  0  0  0
 28 72  1  0  0  0  0
 28 73  1  0  0  0  0
 28 74  1  0  0  0  0
 29 75  1  0  0  0  0
 30 76  1  0  0  0  0
 30 77  1  0  0  0  0
 30 78  1  0  0  0  0
 31 79  1  0  0  0  0
 31 80  1  0  0  0  0
 31 81  1  0  0  0  0
M  END
$$$$
