C11H10O5
APtclcactv06211804323D 0   0.00000     0.00000
 
 26 26  0  0  0  0  0  0  0  0999 V2000
   -3.1790    2.0010   -0.5320 C   0  0  0  0  0  0  0  0  0  0  0  0
   -3.8605    0.8173   -0.7511 C   0  0  0  0  0  0  0  0  0  0  0  0
   -3.2489   -0.3993   -0.5075 C   0  0  0  0  0  0  0  0  0  0  0  0
   -1.9394   -0.4385   -0.0389 C   0  0  0  0  0  0  0  0  0  0  0  0
   -1.2437    0.7674    0.1843 C   0  0  0  0  0  0  0  0  0  0  0  0
   -1.8773    1.9836   -0.0671 C   0  0  0  0  0  0  0  0  0  0  0  0
    0.1430    0.7424    0.6802 C   0  0  0  0  0  0  0  0  0  0  0  0
    0.3758    0.9964    1.8426 O   0  0  0  0  0  0  0  0  0  0  0  0
    1.2724    0.4010   -0.2573 C   0  0  0  0  0  0  0  0  0  0  0  0
    2.5987    0.4459    0.5043 C   0  0  0  0  0  0  0  0  0  0  0  0
    3.7281    0.1045   -0.4331 C   0  0  0  0  0  0  0  0  0  0  0  0
    3.4961   -0.1487   -1.5916 O   0  0  0  0  0  0  0  0  0  0  0  0
    4.9918    0.0818    0.0188 O   0  0  0  0  0  0  0  0  0  0  0  0
   -1.2819   -1.7364    0.2238 C   0  0  0  0  0  0  0  0  0  0  0  0
   -0.1790   -1.7666    0.7315 O   0  0  0  0  0  0  0  0  0  0  0  0
   -1.9060   -2.8854   -0.0999 O   0  0  0  0  0  0  0  0  0  0  0  0
   -3.6655    2.9447   -0.7297 H   0  0  0  0  0  0  0  0  0  0  0  0
   -4.8773    0.8432   -1.1145 H   0  0  0  0  0  0  0  0  0  0  0  0
   -3.7881   -1.3189   -0.6808 H   0  0  0  0  0  0  0  0  0  0  0  0
   -1.3512    2.9117    0.1010 H   0  0  0  0  0  0  0  0  0  0  0  0
    1.1193   -0.5996   -0.6615 H   0  0  0  0  0  0  0  0  0  0  0  0
    1.2977    1.1228   -1.0737 H   0  0  0  0  0  0  0  0  0  0  0  0
    2.7518    1.4465    0.9086 H   0  0  0  0  0  0  0  0  0  0  0  0
    2.5734   -0.2759    1.3208 H   0  0  0  0  0  0  0  0  0  0  0  0
    5.6825   -0.1426   -0.6198 H   0  0  0  0  0  0  0  0  0  0  0  0
   -1.4365   -3.7089    0.0909 H   0  0  0  0  0  0  0  0  0  0  0  0
  1  2  2  0  0  0  0
  2  3  1  0  0  0  0
  3  4  2  0  0  0  0
  4  5  1  0  0  0  0
  5  6  2  0  0  0  0
  1  6  1  0  0  0  0
  5  7  1  0  0  0  0
  7  8  2  0  0  0  0
  7  9  1  0  0  0  0
  9 10  1  0  0  0  0
 10 11  1  0  0  0  0
 11 12  2  0  0  0  0
 11 13  1  0  0  0  0
  4 14  1  0  0  0  0
 14 15  2  0  0  0  0
 14 16  1  0  0  0  0
  1 17  1  0  0  0  0
  2 18  1  0  0  0  0
  3 19  1  0  0  0  0
  6 20  1  0  0  0  0
  9 21  1  0  0  0  0
  9 22  1  0  0  0  0
 10 23  1  0  0  0  0
 10 24  1  0  0  0  0
 13 25  1  0  0  0  0
 16 26  1  0  0  0  0
M  END
$$$$
