C9H10O3
APtclcactv06211806323D 0   0.00000     0.00000
 
 22 22  0  0  0  0  0  0  0  0999 V2000
    3.4573    1.3732    0.0124 C   0  0  0  0  0  0  0  0  0  0  0  0
    2.6970    0.0722   -0.0006 C   0  0  0  0  0  0  0  0  0  0  0  0
    3.2980   -0.9814   -0.0093 O   0  0  0  0  0  0  0  0  0  0  0  0
    1.2284    0.0799   -0.0028 C   0  0  0  0  0  0  0  0  0  0  0  0
    0.5199   -1.1280   -0.0149 C   0  0  0  0  0  0  0  0  0  0  0  0
   -0.8604   -1.1142   -0.0169 C   0  0  0  0  0  0  0  0  0  0  0  0
   -1.5461    0.1004   -0.0074 C   0  0  0  0  0  0  0  0  0  0  0  0
   -0.8441    1.2991    0.0041 C   0  0  0  0  0  0  0  0  0  0  0  0
    0.5327    1.2947    0.0129 C   0  0  0  0  0  0  0  0  0  0  0  0
   -2.9036    0.1112   -0.0099 O   0  0  0  0  0  0  0  0  0  0  0  0
   -3.5422    1.3895    0.0002 C   0  0  0  0  0  0  0  0  0  0  0  0
   -1.5519   -2.2852   -0.0286 O   0  0  0  0  0  0  0  0  0  0  0  0
    4.5279    1.1685    0.0121 H   0  0  0  0  0  0  0  0  0  0  0  0
    3.1984    1.9543   -0.8728 H   0  0  0  0  0  0  0  0  0  0  0  0
    3.1956    1.9381    0.9071 H   0  0  0  0  0  0  0  0  0  0  0  0
    1.0519   -2.0678   -0.0230 H   0  0  0  0  0  0  0  0  0  0  0  0
   -1.3797    2.2369    0.0110 H   0  0  0  0  0  0  0  0  0  0  0  0
    1.0758    2.2282    0.0222 H   0  0  0  0  0  0  0  0  0  0  0  0
   -4.6239    1.2553   -0.0030 H   0  0  0  0  0  0  0  0  0  0  0  0
   -3.2466    1.9363    0.8957 H   0  0  0  0  0  0  0  0  0  0  0  0
   -3.2433    1.9521   -0.8842 H   0  0  0  0  0  0  0  0  0  0  0  0
   -1.7533   -2.6319    0.8513 H   0  0  0  0  0  0  0  0  0  0  0  0
  1  2  1  0  0  0  0
  2  3  2  0  0  0  0
  2  4  1  0  0  0  0
  4  5  2  0  0  0  0
  5  6  1  0  0  0  0
  6  7  2  0  0  0  0
  7  8  1  0  0  0  0
  8  9  2  0  0  0  0
  4  9  1  0  0  0  0
  7 10  1  0  0  0  0
 10 11  1  0  0  0  0
  6 12  1  0  0  0  0
  1 13  1  0  0  0  0
  1 14  1  0  0  0  0
  1 15  1  0  0  0  0
  5 16  1  0  0  0  0
  8 17  1  0  0  0  0
  9 18  1  0  0  0  0
 11 19  1  0  0  0  0
 11 20  1  0  0  0  0
 11 21  1  0  0  0  0
 12 22  1  0  0  0  0
M  END
$$$$
