C8H15NO9S2
APtclcactv06281817133D 0   0.00000     0.00000
 
 35 35  0  0  0  0  0  0  0  0999 V2000
    1.7027    2.5973   -1.7979 C   0  0  0  0  0  0  0  0  0  0  0  0
    0.9499    1.7592   -0.7970 C   0  0  0  0  0  0  0  0  0  0  0  0
    1.5752    0.8676   -0.1000 N   0  0  0  0  0  0  0  0  0  0  0  0
    2.9674    0.6787   -0.2772 O   0  0  0  0  0  0  0  0  0  0  0  0
    3.5632   -0.4039    0.6112 S   0  0  0  0  0  0  0  0  0  0  0  0
    4.9731   -0.3213    0.4538 O   0  0  0  0  0  0  0  0  0  0  0  0
    2.9139   -0.2922    1.8703 O   0  0  0  0  0  0  0  0  0  0  0  0
    3.1437   -1.7461    0.0289 O   0  0  0  0  0  0  0  0  0  0  0  0
   -0.7823    1.9943   -0.5764 S   0  0  0  0  0  0  0  0  0  0  0  0
   -1.1077    0.7542    0.7012 C   0  0  0  0  0  0  0  0  0  0  0  0
   -2.5662    0.8586    1.1545 C   0  0  0  0  0  0  0  0  0  0  0  0
   -3.4848    0.5546   -0.0330 C   0  0  0  0  0  0  0  0  0  0  0  0
   -3.1454   -0.8336   -0.5845 C   0  0  0  0  0  0  0  0  0  0  0  0
   -1.6645   -0.8727   -0.9706 C   0  0  0  0  0  0  0  0  0  0  0  0
   -0.8673   -0.5509    0.1709 O   0  0  0  0  0  0  0  0  0  0  0  0
   -1.3033   -2.2743   -1.4665 C   0  0  0  0  0  0  0  0  0  0  0  0
    0.0465   -2.2804   -1.9356 O   0  0  0  0  0  0  0  0  0  0  0  0
   -3.4045   -1.8211    0.4153 O   0  0  0  0  0  0  0  0  0  0  0  0
   -4.8470    0.5778    0.3982 O   0  0  0  0  0  0  0  0  0  0  0  0
   -2.8099   -0.0841    2.2004 O   0  0  0  0  0  0  0  0  0  0  0  0
    1.6964    2.0987   -2.7672 H   0  0  0  0  0  0  0  0  0  0  0  0
    1.2244    3.5726   -1.8880 H   0  0  0  0  0  0  0  0  0  0  0  0
    2.7317    2.7269   -1.4627 H   0  0  0  0  0  0  0  0  0  0  0  0
    3.4728   -2.5094    0.5231 H   0  0  0  0  0  0  0  0  0  0  0  0
   -0.4492    0.9278    1.5524 H   0  0  0  0  0  0  0  0  0  0  0  0
   -2.7632    1.8670    1.5186 H   0  0  0  0  0  0  0  0  0  0  0  0
   -3.3345    1.3029   -0.8112 H   0  0  0  0  0  0  0  0  0  0  0  0
   -3.7566   -1.0354   -1.4642 H   0  0  0  0  0  0  0  0  0  0  0  0
   -1.4759   -0.1471   -1.7619 H   0  0  0  0  0  0  0  0  0  0  0  0
   -1.4068   -2.9870   -0.6483 H   0  0  0  0  0  0  0  0  0  0  0  0
   -1.9720   -2.5554   -2.2800 H   0  0  0  0  0  0  0  0  0  0  0  0
    0.3441   -3.1392   -2.2659 H   0  0  0  0  0  0  0  0  0  0  0  0
   -4.3247   -1.8493    0.7112 H   0  0  0  0  0  0  0  0  0  0  0  0
   -5.1287    1.4265    0.7660 H   0  0  0  0  0  0  0  0  0  0  0  0
   -2.2581    0.0462    2.9838 H   0  0  0  0  0  0  0  0  0  0  0  0
  1  2  1  0  0  0  0
  2  3  2  0  0  0  0
  3  4  1  0  0  0  0
  4  5  1  0  0  0  0
  5  6  2  0  0  0  0
  5  7  2  0  0  0  0
  5  8  1  0  0  0  0
  2  9  1  0  0  0  0
  9 10  1  0  0  0  0
 10 11  1  0  0  0  0
 11 12  1  0  0  0  0
 12 13  1  0  0  0  0
 13 14  1  0  0  0  0
 14 15  1  0  0  0  0
 10 15  1  0  0  0  0
 14 16  1  0  0  0  0
 16 17  1  0  0  0  0
 13 18  1  0  0  0  0
 12 19  1  0  0  0  0
 11 20  1  0  0  0  0
  1 21  1  0  0  0  0
  1 22  1  0  0  0  0
  1 23  1  0  0  0  0
  8 24  1  0  0  0  0
 10 25  1  0  0  0  0
 11 26  1  0  0  0  0
 12 27  1  0  0  0  0
 13 28  1  0  0  0  0
 14 29  1  0  0  0  0
 16 30  1  0  0  0  0
 16 31  1  0  0  0  0
 17 32  1  0  0  0  0
 18 33  1  0  0  0  0
 19 34  1  0  0  0  0
 20 35  1  0  0  0  0
M  END
$$$$
