C11H19NO10S2
APtclcactv06281817183D 0   0.00000     0.00000
 
 43 43  0  0  0  0  0  0  0  0999 V2000
    1.7615   -4.8526   -0.3320 C   0  0  0  0  0  0  0  0  0  0  0  0
    1.4767   -4.0477    0.6615 C   0  0  0  0  0  0  0  0  0  0  0  0
    1.8338   -2.5862    0.5733 C   0  0  0  0  0  0  0  0  0  0  0  0
    0.5622   -1.7429    0.6854 C   0  0  0  0  0  0  0  0  0  0  0  0
    0.9027   -0.2901    0.4747 C   0  0  0  0  0  0  0  0  0  0  0  0
    2.1254    0.0602    0.2420 N   0  0  0  0  0  0  0  0  0  0  0  0
    2.4293    1.4085   -0.0659 O   0  0  0  0  0  0  0  0  0  0  0  0
    3.9081    1.6684   -0.3150 S   0  0  0  0  0  0  0  0  0  0  0  0
    4.0578    3.0786   -0.4064 O   0  0  0  0  0  0  0  0  0  0  0  0
    4.6191    0.8705    0.6215 O   0  0  0  0  0  0  0  0  0  0  0  0
    4.2378    1.1111   -1.6923 O   0  0  0  0  0  0  0  0  0  0  0  0
   -0.3653    0.9313    0.5455 S   0  0  0  0  0  0  0  0  0  0  0  0
   -1.7798   -0.1092    0.9845 C   0  0  0  0  0  0  0  0  0  0  0  0
   -2.9234    0.7721    1.4936 C   0  0  0  0  0  0  0  0  0  0  0  0
   -3.3699    1.7143    0.3714 C   0  0  0  0  0  0  0  0  0  0  0  0
   -3.7765    0.8814   -0.8481 C   0  0  0  0  0  0  0  0  0  0  0  0
   -2.5999   -0.0041   -1.2667 C   0  0  0  0  0  0  0  0  0  0  0  0
   -2.2148   -0.8331   -0.1682 O   0  0  0  0  0  0  0  0  0  0  0  0
   -3.0176   -0.8831   -2.4474 C   0  0  0  0  0  0  0  0  0  0  0  0
   -1.8879   -1.6243   -2.9125 O   0  0  0  0  0  0  0  0  0  0  0  0
   -4.8969    0.0600   -0.5135 O   0  0  0  0  0  0  0  0  0  0  0  0
   -4.4855    2.4899    0.8141 O   0  0  0  0  0  0  0  0  0  0  0  0
   -4.0212   -0.0522    1.8903 O   0  0  0  0  0  0  0  0  0  0  0  0
    2.7248   -2.2485    1.6383 O   0  0  0  0  0  0  0  0  0  0  0  0
    2.2521   -4.4689   -1.2143 H   0  0  0  0  0  0  0  0  0  0  0  0
    1.5096   -5.9008   -0.2670 H   0  0  0  0  0  0  0  0  0  0  0  0
    0.9861   -4.4314    1.5438 H   0  0  0  0  0  0  0  0  0  0  0  0
    2.3184   -2.3877   -0.3826 H   0  0  0  0  0  0  0  0  0  0  0  0
   -0.1534   -2.0619   -0.0724 H   0  0  0  0  0  0  0  0  0  0  0  0
    0.1255   -1.8738    1.6755 H   0  0  0  0  0  0  0  0  0  0  0  0
    5.1623    1.2253   -1.9519 H   0  0  0  0  0  0  0  0  0  0  0  0
   -1.4864   -0.8110    1.7653 H   0  0  0  0  0  0  0  0  0  0  0  0
   -2.5799    1.3580    2.3461 H   0  0  0  0  0  0  0  0  0  0  0  0
   -2.5472    2.3769    0.1027 H   0  0  0  0  0  0  0  0  0  0  0  0
   -4.0431    1.5455   -1.6703 H   0  0  0  0  0  0  0  0  0  0  0  0
   -1.7588    0.6239   -1.5606 H   0  0  0  0  0  0  0  0  0  0  0  0
   -3.7985   -1.5733   -2.1281 H   0  0  0  0  0  0  0  0  0  0  0  0
   -3.3959   -0.2538   -3.2529 H   0  0  0  0  0  0  0  0  0  0  0  0
   -2.0796   -2.2046   -3.6619 H   0  0  0  0  0  0  0  0  0  0  0  0
   -5.6785    0.5559   -0.2338 H   0  0  0  0  0  0  0  0  0  0  0  0
   -4.3009    3.0377    1.5892 H   0  0  0  0  0  0  0  0  0  0  0  0
   -3.8082   -0.6782    2.5958 H   0  0  0  0  0  0  0  0  0  0  0  0
    2.3587   -2.4001    2.5204 H   0  0  0  0  0  0  0  0  0  0  0  0
  1  2  2  0  0  0  0
  2  3  1  0  0  0  0
  3  4  1  0  0  0  0
  4  5  1  0  0  0  0
  5  6  2  0  0  0  0
  6  7  1  0  0  0  0
  7  8  1  0  0  0  0
  8  9  2  0  0  0  0
  8 10  2  0  0  0  0
  8 11  1  0  0  0  0
  5 12  1  0  0  0  0
 12 13  1  0  0  0  0
 13 14  1  0  0  0  0
 14 15  1  0  0  0  0
 15 16  1  0  0  0  0
 16 17  1  0  0  0  0
 17 18  1  0  0  0  0
 13 18  1  0  0  0  0
 17 19  1  0  0  0  0
 19 20  1  0  0  0  0
 16 21  1  0  0  0  0
 15 22  1  0  0  0  0
 14 23  1  0  0  0  0
  3 24  1  0  0  0  0
  1 25  1  0  0  0  0
  1 26  1  0  0  0  0
  2 27  1  0  0  0  0
  3 28  1  0  0  0  0
  4 29  1  0  0  0  0
  4 30  1  0  0  0  0
 11 31  1  0  0  0  0
 13 32  1  0  0  0  0
 14 33  1  0  0  0  0
 15 34  1  0  0  0  0
 16 35  1  0  0  0  0
 17 36  1  0  0  0  0
 19 37  1  0  0  0  0
 19 38  1  0  0  0  0
 20 39  1  0  0  0  0
 21 40  1  0  0  0  0
 22 41  1  0  0  0  0
 23 42  1  0  0  0  0
 24 43  1  0  0  0  0
M  END
$$$$
