C16H20N2O9S2
APtclcactv06281817093D 0   0.00000     0.00000
 
 49 51  0  0  0  0  0  0  0  0999 V2000
   -4.3197   -2.2806   -2.2033 C   0  0  0  0  0  0  0  0  0  0  0  0
   -5.3905   -2.5299   -1.3563 C   0  0  0  0  0  0  0  0  0  0  0  0
   -5.2300   -2.4843    0.0115 C   0  0  0  0  0  0  0  0  0  0  0  0
   -3.9834   -2.1856    0.5511 C   0  0  0  0  0  0  0  0  0  0  0  0
   -2.9010   -1.9337   -0.3119 C   0  0  0  0  0  0  0  0  0  0  0  0
   -3.0861   -1.9853   -1.6945 C   0  0  0  0  0  0  0  0  0  0  0  0
   -1.7509   -1.6562    0.5519 C   0  0  0  0  0  0  0  0  0  0  0  0
   -2.1806   -1.7511    1.8201 C   0  0  0  0  0  0  0  0  0  0  0  0
   -3.5119   -2.0667    1.8393 N   0  0  0  0  0  0  0  0  0  0  0  0
   -0.3507   -1.3274    0.1021 C   0  0  0  0  0  0  0  0  0  0  0  0
   -0.2458    0.1503   -0.1743 C   0  0  0  0  0  0  0  0  0  0  0  0
   -1.2768    0.9133   -0.0111 N   0  0  0  0  0  0  0  0  0  0  0  0
   -1.1511    2.3155   -0.1630 O   0  0  0  0  0  0  0  0  0  0  0  0
   -2.4476    3.0810    0.0594 S   0  0  0  0  0  0  0  0  0  0  0  0
   -2.1912    4.4248   -0.3248 O   0  0  0  0  0  0  0  0  0  0  0  0
   -3.4822    2.2929   -0.5131 O   0  0  0  0  0  0  0  0  0  0  0  0
   -2.7052    3.1046    1.5593 O   0  0  0  0  0  0  0  0  0  0  0  0
    1.2817    0.8383   -0.7201 S   0  0  0  0  0  0  0  0  0  0  0  0
    2.2751   -0.6688   -0.8544 C   0  0  0  0  0  0  0  0  0  0  0  0
    3.5253   -0.3834   -1.6905 C   0  0  0  0  0  0  0  0  0  0  0  0
    4.3764    0.6723   -0.9781 C   0  0  0  0  0  0  0  0  0  0  0  0
    4.7194    0.1716    0.4283 C   0  0  0  0  0  0  0  0  0  0  0  0
    3.4230   -0.1352    1.1826 C   0  0  0  0  0  0  0  0  0  0  0  0
    2.6649   -1.1006    0.4509 O   0  0  0  0  0  0  0  0  0  0  0  0
    3.7581   -0.6928    2.5674 C   0  0  0  0  0  0  0  0  0  0  0  0
    2.5527   -0.8698    3.3141 O   0  0  0  0  0  0  0  0  0  0  0  0
    5.5090   -1.0156    0.3332 O   0  0  0  0  0  0  0  0  0  0  0  0
    5.5813    0.8916   -1.7145 O   0  0  0  0  0  0  0  0  0  0  0  0
    4.2833   -1.5853   -1.8417 O   0  0  0  0  0  0  0  0  0  0  0  0
   -4.4613   -2.3247   -3.2731 H   0  0  0  0  0  0  0  0  0  0  0  0
   -6.3593   -2.7616   -1.7734 H   0  0  0  0  0  0  0  0  0  0  0  0
   -6.0695   -2.6794    0.6623 H   0  0  0  0  0  0  0  0  0  0  0  0
   -2.2574   -1.7928   -2.3598 H   0  0  0  0  0  0  0  0  0  0  0  0
   -1.5664   -1.6006    2.6956 H   0  0  0  0  0  0  0  0  0  0  0  0
   -4.0442   -2.1883    2.6410 H   0  0  0  0  0  0  0  0  0  0  0  0
    0.3563   -1.6016    0.8851 H   0  0  0  0  0  0  0  0  0  0  0  0
   -0.1207   -1.8842   -0.8063 H   0  0  0  0  0  0  0  0  0  0  0  0
   -3.5133    3.5716    1.8123 H   0  0  0  0  0  0  0  0  0  0  0  0
    1.6867   -1.4502   -1.3354 H   0  0  0  0  0  0  0  0  0  0  0  0
    3.2303   -0.0118   -2.6718 H   0  0  0  0  0  0  0  0  0  0  0  0
    3.8164    1.6047   -0.9067 H   0  0  0  0  0  0  0  0  0  0  0  0
    5.2783    0.9401    0.9623 H   0  0  0  0  0  0  0  0  0  0  0  0
    2.8398    0.7793    1.2901 H   0  0  0  0  0  0  0  0  0  0  0  0
    4.2633   -1.6526    2.4601 H   0  0  0  0  0  0  0  0  0  0  0  0
    4.4112    0.0049    3.0917 H   0  0  0  0  0  0  0  0  0  0  0  0
    2.6896   -1.2213    4.2045 H   0  0  0  0  0  0  0  0  0  0  0  0
    6.3448   -0.8954   -0.1381 H   0  0  0  0  0  0  0  0  0  0  0  0
    5.4384    1.2037   -2.6185 H   0  0  0  0  0  0  0  0  0  0  0  0
    3.8034   -2.3002   -2.2818 H   0  0  0  0  0  0  0  0  0  0  0  0
  1  2  2  0  0  0  0
  2  3  1  0  0  0  0
  3  4  2  0  0  0  0
  4  5  1  0  0  0  0
  5  6  2  0  0  0  0
  1  6  1  0  0  0  0
  5  7  1  0  0  0  0
  7  8  2  0  0  0  0
  8  9  1  0  0  0  0
  4  9  1  0  0  0  0
  7 10  1  0  0  0  0
 10 11  1  0  0  0  0
 11 12  2  0  0  0  0
 12 13  1  0  0  0  0
 13 14  1  0  0  0  0
 14 15  2  0  0  0  0
 14 16  2  0  0  0  0
 14 17  1  0  0  0  0
 11 18  1  0  0  0  0
 18 19  1  0  0  0  0
 19 20  1  0  0  0  0
 20 21  1  0  0  0  0
 21 22  1  0  0  0  0
 22 23  1  0  0  0  0
 23 24  1  0  0  0  0
 19 24  1  0  0  0  0
 23 25  1  0  0  0  0
 25 26  1  0  0  0  0
 22 27  1  0  0  0  0
 21 28  1  0  0  0  0
 20 29  1  0  0  0  0
  1 30  1  0  0  0  0
  2 31  1  0  0  0  0
  3 32  1  0  0  0  0
  6 33  1  0  0  0  0
  8 34  1  0  0  0  0
  9 35  1  0  0  0  0
 10 36  1  0  0  0  0
 10 37  1  0  0  0  0
 17 38  1  0  0  0  0
 19 39  1  0  0  0  0
 20 40  1  0  0  0  0
 21 41  1  0  0  0  0
 22 42  1  0  0  0  0
 23 43  1  0  0  0  0
 25 44  1  0  0  0  0
 25 45  1  0  0  0  0
 26 46  1  0  0  0  0
 27 47  1  0  0  0  0
 28 48  1  0  0  0  0
 29 49  1  0  0  0  0
M  END
$$$$
