C32H66O
APtclcactv06211806323D 0   0.00000     0.00000
 
 99 98  0  0  0  0  0  0  0  0999 V2000
   20.0694   -0.4214   -0.0000 C   0  0  0  0  0  0  0  0  0  0  0  0
   18.8198    0.4615    0.0000 C   0  0  0  0  0  0  0  0  0  0  0  0
   17.5709   -0.4224   -0.0000 C   0  0  0  0  0  0  0  0  0  0  0  0
   16.3213    0.4605    0.0000 C   0  0  0  0  0  0  0  0  0  0  0  0
   15.0724   -0.4233   -0.0000 C   0  0  0  0  0  0  0  0  0  0  0  0
   13.8228    0.4595    0.0000 C   0  0  0  0  0  0  0  0  0  0  0  0
   12.5739   -0.4243   -0.0000 C   0  0  0  0  0  0  0  0  0  0  0  0
   11.3244    0.4586    0.0000 C   0  0  0  0  0  0  0  0  0  0  0  0
   10.0755   -0.4253   -0.0000 C   0  0  0  0  0  0  0  0  0  0  0  0
    8.8259    0.4576    0.0000 C   0  0  0  0  0  0  0  0  0  0  0  0
    7.5770   -0.4262   -0.0000 C   0  0  0  0  0  0  0  0  0  0  0  0
    6.3274    0.4566    0.0000 C   0  0  0  0  0  0  0  0  0  0  0  0
    5.0785   -0.4272   -0.0000 C   0  0  0  0  0  0  0  0  0  0  0  0
    3.8289    0.4557    0.0000 C   0  0  0  0  0  0  0  0  0  0  0  0
    2.5800   -0.4282   -0.0000 C   0  0  0  0  0  0  0  0  0  0  0  0
    1.3304    0.4547    0.0000 C   0  0  0  0  0  0  0  0  0  0  0  0
    0.0816   -0.4291   -0.0000 C   0  0  0  0  0  0  0  0  0  0  0  0
   -1.1680    0.4537    0.0000 C   0  0  0  0  0  0  0  0  0  0  0  0
   -2.4169   -0.4301   -0.0000 C   0  0  0  0  0  0  0  0  0  0  0  0
   -3.6665    0.4527    0.0000 C   0  0  0  0  0  0  0  0  0  0  0  0
   -4.9154   -0.4311   -0.0000 C   0  0  0  0  0  0  0  0  0  0  0  0
   -6.1650    0.4518    0.0000 C   0  0  0  0  0  0  0  0  0  0  0  0
   -7.4139   -0.4321   -0.0000 C   0  0  0  0  0  0  0  0  0  0  0  0
   -8.6635    0.4508    0.0000 C   0  0  0  0  0  0  0  0  0  0  0  0
   -9.9124   -0.4330   -0.0000 C   0  0  0  0  0  0  0  0  0  0  0  0
  -11.1619    0.4498    0.0000 C   0  0  0  0  0  0  0  0  0  0  0  0
  -12.4108   -0.4340   -0.0000 C   0  0  0  0  0  0  0  0  0  0  0  0
  -13.6604    0.4489    0.0000 C   0  0  0  0  0  0  0  0  0  0  0  0
  -14.9093   -0.4350   -0.0000 C   0  0  0  0  0  0  0  0  0  0  0  0
  -16.1589    0.4479    0.0000 C   0  0  0  0  0  0  0  0  0  0  0  0
  -17.4078   -0.4359   -0.0000 C   0  0  0  0  0  0  0  0  0  0  0  0
  -18.6574    0.4469    0.0000 C   0  0  0  0  0  0  0  0  0  0  0  0
  -19.8238   -0.3785   -0.0000 O   0  0  0  0  0  0  0  0  0  0  0  0
   20.0696   -1.0507    0.8900 H   0  0  0  0  0  0  0  0  0  0  0  0
   20.0696   -1.0507   -0.8900 H   0  0  0  0  0  0  0  0  0  0  0  0
   20.9591    0.2083    0.0000 H   0  0  0  0  0  0  0  0  0  0  0  0
   18.8196    1.0908    0.8900 H   0  0  0  0  0  0  0  0  0  0  0  0
   18.8196    1.0908   -0.8900 H   0  0  0  0  0  0  0  0  0  0  0  0
   17.5711   -1.0517   -0.8900 H   0  0  0  0  0  0  0  0  0  0  0  0
   17.5711   -1.0517    0.8900 H   0  0  0  0  0  0  0  0  0  0  0  0
   16.3211    1.0898    0.8900 H   0  0  0  0  0  0  0  0  0  0  0  0
   16.3211    1.0898   -0.8900 H   0  0  0  0  0  0  0  0  0  0  0  0
   15.0727   -1.0527   -0.8900 H   0  0  0  0  0  0  0  0  0  0  0  0
   15.0727   -1.0527    0.8900 H   0  0  0  0  0  0  0  0  0  0  0  0
   13.8226    1.0888    0.8900 H   0  0  0  0  0  0  0  0  0  0  0  0
   13.8226    1.0888   -0.8900 H   0  0  0  0  0  0  0  0  0  0  0  0
   12.5742   -1.0536   -0.8900 H   0  0  0  0  0  0  0  0  0  0  0  0
   12.5742   -1.0536    0.8900 H   0  0  0  0  0  0  0  0  0  0  0  0
   11.3241    1.0879    0.8900 H   0  0  0  0  0  0  0  0  0  0  0  0
   11.3241    1.0879   -0.8900 H   0  0  0  0  0  0  0  0  0  0  0  0
   10.0757   -1.0546   -0.8900 H   0  0  0  0  0  0  0  0  0  0  0  0
   10.0757   -1.0546    0.8900 H   0  0  0  0  0  0  0  0  0  0  0  0
    8.8256    1.0869    0.8900 H   0  0  0  0  0  0  0  0  0  0  0  0
    8.8256    1.0869   -0.8900 H   0  0  0  0  0  0  0  0  0  0  0  0
    7.5772   -1.0556   -0.8900 H   0  0  0  0  0  0  0  0  0  0  0  0
    7.5772   -1.0556    0.8900 H   0  0  0  0  0  0  0  0  0  0  0  0
    6.3272    1.0859    0.8900 H   0  0  0  0  0  0  0  0  0  0  0  0
    6.3272    1.0859   -0.8900 H   0  0  0  0  0  0  0  0  0  0  0  0
    5.0788   -1.0565   -0.8900 H   0  0  0  0  0  0  0  0  0  0  0  0
    5.0788   -1.0565    0.8900 H   0  0  0  0  0  0  0  0  0  0  0  0
    3.8287    1.0850    0.8900 H   0  0  0  0  0  0  0  0  0  0  0  0
    3.8287    1.0850   -0.8900 H   0  0  0  0  0  0  0  0  0  0  0  0
    2.5803   -1.0575   -0.8900 H   0  0  0  0  0  0  0  0  0  0  0  0
    2.5803   -1.0575    0.8900 H   0  0  0  0  0  0  0  0  0  0  0  0
    1.3302    1.0840    0.8900 H   0  0  0  0  0  0  0  0  0  0  0  0
    1.3302    1.0840   -0.8900 H   0  0  0  0  0  0  0  0  0  0  0  0
    0.0818   -1.0585   -0.8900 H   0  0  0  0  0  0  0  0  0  0  0  0
    0.0818   -1.0585    0.8900 H   0  0  0  0  0  0  0  0  0  0  0  0
   -1.1683    1.0830    0.8900 H   0  0  0  0  0  0  0  0  0  0  0  0
   -1.1683    1.0830   -0.8900 H   0  0  0  0  0  0  0  0  0  0  0  0
   -2.4167   -1.0594   -0.8900 H   0  0  0  0  0  0  0  0  0  0  0  0
   -2.4167   -1.0594    0.8900 H   0  0  0  0  0  0  0  0  0  0  0  0
   -3.6668    1.0821    0.8900 H   0  0  0  0  0  0  0  0  0  0  0  0
   -3.6668    1.0821   -0.8900 H   0  0  0  0  0  0  0  0  0  0  0  0
   -4.9152   -1.0604   -0.8900 H   0  0  0  0  0  0  0  0  0  0  0  0
   -4.9152   -1.0604    0.8900 H   0  0  0  0  0  0  0  0  0  0  0  0
   -6.1652    1.0811    0.8900 H   0  0  0  0  0  0  0  0  0  0  0  0
   -6.1652    1.0811   -0.8900 H   0  0  0  0  0  0  0  0  0  0  0  0
   -7.4136   -1.0614   -0.8900 H   0  0  0  0  0  0  0  0  0  0  0  0
   -7.4136   -1.0614    0.8900 H   0  0  0  0  0  0  0  0  0  0  0  0
   -8.6637    1.0801    0.8900 H   0  0  0  0  0  0  0  0  0  0  0  0
   -8.6637    1.0801   -0.8900 H   0  0  0  0  0  0  0  0  0  0  0  0
   -9.9121   -1.0623   -0.8900 H   0  0  0  0  0  0  0  0  0  0  0  0
   -9.9121   -1.0623    0.8900 H   0  0  0  0  0  0  0  0  0  0  0  0
  -11.1622    1.0792    0.8900 H   0  0  0  0  0  0  0  0  0  0  0  0
  -11.1622    1.0792   -0.8900 H   0  0  0  0  0  0  0  0  0  0  0  0
  -12.4106   -1.0633   -0.8900 H   0  0  0  0  0  0  0  0  0  0  0  0
  -12.4106   -1.0633    0.8900 H   0  0  0  0  0  0  0  0  0  0  0  0
  -13.6607    1.0782    0.8900 H   0  0  0  0  0  0  0  0  0  0  0  0
  -13.6607    1.0782   -0.8900 H   0  0  0  0  0  0  0  0  0  0  0  0
  -14.9091   -1.0643   -0.8900 H   0  0  0  0  0  0  0  0  0  0  0  0
  -14.9091   -1.0643    0.8900 H   0  0  0  0  0  0  0  0  0  0  0  0
  -16.1592    1.0772    0.8900 H   0  0  0  0  0  0  0  0  0  0  0  0
  -16.1592    1.0772   -0.8900 H   0  0  0  0  0  0  0  0  0  0  0  0
  -17.4076   -1.0652   -0.8900 H   0  0  0  0  0  0  0  0  0  0  0  0
  -17.4076   -1.0652    0.8900 H   0  0  0  0  0  0  0  0  0  0  0  0
  -18.6576    1.0763    0.8900 H   0  0  0  0  0  0  0  0  0  0  0  0
  -18.6576    1.0763   -0.8900 H   0  0  0  0  0  0  0  0  0  0  0  0
  -20.6552    0.1153   -0.0000 H   0  0  0  0  0  0  0  0  0  0  0  0
  1  2  1  0  0  0  0
  2  3  1  0  0  0  0
  3  4  1  0  0  0  0
  4  5  1  0  0  0  0
  5  6  1  0  0  0  0
  6  7  1  0  0  0  0
  7  8  1  0  0  0  0
  8  9  1  0  0  0  0
  9 10  1  0  0  0  0
 10 11  1  0  0  0  0
 11 12  1  0  0  0  0
 12 13  1  0  0  0  0
 13 14  1  0  0  0  0
 14 15  1  0  0  0  0
 15 16  1  0  0  0  0
 16 17  1  0  0  0  0
 17 18  1  0  0  0  0
 18 19  1  0  0  0  0
 19 20  1  0  0  0  0
 20 21  1  0  0  0  0
 21 22  1  0  0  0  0
 22 23  1  0  0  0  0
 23 24  1  0  0  0  0
 24 25  1  0  0  0  0
 25 26  1  0  0  0  0
 26 27  1  0  0  0  0
 27 28  1  0  0  0  0
 28 29  1  0  0  0  0
 29 30  1  0  0  0  0
 30 31  1  0  0  0  0
 31 32  1  0  0  0  0
 32 33  1  0  0  0  0
  1 34  1  0  0  0  0
  1 35  1  0  0  0  0
  1 36  1  0  0  0  0
  2 37  1  0  0  0  0
  2 38  1  0  0  0  0
  3 39  1  0  0  0  0
  3 40  1  0  0  0  0
  4 41  1  0  0  0  0
  4 42  1  0  0  0  0
  5 43  1  0  0  0  0
  5 44  1  0  0  0  0
  6 45  1  0  0  0  0
  6 46  1  0  0  0  0
  7 47  1  0  0  0  0
  7 48  1  0  0  0  0
  8 49  1  0  0  0  0
  8 50  1  0  0  0  0
  9 51  1  0  0  0  0
  9 52  1  0  0  0  0
 10 53  1  0  0  0  0
 10 54  1  0  0  0  0
 11 55  1  0  0  0  0
 11 56  1  0  0  0  0
 12 57  1  0  0  0  0
 12 58  1  0  0  0  0
 13 59  1  0  0  0  0
 13 60  1  0  0  0  0
 14 61  1  0  0  0  0
 14 62  1  0  0  0  0
 15 63  1  0  0  0  0
 15 64  1  0  0  0  0
 16 65  1  0  0  0  0
 16 66  1  0  0  0  0
 17 67  1  0  0  0  0
 17 68  1  0  0  0  0
 18 69  1  0  0  0  0
 18 70  1  0  0  0  0
 19 71  1  0  0  0  0
 19 72  1  0  0  0  0
 20 73  1  0  0  0  0
 20 74  1  0  0  0  0
 21 75  1  0  0  0  0
 21 76  1  0  0  0  0
 22 77  1  0  0  0  0
 22 78  1  0  0  0  0
 23 79  1  0  0  0  0
 23 80  1  0  0  0  0
 24 81  1  0  0  0  0
 24 82  1  0  0  0  0
 25 83  1  0  0  0  0
 25 84  1  0  0  0  0
 26 85  1  0  0  0  0
 26 86  1  0  0  0  0
 27 87  1  0  0  0  0
 27 88  1  0  0  0  0
 28 89  1  0  0  0  0
 28 90  1  0  0  0  0
 29 91  1  0  0  0  0
 29 92  1  0  0  0  0
 30 93  1  0  0  0  0
 30 94  1  0  0  0  0
 31 95  1  0  0  0  0
 31 96  1  0  0  0  0
 32 97  1  0  0  0  0
 32 98  1  0  0  0  0
 33 99  1  0  0  0  0
M  END
$$$$
