C19H18O6
APtclcactv06211806323D 0   0.00000     0.00000
 
 43 45  0  0  0  0  0  0  0  0999 V2000
   -7.6489    0.2025    0.5396 C   0  0  0  0  0  0  0  0  0  0  0  0
   -6.8125   -0.7317   -0.1457 O   0  0  0  0  0  0  0  0  0  0  0  0
   -5.4774   -0.4855   -0.1372 C   0  0  0  0  0  0  0  0  0  0  0  0
   -4.6084   -1.3551   -0.7852 C   0  0  0  0  0  0  0  0  0  0  0  0
   -3.2532   -1.1091   -0.7790 C   0  0  0  0  0  0  0  0  0  0  0  0
   -2.7525    0.0171   -0.1198 C   0  0  0  0  0  0  0  0  0  0  0  0
   -3.6302    0.8890    0.5306 C   0  0  0  0  0  0  0  0  0  0  0  0
   -4.9844    0.6385    0.5147 C   0  0  0  0  0  0  0  0  0  0  0  0
   -1.3018    0.2844   -0.1101 C   0  0  0  0  0  0  0  0  0  0  0  0
   -0.8722    1.5675   -0.2502 C   0  0  0  0  0  0  0  0  0  0  0  0
    0.5154    1.8434   -0.2429 C   0  0  0  0  0  0  0  0  0  0  0  0
    0.9359    2.9826   -0.3658 O   0  0  0  0  0  0  0  0  0  0  0  0
    1.4327    0.7026   -0.0806 C   0  0  0  0  0  0  0  0  0  0  0  0
    2.8205    0.8835   -0.0615 C   0  0  0  0  0  0  0  0  0  0  0  0
    3.6496   -0.2161    0.0937 C   0  0  0  0  0  0  0  0  0  0  0  0
    3.1019   -1.4902    0.2293 C   0  0  0  0  0  0  0  0  0  0  0  0
    1.7282   -1.6733    0.2103 C   0  0  0  0  0  0  0  0  0  0  0  0
    0.8842   -0.5847    0.0565 C   0  0  0  0  0  0  0  0  0  0  0  0
   -0.4565   -0.7471    0.0421 O   0  0  0  0  0  0  0  0  0  0  0  0
    3.9218   -2.5625    0.3809 O   0  0  0  0  0  0  0  0  0  0  0  0
    3.2989   -3.8416    0.5149 C   0  0  0  0  0  0  0  0  0  0  0  0
    5.0010   -0.0513    0.1133 O   0  0  0  0  0  0  0  0  0  0  0  0
    5.6824   -0.1302   -1.1403 C   0  0  0  0  0  0  0  0  0  0  0  0
    3.3505    2.1271   -0.1943 O   0  0  0  0  0  0  0  0  0  0  0  0
    3.6757    2.8257    1.0091 C   0  0  0  0  0  0  0  0  0  0  0  0
   -7.5305    1.1905    0.0949 H   0  0  0  0  0  0  0  0  0  0  0  0
   -8.6893   -0.1115    0.4555 H   0  0  0  0  0  0  0  0  0  0  0  0
   -7.3649    0.2410    1.5913 H   0  0  0  0  0  0  0  0  0  0  0  0
   -4.9961   -2.2252   -1.2940 H   0  0  0  0  0  0  0  0  0  0  0  0
   -2.5785   -1.7855   -1.2826 H   0  0  0  0  0  0  0  0  0  0  0  0
   -3.2474    1.7603    1.0412 H   0  0  0  0  0  0  0  0  0  0  0  0
   -5.6633    1.3118    1.0167 H   0  0  0  0  0  0  0  0  0  0  0  0
   -1.5854    2.3700   -0.3667 H   0  0  0  0  0  0  0  0  0  0  0  0
    1.3149   -2.6655    0.3159 H   0  0  0  0  0  0  0  0  0  0  0  0
    2.6524   -3.8408    1.3925 H   0  0  0  0  0  0  0  0  0  0  0  0
    2.7042   -4.0510   -0.3743 H   0  0  0  0  0  0  0  0  0  0  0  0
    4.0649   -4.6087    0.6286 H   0  0  0  0  0  0  0  0  0  0  0  0
    6.7576   -0.0631   -0.9742 H   0  0  0  0  0  0  0  0  0  0  0  0
    5.4476   -1.0792   -1.6223 H   0  0  0  0  0  0  0  0  0  0  0  0
    5.3617    0.6916   -1.7805 H   0  0  0  0  0  0  0  0  0  0  0  0
    4.3790    2.2333    1.5944 H   0  0  0  0  0  0  0  0  0  0  0  0
    4.1280    3.7859    0.7609 H   0  0  0  0  0  0  0  0  0  0  0  0
    2.7682    2.9908    1.5899 H   0  0  0  0  0  0  0  0  0  0  0  0
  1  2  1  0  0  0  0
  2  3  1  0  0  0  0
  3  4  2  0  0  0  0
  4  5  1  0  0  0  0
  5  6  2  0  0  0  0
  6  7  1  0  0  0  0
  7  8  2  0  0  0  0
  3  8  1  0  0  0  0
  6  9  1  0  0  0  0
  9 10  2  0  0  0  0
 10 11  1  0  0  0  0
 11 12  2  0  0  0  0
 11 13  1  0  0  0  0
 13 14  2  0  0  0  0
 14 15  1  0  0  0  0
 15 16  2  0  0  0  0
 16 17  1  0  0  0  0
 17 18  2  0  0  0  0
 13 18  1  0  0  0  0
 18 19  1  0  0  0  0
  9 19  1  0  0  0  0
 16 20  1  0  0  0  0
 20 21  1  0  0  0  0
 15 22  1  0  0  0  0
 22 23  1  0  0  0  0
 14 24  1  0  0  0  0
 24 25  1  0  0  0  0
  1 26  1  0  0  0  0
  1 27  1  0  0  0  0
  1 28  1  0  0  0  0
  4 29  1  0  0  0  0
  5 30  1  0  0  0  0
  7 31  1  0  0  0  0
  8 32  1  0  0  0  0
 10 33  1  0  0  0  0
 17 34  1  0  0  0  0
 21 35  1  0  0  0  0
 21 36  1  0  0  0  0
 21 37  1  0  0  0  0
 23 38  1  0  0  0  0
 23 39  1  0  0  0  0
 23 40  1  0  0  0  0
 25 41  1  0  0  0  0
 25 42  1  0  0  0  0
 25 43  1  0  0  0  0
M  END
$$$$
