C14H11NO2
APtclcactv06211806323D 0   0.00000     0.00000
 
 28 30  0  0  0  0  0  0  0  0999 V2000
    3.2048   -2.6727   -0.0009 C   0  0  0  0  0  0  0  0  0  0  0  0
    1.8001   -2.4100   -0.0002 O   0  0  0  0  0  0  0  0  0  0  0  0
    1.4161   -1.1055   -0.0007 C   0  0  0  0  0  0  0  0  0  0  0  0
    0.0553   -0.7788   -0.0000 C   0  0  0  0  0  0  0  0  0  0  0  0
   -0.3330    0.5710   -0.0001 C   0  0  0  0  0  0  0  0  0  0  0  0
    0.6256    1.5754   -0.0001 C   0  0  0  0  0  0  0  0  0  0  0  0
    1.9810    1.2394   -0.0001 C   0  0  0  0  0  0  0  0  0  0  0  0
    2.3672   -0.1099    0.0039 C   0  0  0  0  0  0  0  0  0  0  0  0
    3.0008    2.2963   -0.0006 C   0  0  0  0  0  0  0  0  0  0  0  0
    4.1778    2.0034   -0.0006 O   0  0  0  0  0  0  0  0  0  0  0  0
   -1.8084    0.5807   -0.0001 C   0  0  0  0  0  0  0  0  0  0  0  0
   -2.7597    1.5970   -0.0001 C   0  0  0  0  0  0  0  0  0  0  0  0
   -4.1013    1.2791   -0.0002 C   0  0  0  0  0  0  0  0  0  0  0  0
   -4.5040   -0.0471   -0.0001 C   0  0  0  0  0  0  0  0  0  0  0  0
   -3.5722   -1.0631    0.0003 C   0  0  0  0  0  0  0  0  0  0  0  0
   -2.2137   -0.7622   -0.0001 C   0  0  0  0  0  0  0  0  0  0  0  0
   -1.0830   -1.5590   -0.0001 N   0  0  0  0  0  0  0  0  0  0  0  0
    3.6569   -2.2340    0.8885 H   0  0  0  0  0  0  0  0  0  0  0  0
    3.3730   -3.7497   -0.0004 H   0  0  0  0  0  0  0  0  0  0  0  0
    3.6558   -2.2350   -0.8914 H   0  0  0  0  0  0  0  0  0  0  0  0
    0.3242    2.6125   -0.0005 H   0  0  0  0  0  0  0  0  0  0  0  0
    3.4157   -0.3685    0.0039 H   0  0  0  0  0  0  0  0  0  0  0  0
    2.7026    3.3344   -0.0010 H   0  0  0  0  0  0  0  0  0  0  0  0
   -2.4478    2.6310    0.0002 H   0  0  0  0  0  0  0  0  0  0  0  0
   -4.8409    2.0661    0.0002 H   0  0  0  0  0  0  0  0  0  0  0  0
   -5.5571   -0.2867   -0.0001 H   0  0  0  0  0  0  0  0  0  0  0  0
   -3.8968   -2.0932    0.0011 H   0  0  0  0  0  0  0  0  0  0  0  0
   -1.0892   -2.5290   -0.0005 H   0  0  0  0  0  0  0  0  0  0  0  0
  1  2  1  0  0  0  0
  2  3  1  0  0  0  0
  3  4  2  0  0  0  0
  4  5  1  0  0  0  0
  5  6  2  0  0  0  0
  6  7  1  0  0  0  0
  7  8  2  0  0  0  0
  3  8  1  0  0  0  0
  7  9  1  0  0  0  0
  9 10  2  0  0  0  0
  5 11  1  0  0  0  0
 11 12  2  0  0  0  0
 12 13  1  0  0  0  0
 13 14  2  0  0  0  0
 14 15  1  0  0  0  0
 15 16  2  0  0  0  0
 11 16  1  0  0  0  0
 16 17  1  0  0  0  0
  4 17  1  0  0  0  0
  1 18  1  0  0  0  0
  1 19  1  0  0  0  0
  1 20  1  0  0  0  0
  6 21  1  0  0  0  0
  8 22  1  0  0  0  0
  9 23  1  0  0  0  0
 12 24  1  0  0  0  0
 13 25  1  0  0  0  0
 14 26  1  0  0  0  0
 15 27  1  0  0  0  0
 17 28  1  0  0  0  0
M  END
$$$$
