C18H17NO
APtclcactv06201823443D 0   0.00000     0.00000
 
 37 40  0  0  0  0  0  0  0  0999 V2000
    1.7352    3.1281   -0.1542 C   0  0  0  0  0  0  0  0  0  0  0  0
    0.9435    1.8458   -0.1661 C   0  0  0  0  0  0  0  0  0  0  0  0
    1.5980    0.6301   -0.2894 C   0  0  0  0  0  0  0  0  0  0  0  0
    0.8676   -0.5638   -0.3005 C   0  0  0  0  0  0  0  0  0  0  0  0
   -0.5267   -0.5355   -0.1883 C   0  0  0  0  0  0  0  0  0  0  0  0
   -1.1721    0.7040   -0.0645 C   0  0  0  0  0  0  0  0  0  0  0  0
   -0.4303    1.8842   -0.0486 C   0  0  0  0  0  0  0  0  0  0  0  0
   -2.6151    0.4151    0.0332 C   0  0  0  0  0  0  0  0  0  0  0  0
   -3.7451    1.2170    0.1711 C   0  0  0  0  0  0  0  0  0  0  0  0
   -4.9935    0.6355    0.2357 C   0  0  0  0  0  0  0  0  0  0  0  0
   -5.1260   -0.7424    0.1643 C   0  0  0  0  0  0  0  0  0  0  0  0
   -4.0153   -1.5478    0.0281 C   0  0  0  0  0  0  0  0  0  0  0  0
   -2.7472   -0.9797   -0.0392 C   0  0  0  0  0  0  0  0  0  0  0  0
   -1.4846   -1.5300   -0.1711 N   0  0  0  0  0  0  0  0  0  0  0  0
    1.6028   -1.8388   -0.4318 C   0  0  0  0  0  0  0  0  0  0  0  0
    2.9148   -1.8328   -0.2012 C   0  0  0  0  0  0  0  0  0  0  0  0
    3.6030   -0.5526    0.1934 C   0  0  0  0  0  0  0  0  0  0  0  0
    2.9505    0.5701   -0.4008 O   0  0  0  0  0  0  0  0  0  0  0  0
    3.5680   -0.4092    1.7162 C   0  0  0  0  0  0  0  0  0  0  0  0
    5.0588   -0.5968   -0.2754 C   0  0  0  0  0  0  0  0  0  0  0  0
    1.8445    3.4971   -1.1740 H   0  0  0  0  0  0  0  0  0  0  0  0
    1.2128    3.8720    0.4473 H   0  0  0  0  0  0  0  0  0  0  0  0
    2.7208    2.9426    0.2727 H   0  0  0  0  0  0  0  0  0  0  0  0
   -0.9348    2.8343    0.0472 H   0  0  0  0  0  0  0  0  0  0  0  0
   -3.6439    2.2907    0.2276 H   0  0  0  0  0  0  0  0  0  0  0  0
   -5.8711    1.2557    0.3426 H   0  0  0  0  0  0  0  0  0  0  0  0
   -6.1080   -1.1891    0.2163 H   0  0  0  0  0  0  0  0  0  0  0  0
   -4.1298   -2.6203   -0.0265 H   0  0  0  0  0  0  0  0  0  0  0  0
   -1.2987   -2.4794   -0.2417 H   0  0  0  0  0  0  0  0  0  0  0  0
    1.0913   -2.7492   -0.7073 H   0  0  0  0  0  0  0  0  0  0  0  0
    3.4845   -2.7453   -0.2967 H   0  0  0  0  0  0  0  0  0  0  0  0
    4.0813   -1.2554    2.1728 H   0  0  0  0  0  0  0  0  0  0  0  0
    4.0654    0.5166    2.0055 H   0  0  0  0  0  0  0  0  0  0  0  0
    2.5323   -0.3865    2.0553 H   0  0  0  0  0  0  0  0  0  0  0  0
    5.0883   -0.7082   -1.3593 H   0  0  0  0  0  0  0  0  0  0  0  0
    5.5602    0.3285    0.0086 H   0  0  0  0  0  0  0  0  0  0  0  0
    5.5650   -1.4422    0.1906 H   0  0  0  0  0  0  0  0  0  0  0  0
  1  2  1  0  0  0  0
  2  3  2  0  0  0  0
  3  4  1  0  0  0  0
  4  5  2  0  0  0  0
  5  6  1  0  0  0  0
  6  7  2  0  0  0  0
  2  7  1  0  0  0  0
  6  8  1  0  0  0  0
  8  9  2  0  0  0  0
  9 10  1  0  0  0  0
 10 11  2  0  0  0  0
 11 12  1  0  0  0  0
 12 13  2  0  0  0  0
  8 13  1  0  0  0  0
 13 14  1  0  0  0  0
  5 14  1  0  0  0  0
  4 15  1  0  0  0  0
 15 16  2  0  0  0  0
 16 17  1  0  0  0  0
 17 18  1  0  0  0  0
  3 18  1  0  0  0  0
 17 19  1  0  0  0  0
 17 20  1  0  0  0  0
  1 21  1  0  0  0  0
  1 22  1  0  0  0  0
  1 23  1  0  0  0  0
  7 24  1  0  0  0  0
  9 25  1  0  0  0  0
 10 26  1  0  0  0  0
 11 27  1  0  0  0  0
 12 28  1  0  0  0  0
 14 29  1  0  0  0  0
 15 30  1  0  0  0  0
 16 31  1  0  0  0  0
 19 32  1  0  0  0  0
 19 33  1  0  0  0  0
 19 34  1  0  0  0  0
 20 35  1  0  0  0  0
 20 36  1  0  0  0  0
 20 37  1  0  0  0  0
M  END
$$$$
