C21H20O6
APtclcactv06281816283D 0   0.00000     0.00000
 
 47 48  0  0  0  0  0  0  0  0999 V2000
    8.2605    2.3546   -0.0112 C   0  0  0  0  0  0  0  0  0  0  0  0
    8.4592    0.9394   -0.0110 O   0  0  0  0  0  0  0  0  0  0  0  0
    7.3451    0.1595   -0.0094 C   0  0  0  0  0  0  0  0  0  0  0  0
    7.4669   -1.2300   -0.0091 C   0  0  0  0  0  0  0  0  0  0  0  0
    6.3321   -2.0311   -0.0069 C   0  0  0  0  0  0  0  0  0  0  0  0
    5.0801   -1.4579   -0.0056 C   0  0  0  0  0  0  0  0  0  0  0  0
    4.9491   -0.0634   -0.0059 C   0  0  0  0  0  0  0  0  0  0  0  0
    6.0943    0.7433   -0.0023 C   0  0  0  0  0  0  0  0  0  0  0  0
    3.6160    0.5508   -0.0045 C   0  0  0  0  0  0  0  0  0  0  0  0
    2.5091   -0.2319   -0.0029 C   0  0  0  0  0  0  0  0  0  0  0  0
    1.2305    0.3572   -0.0015 C   0  0  0  0  0  0  0  0  0  0  0  0
    1.1190    1.5668   -0.0018 O   0  0  0  0  0  0  0  0  0  0  0  0
   -0.0000   -0.5128    0.0002 C   0  0  0  0  0  0  0  0  0  0  0  0
   -1.2305    0.3572    0.0014 C   0  0  0  0  0  0  0  0  0  0  0  0
   -1.1190    1.5668    0.0009 O   0  0  0  0  0  0  0  0  0  0  0  0
   -2.5091   -0.2319    0.0032 C   0  0  0  0  0  0  0  0  0  0  0  0
   -3.6160    0.5508    0.0043 C   0  0  0  0  0  0  0  0  0  0  0  0
   -4.9491   -0.0634    0.0061 C   0  0  0  0  0  0  0  0  0  0  0  0
   -6.0943    0.7433    0.0072 C   0  0  0  0  0  0  0  0  0  0  0  0
   -7.3451    0.1595    0.0089 C   0  0  0  0  0  0  0  0  0  0  0  0
   -7.4669   -1.2300    0.0096 C   0  0  0  0  0  0  0  0  0  0  0  0
   -6.3321   -2.0311    0.0085 C   0  0  0  0  0  0  0  0  0  0  0  0
   -5.0801   -1.4579    0.0009 C   0  0  0  0  0  0  0  0  0  0  0  0
   -8.6987   -1.8015    0.0118 O   0  0  0  0  0  0  0  0  0  0  0  0
   -8.4592    0.9394    0.0105 O   0  0  0  0  0  0  0  0  0  0  0  0
   -8.2605    2.3546    0.0102 C   0  0  0  0  0  0  0  0  0  0  0  0
    8.6987   -1.8015   -0.0113 O   0  0  0  0  0  0  0  0  0  0  0  0
    9.2276    2.8573   -0.0126 H   0  0  0  0  0  0  0  0  0  0  0  0
    7.7000    2.6426   -0.9006 H   0  0  0  0  0  0  0  0  0  0  0  0
    7.7022    2.6432    0.8794 H   0  0  0  0  0  0  0  0  0  0  0  0
    6.4320   -3.1065   -0.0067 H   0  0  0  0  0  0  0  0  0  0  0  0
    4.1996   -2.0833   -0.0047 H   0  0  0  0  0  0  0  0  0  0  0  0
    5.9989    1.8191   -0.0025 H   0  0  0  0  0  0  0  0  0  0  0  0
    3.5169    1.6263   -0.0047 H   0  0  0  0  0  0  0  0  0  0  0  0
    2.6082   -1.3073   -0.0027 H   0  0  0  0  0  0  0  0  0  0  0  0
   -0.0011   -1.1425   -0.8895 H   0  0  0  0  0  0  0  0  0  0  0  0
    0.0011   -1.1419    0.8904 H   0  0  0  0  0  0  0  0  0  0  0  0
   -2.6082   -1.3073    0.0036 H   0  0  0  0  0  0  0  0  0  0  0  0
   -3.5169    1.6263    0.0038 H   0  0  0  0  0  0  0  0  0  0  0  0
   -5.9988    1.8191    0.0070 H   0  0  0  0  0  0  0  0  0  0  0  0
   -6.4320   -3.1065    0.0090 H   0  0  0  0  0  0  0  0  0  0  0  0
   -4.1996   -2.0833    0.0001 H   0  0  0  0  0  0  0  0  0  0  0  0
   -9.0569   -1.9673   -0.8710 H   0  0  0  0  0  0  0  0  0  0  0  0
   -7.6999    2.6429    0.8994 H   0  0  0  0  0  0  0  0  0  0  0  0
   -7.7023    2.6429   -0.8806 H   0  0  0  0  0  0  0  0  0  0  0  0
   -9.2276    2.8573    0.0115 H   0  0  0  0  0  0  0  0  0  0  0  0
    9.0573   -1.9666    0.8715 H   0  0  0  0  0  0  0  0  0  0  0  0
  1  2  1  0  0  0  0
  2  3  1  0  0  0  0
  3  4  2  0  0  0  0
  4  5  1  0  0  0  0
  5  6  2  0  0  0  0
  6  7  1  0  0  0  0
  7  8  2  0  0  0  0
  3  8  1  0  0  0  0
  7  9  1  0  0  0  0
  9 10  2  0  0  0  0
 10 11  1  0  0  0  0
 11 12  2  0  0  0  0
 11 13  1  0  0  0  0
 13 14  1  0  0  0  0
 14 15  2  0  0  0  0
 14 16  1  0  0  0  0
 16 17  2  0  0  0  0
 17 18  1  0  0  0  0
 18 19  2  0  0  0  0
 19 20  1  0  0  0  0
 20 21  2  0  0  0  0
 21 22  1  0  0  0  0
 22 23  2  0  0  0  0
 18 23  1  0  0  0  0
 21 24  1  0  0  0  0
 20 25  1  0  0  0  0
 25 26  1  0  0  0  0
  4 27  1  0  0  0  0
  1 28  1  0  0  0  0
  1 29  1  0  0  0  0
  1 30  1  0  0  0  0
  5 31  1  0  0  0  0
  6 32  1  0  0  0  0
  8 33  1  0  0  0  0
  9 34  1  0  0  0  0
 10 35  1  0  0  0  0
 13 36  1  0  0  0  0
 13 37  1  0  0  0  0
 16 38  1  0  0  0  0
 17 39  1  0  0  0  0
 19 40  1  0  0  0  0
 22 41  1  0  0  0  0
 23 42  1  0  0  0  0
 24 43  1  0  0  0  0
 26 44  1  0  0  0  0
 26 45  1  0  0  0  0
 26 46  1  0  0  0  0
 27 47  1  0  0  0  0
M  END
$$$$
