C4H4O5
APtclcactv06211804323D 0   0.00000     0.00000
 
 13 12  0  0  0  0  0  0  0  0999 V2000
    0.6231   -0.8149   -0.0000 C   0  0  0  0  0  0  0  0  0  0  0  0
   -0.4874    0.2039   -0.0000 C   0  0  0  0  0  0  0  0  0  0  0  0
   -0.2254    1.3829   -0.0000 O   0  0  0  0  0  0  0  0  0  0  0  0
   -1.9093   -0.2436   -0.0000 C   0  0  0  0  0  0  0  0  0  0  0  0
   -2.1724   -1.4274   -0.0000 O   0  0  0  0  0  0  0  0  0  0  0  0
   -2.9011    0.6662   -0.0000 O   0  0  0  0  0  0  0  0  0  0  0  0
    1.9537   -0.1074   -0.0000 C   0  0  0  0  0  0  0  0  0  0  0  0
    1.9960    1.1001   -0.0000 O   0  0  0  0  0  0  0  0  0  0  0  0
    3.0920   -0.8188   -0.0000 O   0  0  0  0  0  0  0  0  0  0  0  0
    0.5435   -1.4391    0.8900 H   0  0  0  0  0  0  0  0  0  0  0  0
    0.5435   -1.4391   -0.8900 H   0  0  0  0  0  0  0  0  0  0  0  0
   -3.8070    0.3281    0.0000 H   0  0  0  0  0  0  0  0  0  0  0  0
    3.9209   -0.3208    0.0000 H   0  0  0  0  0  0  0  0  0  0  0  0
  1  2  1  0  0  0  0
  2  3  2  0  0  0  0
  2  4  1  0  0  0  0
  4  5  2  0  0  0  0
  4  6  1  0  0  0  0
  1  7  1  0  0  0  0
  7  8  2  0  0  0  0
  7  9  1  0  0  0  0
  1 10  1  0  0  0  0
  1 11  1  0  0  0  0
  6 12  1  0  0  0  0
  9 13  1  0  0  0  0
M  END
$$$$
