C14H8N2O
APtclcactv06211806323D 0   0.00000     0.00000
 
 25 28  0  0  0  0  0  0  0  0999 V2000
   -3.6912    0.9356    0.0009 C   0  0  0  0  0  0  0  0  0  0  0  0
   -3.6699   -0.4494   -0.0044 C   0  0  0  0  0  0  0  0  0  0  0  0
   -2.4703   -1.1304   -0.0050 C   0  0  0  0  0  0  0  0  0  0  0  0
   -1.2693   -0.4342   -0.0010 C   0  0  0  0  0  0  0  0  0  0  0  0
   -1.2915    0.9761    0.0026 C   0  0  0  0  0  0  0  0  0  0  0  0
   -2.5102    1.6473    0.0044 C   0  0  0  0  0  0  0  0  0  0  0  0
    0.1117    1.4173    0.0017 C   0  0  0  0  0  0  0  0  0  0  0  0
    0.8521    0.2372    0.0004 C   0  0  0  0  0  0  0  0  0  0  0  0
    0.0563   -0.8625    0.0004 N   0  0  0  0  0  0  0  0  0  0  0  0
    0.6588   -2.0714    0.0017 C   0  0  0  0  0  0  0  0  0  0  0  0
   -0.0235   -3.0805    0.0036 O   0  0  0  0  0  0  0  0  0  0  0  0
    2.0696   -2.1854    0.0006 C   0  0  0  0  0  0  0  0  0  0  0  0
    2.8842   -1.0971   -0.0012 C   0  0  0  0  0  0  0  0  0  0  0  0
    2.2416    0.2226   -0.0012 C   0  0  0  0  0  0  0  0  0  0  0  0
    2.8894    1.3822   -0.0028 N   0  0  0  0  0  0  0  0  0  0  0  0
    2.2284    2.5259   -0.0013 C   0  0  0  0  0  0  0  0  0  0  0  0
    0.8396    2.6004    0.0006 C   0  0  0  0  0  0  0  0  0  0  0  0
   -4.6356    1.4595   -0.0024 H   0  0  0  0  0  0  0  0  0  0  0  0
   -4.5990   -0.9999   -0.0077 H   0  0  0  0  0  0  0  0  0  0  0  0
   -2.4655   -2.2104   -0.0084 H   0  0  0  0  0  0  0  0  0  0  0  0
   -2.5313    2.7271    0.0087 H   0  0  0  0  0  0  0  0  0  0  0  0
    2.5138   -3.1698    0.0014 H   0  0  0  0  0  0  0  0  0  0  0  0
    3.9593   -1.1992   -0.0020 H   0  0  0  0  0  0  0  0  0  0  0  0
    2.7930    3.4466   -0.0018 H   0  0  0  0  0  0  0  0  0  0  0  0
    0.3381    3.5569    0.0023 H   0  0  0  0  0  0  0  0  0  0  0  0
  1  2  2  0  0  0  0
  2  3  1  0  0  0  0
  3  4  2  0  0  0  0
  4  5  1  0  0  0  0
  5  6  2  0  0  0  0
  1  6  1  0  0  0  0
  5  7  1  0  0  0  0
  7  8  2  0  0  0  0
  8  9  1  0  0  0  0
  4  9  1  0  0  0  0
  9 10  1  0  0  0  0
 10 11  2  0  0  0  0
 10 12  1  0  0  0  0
 12 13  2  0  0  0  0
 13 14  1  0  0  0  0
  8 14  1  0  0  0  0
 14 15  2  0  0  0  0
 15 16  1  0  0  0  0
 16 17  2  0  0  0  0
  7 17  1  0  0  0  0
  1 18  1  0  0  0  0
  2 19  1  0  0  0  0
  3 20  1  0  0  0  0
  6 21  1  0  0  0  0
 12 22  1  0  0  0  0
 13 23  1  0  0  0  0
 16 24  1  0  0  0  0
 17 25  1  0  0  0  0
M  END
$$$$
