C18H16O7
APtclcactv06211806323D 0   0.00000     0.00000
 
 41 43  0  0  0  0  0  0  0  0999 V2000
    7.2121    0.5228   -0.9341 C   0  0  0  0  0  0  0  0  0  0  0  0
    6.4281   -0.4346   -0.2195 O   0  0  0  0  0  0  0  0  0  0  0  0
    5.0907   -0.2071   -0.1486 C   0  0  0  0  0  0  0  0  0  0  0  0
    4.2683   -1.1022    0.5336 C   0  0  0  0  0  0  0  0  0  0  0  0
    2.9080   -0.8722    0.6071 C   0  0  0  0  0  0  0  0  0  0  0  0
    2.3598    0.2591   -0.0038 C   0  0  0  0  0  0  0  0  0  0  0  0
    3.1903    1.1522   -0.6861 C   0  0  0  0  0  0  0  0  0  0  0  0
    4.5471    0.9192   -0.7509 C   0  0  0  0  0  0  0  0  0  0  0  0
    0.9080    0.5094    0.0711 C   0  0  0  0  0  0  0  0  0  0  0  0
    0.4729    1.7848    0.2571 C   0  0  0  0  0  0  0  0  0  0  0  0
   -0.9159    2.0445    0.3310 C   0  0  0  0  0  0  0  0  0  0  0  0
   -1.3413    3.1763    0.4968 O   0  0  0  0  0  0  0  0  0  0  0  0
   -1.8283    0.8958    0.1995 C   0  0  0  0  0  0  0  0  0  0  0  0
   -3.2170    1.0607    0.2599 C   0  0  0  0  0  0  0  0  0  0  0  0
   -4.0414   -0.0458    0.1313 C   0  0  0  0  0  0  0  0  0  0  0  0
   -3.4883   -1.3109   -0.0560 C   0  0  0  0  0  0  0  0  0  0  0  0
   -2.1137   -1.4782   -0.1159 C   0  0  0  0  0  0  0  0  0  0  0  0
   -1.2744   -0.3825    0.0098 C   0  0  0  0  0  0  0  0  0  0  0  0
    0.0668   -0.5293   -0.0525 O   0  0  0  0  0  0  0  0  0  0  0  0
   -4.3037   -2.3902   -0.1807 O   0  0  0  0  0  0  0  0  0  0  0  0
   -3.6753   -3.6595   -0.3707 C   0  0  0  0  0  0  0  0  0  0  0  0
   -5.3935    0.1035    0.1886 O   0  0  0  0  0  0  0  0  0  0  0  0
   -6.0722    0.3468   -1.0452 C   0  0  0  0  0  0  0  0  0  0  0  0
   -3.7522    2.2955    0.4436 O   0  0  0  0  0  0  0  0  0  0  0  0
    4.8049   -2.2022    1.1265 O   0  0  0  0  0  0  0  0  0  0  0  0
    8.2596    0.2222   -0.9141 H   0  0  0  0  0  0  0  0  0  0  0  0
    6.8687    0.5750   -1.9673 H   0  0  0  0  0  0  0  0  0  0  0  0
    7.1059    1.5014   -0.4661 H   0  0  0  0  0  0  0  0  0  0  0  0
    2.2696   -1.5651    1.1351 H   0  0  0  0  0  0  0  0  0  0  0  0
    2.7694    2.0272   -1.1591 H   0  0  0  0  0  0  0  0  0  0  0  0
    5.1878    1.6104   -1.2782 H   0  0  0  0  0  0  0  0  0  0  0  0
    1.1828    2.5936    0.3482 H   0  0  0  0  0  0  0  0  0  0  0  0
   -1.6961   -2.4636   -0.2608 H   0  0  0  0  0  0  0  0  0  0  0  0
   -4.4381   -4.4335   -0.4552 H   0  0  0  0  0  0  0  0  0  0  0  0
   -3.0784   -3.6366   -1.2824 H   0  0  0  0  0  0  0  0  0  0  0  0
   -3.0302   -3.8766    0.4807 H   0  0  0  0  0  0  0  0  0  0  0  0
   -7.1415    0.4459   -0.8583 H   0  0  0  0  0  0  0  0  0  0  0  0
   -5.6947    1.2664   -1.4923 H   0  0  0  0  0  0  0  0  0  0  0  0
   -5.8981   -0.4864   -1.7261 H   0  0  0  0  0  0  0  0  0  0  0  0
   -3.9311    2.7729   -0.3782 H   0  0  0  0  0  0  0  0  0  0  0  0
    5.0784   -2.0609    2.0432 H   0  0  0  0  0  0  0  0  0  0  0  0
  1  2  1  0  0  0  0
  2  3  1  0  0  0  0
  3  4  2  0  0  0  0
  4  5  1  0  0  0  0
  5  6  2  0  0  0  0
  6  7  1  0  0  0  0
  7  8  2  0  0  0  0
  3  8  1  0  0  0  0
  6  9  1  0  0  0  0
  9 10  2  0  0  0  0
 10 11  1  0  0  0  0
 11 12  2  0  0  0  0
 11 13  1  0  0  0  0
 13 14  2  0  0  0  0
 14 15  1  0  0  0  0
 15 16  2  0  0  0  0
 16 17  1  0  0  0  0
 17 18  2  0  0  0  0
 13 18  1  0  0  0  0
 18 19  1  0  0  0  0
  9 19  1  0  0  0  0
 16 20  1  0  0  0  0
 20 21  1  0  0  0  0
 15 22  1  0  0  0  0
 22 23  1  0  0  0  0
 14 24  1  0  0  0  0
  4 25  1  0  0  0  0
  1 26  1  0  0  0  0
  1 27  1  0  0  0  0
  1 28  1  0  0  0  0
  5 29  1  0  0  0  0
  7 30  1  0  0  0  0
  8 31  1  0  0  0  0
 10 32  1  0  0  0  0
 17 33  1  0  0  0  0
 21 34  1  0  0  0  0
 21 35  1  0  0  0  0
 21 36  1  0  0  0  0
 23 37  1  0  0  0  0
 23 38  1  0  0  0  0
 23 39  1  0  0  0  0
 24 40  1  0  0  0  0
 25 41  1  0  0  0  0
M  END
$$$$
