C9H13NO
APtclcactv06211804443D 0   0.00000     0.00000
 
 24 24  0  0  0  0  0  0  0  0999 V2000
    4.5784   -0.0315    0.9658 C   0  0  0  0  0  0  0  0  0  0  0  0
    3.6747   -0.0136   -0.1922 N   0  0  0  0  0  0  0  0  0  0  0  0
    2.2696   -0.0151    0.2365 C   0  0  0  0  0  0  0  0  0  0  0  0
    1.3609    0.0038   -0.9943 C   0  0  0  0  0  0  0  0  0  0  0  0
   -0.0805    0.0023   -0.5545 C   0  0  0  0  0  0  0  0  0  0  0  0
   -0.7370    1.1996   -0.3374 C   0  0  0  0  0  0  0  0  0  0  0  0
   -2.0583    1.2010    0.0658 C   0  0  0  0  0  0  0  0  0  0  0  0
   -2.7265   -0.0004    0.2528 C   0  0  0  0  0  0  0  0  0  0  0  0
   -2.0655   -1.2004    0.0343 C   0  0  0  0  0  0  0  0  0  0  0  0
   -0.7458   -1.1963   -0.3742 C   0  0  0  0  0  0  0  0  0  0  0  0
   -4.0262   -0.0017    0.6498 O   0  0  0  0  0  0  0  0  0  0  0  0
    4.3995    0.8510    1.5799 H   0  0  0  0  0  0  0  0  0  0  0  0
    4.3942   -0.9288    1.5566 H   0  0  0  0  0  0  0  0  0  0  0  0
    5.6121   -0.0301    0.6200 H   0  0  0  0  0  0  0  0  0  0  0  0
    3.8693    0.7750   -0.7907 H   0  0  0  0  0  0  0  0  0  0  0  0
    2.0694   -0.9122    0.8223 H   0  0  0  0  0  0  0  0  0  0  0  0
    2.0747    0.8676    0.8456 H   0  0  0  0  0  0  0  0  0  0  0  0
    1.5611    0.9009   -1.5801 H   0  0  0  0  0  0  0  0  0  0  0  0
    1.5558   -0.8789   -1.6034 H   0  0  0  0  0  0  0  0  0  0  0  0
   -0.2164    2.1346   -0.4828 H   0  0  0  0  0  0  0  0  0  0  0  0
   -2.5706    2.1364    0.2356 H   0  0  0  0  0  0  0  0  0  0  0  0
   -2.5835   -2.1369    0.1793 H   0  0  0  0  0  0  0  0  0  0  0  0
   -0.2308   -2.1302   -0.5444 H   0  0  0  0  0  0  0  0  0  0  0  0
   -4.6604    0.0099   -0.0800 H   0  0  0  0  0  0  0  0  0  0  0  0
  1  2  1  0  0  0  0
  2  3  1  0  0  0  0
  3  4  1  0  0  0  0
  4  5  1  0  0  0  0
  5  6  2  0  0  0  0
  6  7  1  0  0  0  0
  7  8  2  0  0  0  0
  8  9  1  0  0  0  0
  9 10  2  0  0  0  0
  5 10  1  0  0  0  0
  8 11  1  0  0  0  0
  1 12  1  0  0  0  0
  1 13  1  0  0  0  0
  1 14  1  0  0  0  0
  2 15  1  0  0  0  0
  3 16  1  0  0  0  0
  3 17  1  0  0  0  0
  4 18  1  0  0  0  0
  4 19  1  0  0  0  0
  6 20  1  0  0  0  0
  7 21  1  0  0  0  0
  9 22  1  0  0  0  0
 10 23  1  0  0  0  0
 11 24  1  0  0  0  0
M  END
$$$$
