C15H14O2
APtclcactv06211806323D 0   0.00000     0.00000
 
 31 32  0  0  0  0  0  0  0  0999 V2000
   -4.2051   -1.1119    0.8186 C   0  0  0  0  0  0  0  0  0  0  0  0
   -3.9398   -0.1298   -0.2932 C   0  0  0  0  0  0  0  0  0  0  0  0
   -2.9794    0.7528   -0.1723 C   0  0  0  0  0  0  0  0  0  0  0  0
   -2.0601    0.7073    1.0209 C   0  0  0  0  0  0  0  0  0  0  0  0
   -0.6294    0.6516    0.5509 C   0  0  0  0  0  0  0  0  0  0  0  0
    0.0824    1.7841    0.4471 C   0  0  0  0  0  0  0  0  0  0  0  0
    1.4862    1.7469   -0.0114 C   0  0  0  0  0  0  0  0  0  0  0  0
    2.0526    2.7701   -0.3404 O   0  0  0  0  0  0  0  0  0  0  0  0
    2.1946    0.4489   -0.0647 C   0  0  0  0  0  0  0  0  0  0  0  0
    3.5728    0.3867   -0.2182 C   0  0  0  0  0  0  0  0  0  0  0  0
    4.2040   -0.8478   -0.2644 C   0  0  0  0  0  0  0  0  0  0  0  0
    3.4711   -2.0138   -0.1592 C   0  0  0  0  0  0  0  0  0  0  0  0
    2.0932   -1.9674   -0.0049 C   0  0  0  0  0  0  0  0  0  0  0  0
    1.4478   -0.7394    0.0437 C   0  0  0  0  0  0  0  0  0  0  0  0
   -0.0183   -0.6504    0.2135 C   0  0  0  0  0  0  0  0  0  0  0  0
   -0.7142   -1.6363    0.0728 O   0  0  0  0  0  0  0  0  0  0  0  0
   -4.7794   -0.1632   -1.5443 C   0  0  0  0  0  0  0  0  0  0  0  0
   -4.3703   -0.5703    1.7500 H   0  0  0  0  0  0  0  0  0  0  0  0
   -5.0901   -1.7015    0.5792 H   0  0  0  0  0  0  0  0  0  0  0  0
   -3.3467   -1.7743    0.9308 H   0  0  0  0  0  0  0  0  0  0  0  0
   -2.8465    1.5131   -0.9277 H   0  0  0  0  0  0  0  0  0  0  0  0
   -2.2085    1.6002    1.6282 H   0  0  0  0  0  0  0  0  0  0  0  0
   -2.2816   -0.1782    1.6167 H   0  0  0  0  0  0  0  0  0  0  0  0
   -0.3743    2.7296    0.7001 H   0  0  0  0  0  0  0  0  0  0  0  0
    4.1510    1.2951   -0.3017 H   0  0  0  0  0  0  0  0  0  0  0  0
    5.2762   -0.8976   -0.3839 H   0  0  0  0  0  0  0  0  0  0  0  0
    3.9743   -2.9686   -0.1976 H   0  0  0  0  0  0  0  0  0  0  0  0
    1.5253   -2.8825    0.0766 H   0  0  0  0  0  0  0  0  0  0  0  0
   -5.6431    0.4899   -1.4197 H   0  0  0  0  0  0  0  0  0  0  0  0
   -4.1840    0.1793   -2.3906 H   0  0  0  0  0  0  0  0  0  0  0  0
   -5.1183   -1.1829   -1.7273 H   0  0  0  0  0  0  0  0  0  0  0  0
  1  2  1  0  0  0  0
  2  3  2  0  0  0  0
  3  4  1  0  0  0  0
  4  5  1  0  0  0  0
  5  6  2  0  0  0  0
  6  7  1  0  0  0  0
  7  8  2  0  0  0  0
  7  9  1  0  0  0  0
  9 10  2  0  0  0  0
 10 11  1  0  0  0  0
 11 12  2  0  0  0  0
 12 13  1  0  0  0  0
 13 14  2  0  0  0  0
  9 14  1  0  0  0  0
 14 15  1  0  0  0  0
  5 15  1  0  0  0  0
 15 16  2  0  0  0  0
  2 17  1  0  0  0  0
  1 18  1  0  0  0  0
  1 19  1  0  0  0  0
  1 20  1  0  0  0  0
  3 21  1  0  0  0  0
  4 22  1  0  0  0  0
  4 23  1  0  0  0  0
  6 24  1  0  0  0  0
 10 25  1  0  0  0  0
 11 26  1  0  0  0  0
 12 27  1  0  0  0  0
 13 28  1  0  0  0  0
 17 29  1  0  0  0  0
 17 30  1  0  0  0  0
 17 31  1  0  0  0  0
M  END
$$$$
