C20H17NO5
APtclcactv06211806323D 0   0.00000     0.00000
 
 43 46  0  0  0  0  0  0  0  0999 V2000
    4.9051    2.5725    0.1682 C   0  0  0  0  0  0  0  0  0  0  0  0
    3.4762    2.5787    0.1646 O   0  0  0  0  0  0  0  0  0  0  0  0
    2.8541    1.3712    0.1171 C   0  0  0  0  0  0  0  0  0  0  0  0
    1.4522    1.3164    0.1112 C   0  0  0  0  0  0  0  0  0  0  0  0
    0.7947    0.0888    0.0628 C   0  0  0  0  0  0  0  0  0  0  0  0
    1.5539   -1.0972    0.0199 C   0  0  0  0  0  0  0  0  0  0  0  0
    2.9706   -1.0234    0.0265 C   0  0  0  0  0  0  0  0  0  0  0  0
    3.6032    0.2307    0.0702 C   0  0  0  0  0  0  0  0  0  0  0  0
    3.6953   -2.2246   -0.0166 C   0  0  0  0  0  0  0  0  0  0  0  0
    3.0032   -3.4182   -0.0633 C   0  0  0  0  0  0  0  0  0  0  0  0
    1.6854   -3.4599   -0.0685 N   0  0  0  0  0  0  0  0  0  0  0  0
    0.9398   -2.3664   -0.0295 C   0  0  0  0  0  0  0  0  0  0  0  0
   -0.5341   -2.4596   -0.0366 C   0  0  0  0  0  0  0  0  0  0  0  0
   -1.0836   -3.5453   -0.0786 O   0  0  0  0  0  0  0  0  0  0  0  0
   -1.3284   -1.2241    0.0081 C   0  0  0  0  0  0  0  0  0  0  0  0
   -2.7261   -1.2808    0.0021 C   0  0  0  0  0  0  0  0  0  0  0  0
   -3.4606   -0.1140    0.0440 C   0  0  0  0  0  0  0  0  0  0  0  0
   -2.8157    1.1247    0.0924 C   0  0  0  0  0  0  0  0  0  0  0  0
   -1.4339    1.1956    0.0988 C   0  0  0  0  0  0  0  0  0  0  0  0
   -0.6776    0.0263    0.0560 C   0  0  0  0  0  0  0  0  0  0  0  0
   -3.5499    2.2664    0.1328 O   0  0  0  0  0  0  0  0  0  0  0  0
   -2.8296    3.4996    0.1813 C   0  0  0  0  0  0  0  0  0  0  0  0
   -4.8194   -0.1694    0.0377 O   0  0  0  0  0  0  0  0  0  0  0  0
   -5.4155   -1.4671   -0.0133 C   0  0  0  0  0  0  0  0  0  0  0  0
    0.7327    2.4651    0.1533 O   0  0  0  0  0  0  0  0  0  0  0  0
    0.3919    3.0635   -1.0988 C   0  0  0  0  0  0  0  0  0  0  0  0
    5.2728    3.5979    0.2082 H   0  0  0  0  0  0  0  0  0  0  0  0
    5.2639    2.0238    1.0390 H   0  0  0  0  0  0  0  0  0  0  0  0
    5.2687    2.0913   -0.7397 H   0  0  0  0  0  0  0  0  0  0  0  0
    4.6814    0.2920    0.0751 H   0  0  0  0  0  0  0  0  0  0  0  0
    4.7753   -2.2153   -0.0136 H   0  0  0  0  0  0  0  0  0  0  0  0
    3.5573   -4.3446   -0.0969 H   0  0  0  0  0  0  0  0  0  0  0  0
   -3.2289   -2.2358   -0.0356 H   0  0  0  0  0  0  0  0  0  0  0  0
   -0.9421    2.1564    0.1360 H   0  0  0  0  0  0  0  0  0  0  0  0
   -2.2054    3.5210    1.0746 H   0  0  0  0  0  0  0  0  0  0  0  0
   -2.1999    3.5876   -0.7041 H   0  0  0  0  0  0  0  0  0  0  0  0
   -3.5340    4.3309    0.2102 H   0  0  0  0  0  0  0  0  0  0  0  0
   -6.5011   -1.3685   -0.0129 H   0  0  0  0  0  0  0  0  0  0  0  0
   -5.0974   -1.9777   -0.9222 H   0  0  0  0  0  0  0  0  0  0  0  0
   -5.1029   -2.0450    0.8564 H   0  0  0  0  0  0  0  0  0  0  0  0
   -0.2056    2.3649   -1.6846 H   0  0  0  0  0  0  0  0  0  0  0  0
   -0.1818    3.9733   -0.9226 H   0  0  0  0  0  0  0  0  0  0  0  0
    1.3032    3.3085   -1.6444 H   0  0  0  0  0  0  0  0  0  0  0  0
  1  2  1  0  0  0  0
  2  3  1  0  0  0  0
  3  4  2  0  0  0  0
  4  5  1  0  0  0  0
  5  6  2  0  0  0  0
  6  7  1  0  0  0  0
  7  8  2  0  0  0  0
  3  8  1  0  0  0  0
  7  9  1  0  0  0  0
  9 10  2  0  0  0  0
 10 11  1  0  0  0  0
 11 12  2  0  0  0  0
  6 12  1  0  0  0  0
 12 13  1  0  0  0  0
 13 14  2  0  0  0  0
 13 15  1  0  0  0  0
 15 16  2  0  0  0  0
 16 17  1  0  0  0  0
 17 18  2  0  0  0  0
 18 19  1  0  0  0  0
 19 20  2  0  0  0  0
 15 20  1  0  0  0  0
  5 20  1  0  0  0  0
 18 21  1  0  0  0  0
 21 22  1  0  0  0  0
 17 23  1  0  0  0  0
 23 24  1  0  0  0  0
  4 25  1  0  0  0  0
 25 26  1  0  0  0  0
  1 27  1  0  0  0  0
  1 28  1  0  0  0  0
  1 29  1  0  0  0  0
  8 30  1  0  0  0  0
  9 31  1  0  0  0  0
 10 32  1  0  0  0  0
 16 33  1  0  0  0  0
 19 34  1  0  0  0  0
 22 35  1  0  0  0  0
 22 36  1  0  0  0  0
 22 37  1  0  0  0  0
 24 38  1  0  0  0  0
 24 39  1  0  0  0  0
 24 40  1  0  0  0  0
 26 41  1  0  0  0  0
 26 42  1  0  0  0  0
 26 43  1  0  0  0  0
M  END
$$$$
