C7H7NO2
APtclcactv06211804323D 0   0.00000     0.00000
 
 17 17  0  0  0  0  0  0  0  0999 V2000
   -0.0600   -1.1902   -0.0005 C   0  0  0  0  0  0  0  0  0  0  0  0
   -1.4308   -1.2150   -0.0002 C   0  0  0  0  0  0  0  0  0  0  0  0
   -2.1503   -0.0229    0.0002 C   0  0  0  0  0  0  0  0  0  0  0  0
   -1.4807    1.1980    0.0002 C   0  0  0  0  0  0  0  0  0  0  0  0
   -0.1100    1.2299   -0.0002 C   0  0  0  0  0  0  0  0  0  0  0  0
    0.6157    0.0343   -0.0001 C   0  0  0  0  0  0  0  0  0  0  0  0
    2.0892    0.0648    0.0000 C   0  0  0  0  0  0  0  0  0  0  0  0
    2.6749    1.1295    0.0000 O   0  0  0  0  0  0  0  0  0  0  0  0
    2.7870   -1.0881    0.0001 O   0  0  0  0  0  0  0  0  0  0  0  0
   -3.5401   -0.0516    0.0001 N   0  0  0  0  0  0  0  0  0  0  0  0
    0.4974   -2.1152    0.0034 H   0  0  0  0  0  0  0  0  0  0  0  0
   -1.9532   -2.1602   -0.0005 H   0  0  0  0  0  0  0  0  0  0  0  0
   -2.0417    2.1208    0.0001 H   0  0  0  0  0  0  0  0  0  0  0  0
    0.4087    2.1772   -0.0009 H   0  0  0  0  0  0  0  0  0  0  0  0
    3.7514   -1.0176    0.0002 H   0  0  0  0  0  0  0  0  0  0  0  0
   -4.0076   -0.9015   -0.0002 H   0  0  0  0  0  0  0  0  0  0  0  0
   -4.0423    0.7783    0.0003 H   0  0  0  0  0  0  0  0  0  0  0  0
  1  2  2  0  0  0  0
  2  3  1  0  0  0  0
  3  4  2  0  0  0  0
  4  5  1  0  0  0  0
  5  6  2  0  0  0  0
  1  6  1  0  0  0  0
  6  7  1  0  0  0  0
  7  8  2  0  0  0  0
  7  9  1  0  0  0  0
  3 10  1  0  0  0  0
  1 11  1  0  0  0  0
  2 12  1  0  0  0  0
  4 13  1  0  0  0  0
  5 14  1  0  0  0  0
  9 15  1  0  0  0  0
 10 16  1  0  0  0  0
 10 17  1  0  0  0  0
M  END
$$$$
