C6H11NO2S2
APtclcactv06281817243D 0   0.00000     0.00000
 
 22 21  0  0  0  0  0  0  0  0999 V2000
    4.8905   -0.0988   -0.6978 C   0  0  0  0  0  0  0  0  0  0  0  0
    3.6444    0.3037   -0.7324 C   0  0  0  0  0  0  0  0  0  0  0  0
    2.5269   -0.7067   -0.7686 C   0  0  0  0  0  0  0  0  0  0  0  0
    1.5491   -0.5816    0.7541 S   0  0  0  0  0  0  0  0  0  0  0  0
    0.5904    1.2178    0.5401 S   0  0  0  0  0  0  0  0  0  0  0  0
   -0.8763    0.7852   -0.4357 C   0  0  0  0  0  0  0  0  0  0  0  0
   -1.9051    0.1005    0.4663 C   0  0  0  0  0  0  0  0  0  0  0  0
   -3.1752   -0.1358   -0.3097 C   0  0  0  0  0  0  0  0  0  0  0  0
   -3.4070   -1.2281   -0.7711 O   0  0  0  0  0  0  0  0  0  0  0  0
   -4.0491    0.8674   -0.4883 O   0  0  0  0  0  0  0  0  0  0  0  0
   -1.3693   -1.1857    0.9317 N   0  0  0  0  0  0  0  0  0  0  0  0
    5.6914    0.6253   -0.6718 H   0  0  0  0  0  0  0  0  0  0  0  0
    5.1169   -1.1548   -0.6906 H   0  0  0  0  0  0  0  0  0  0  0  0
    3.4180    1.3597   -0.7351 H   0  0  0  0  0  0  0  0  0  0  0  0
    1.8868   -0.5098   -1.6287 H   0  0  0  0  0  0  0  0  0  0  0  0
    2.9462   -1.7095   -0.8498 H   0  0  0  0  0  0  0  0  0  0  0  0
   -1.3104    1.6905   -0.8600 H   0  0  0  0  0  0  0  0  0  0  0  0
   -0.5905    0.1077   -1.2404 H   0  0  0  0  0  0  0  0  0  0  0  0
   -2.1171    0.7378    1.3247 H   0  0  0  0  0  0  0  0  0  0  0  0
   -4.8495    0.6677   -0.9928 H   0  0  0  0  0  0  0  0  0  0  0  0
   -1.0659   -1.7534    0.1548 H   0  0  0  0  0  0  0  0  0  0  0  0
   -0.6197   -1.0471    1.5928 H   0  0  0  0  0  0  0  0  0  0  0  0
  1  2  2  0  0  0  0
  2  3  1  0  0  0  0
  3  4  1  0  0  0  0
  4  5  1  0  0  0  0
  5  6  1  0  0  0  0
  6  7  1  0  0  0  0
  7  8  1  0  0  0  0
  8  9  2  0  0  0  0
  8 10  1  0  0  0  0
  7 11  1  0  0  0  0
  1 12  1  0  0  0  0
  1 13  1  0  0  0  0
  2 14  1  0  0  0  0
  3 15  1  0  0  0  0
  3 16  1  0  0  0  0
  6 17  1  0  0  0  0
  6 18  1  0  0  0  0
  7 19  1  0  0  0  0
 10 20  1  0  0  0  0
 11 21  1  0  0  0  0
 11 22  1  0  0  0  0
M  END
$$$$
