C15H20O3
APtclcactv06281817243D 0   0.00000     0.00000
 
 38 38  0  0  0  0  0  0  0  0999 V2000
    7.8603   -0.2374    1.2210 C   0  0  0  0  0  0  0  0  0  0  0  0
    6.6549   -0.4178    0.2961 C   0  0  0  0  0  0  0  0  0  0  0  0
    5.5822    0.6145    0.6490 C   0  0  0  0  0  0  0  0  0  0  0  0
    4.3950    0.4368   -0.2620 C   0  0  0  0  0  0  0  0  0  0  0  0
    3.1787    0.2520    0.2553 C   0  0  0  0  0  0  0  0  0  0  0  0
    2.0264    0.0795   -0.6289 C   0  0  0  0  0  0  0  0  0  0  0  0
    2.1764    0.1045   -1.8326 O   0  0  0  0  0  0  0  0  0  0  0  0
    0.6530   -0.1291   -0.0448 C   0  0  0  0  0  0  0  0  0  0  0  0
   -0.3650   -0.2808   -1.1769 C   0  0  0  0  0  0  0  0  0  0  0  0
   -1.7384   -0.4895   -0.5928 C   0  0  0  0  0  0  0  0  0  0  0  0
   -2.5460    0.5997   -0.3233 C   0  0  0  0  0  0  0  0  0  0  0  0
   -3.8091    0.4096    0.2138 C   0  0  0  0  0  0  0  0  0  0  0  0
   -4.2616   -0.8790    0.4806 C   0  0  0  0  0  0  0  0  0  0  0  0
   -3.4471   -1.9663    0.2081 C   0  0  0  0  0  0  0  0  0  0  0  0
   -2.1902   -1.7700   -0.3330 C   0  0  0  0  0  0  0  0  0  0  0  0
   -5.5004   -1.0707    1.0081 O   0  0  0  0  0  0  0  0  0  0  0  0
   -4.6047    1.4800    0.4800 O   0  0  0  0  0  0  0  0  0  0  0  0
   -4.0742    2.7728    0.1810 C   0  0  0  0  0  0  0  0  0  0  0  0
    8.2668    0.7662    1.0964 H   0  0  0  0  0  0  0  0  0  0  0  0
    7.5482   -0.3771    2.2560 H   0  0  0  0  0  0  0  0  0  0  0  0
    8.6245   -0.9728    0.9696 H   0  0  0  0  0  0  0  0  0  0  0  0
    6.9670   -0.2781   -0.7389 H   0  0  0  0  0  0  0  0  0  0  0  0
    6.2483   -1.4214    0.4206 H   0  0  0  0  0  0  0  0  0  0  0  0
    5.2701    0.4748    1.6840 H   0  0  0  0  0  0  0  0  0  0  0  0
    5.9888    1.6181    0.5245 H   0  0  0  0  0  0  0  0  0  0  0  0
    4.5284    0.4590   -1.3335 H   0  0  0  0  0  0  0  0  0  0  0  0
    3.0452    0.2298    1.3268 H   0  0  0  0  0  0  0  0  0  0  0  0
    0.6519   -1.0305    0.5680 H   0  0  0  0  0  0  0  0  0  0  0  0
    0.3859    0.7295    0.5713 H   0  0  0  0  0  0  0  0  0  0  0  0
   -0.3639    0.6206   -1.7897 H   0  0  0  0  0  0  0  0  0  0  0  0
   -0.0979   -1.1394   -1.7930 H   0  0  0  0  0  0  0  0  0  0  0  0
   -2.1923    1.5988   -0.5309 H   0  0  0  0  0  0  0  0  0  0  0  0
   -3.7959   -2.9675    0.4143 H   0  0  0  0  0  0  0  0  0  0  0  0
   -1.5563   -2.6183   -0.5449 H   0  0  0  0  0  0  0  0  0  0  0  0
   -6.1977   -1.1757    0.3465 H   0  0  0  0  0  0  0  0  0  0  0  0
   -3.8462    2.8347   -0.8831 H   0  0  0  0  0  0  0  0  0  0  0  0
   -4.8084    3.5356    0.4403 H   0  0  0  0  0  0  0  0  0  0  0  0
   -3.1635    2.9341    0.7577 H   0  0  0  0  0  0  0  0  0  0  0  0
  1  2  1  0  0  0  0
  2  3  1  0  0  0  0
  3  4  1  0  0  0  0
  4  5  2  0  0  0  0
  5  6  1  0  0  0  0
  6  7  2  0  0  0  0
  6  8  1  0  0  0  0
  8  9  1  0  0  0  0
  9 10  1  0  0  0  0
 10 11  2  0  0  0  0
 11 12  1  0  0  0  0
 12 13  2  0  0  0  0
 13 14  1  0  0  0  0
 14 15  2  0  0  0  0
 10 15  1  0  0  0  0
 13 16  1  0  0  0  0
 12 17  1  0  0  0  0
 17 18  1  0  0  0  0
  1 19  1  0  0  0  0
  1 20  1  0  0  0  0
  1 21  1  0  0  0  0
  2 22  1  0  0  0  0
  2 23  1  0  0  0  0
  3 24  1  0  0  0  0
  3 25  1  0  0  0  0
  4 26  1  0  0  0  0
  5 27  1  0  0  0  0
  8 28  1  0  0  0  0
  8 29  1  0  0  0  0
  9 30  1  0  0  0  0
  9 31  1  0  0  0  0
 11 32  1  0  0  0  0
 14 33  1  0  0  0  0
 15 34  1  0  0  0  0
 16 35  1  0  0  0  0
 18 36  1  0  0  0  0
 18 37  1  0  0  0  0
 18 38  1  0  0  0  0
M  END
$$$$
