C17H22O4
APtclcactv06281817243D 0   0.00000     0.00000
 
 43 43  0  0  0  0  0  0  0  0999 V2000
    9.5620   -0.2165   -0.0041 C   0  0  0  0  0  0  0  0  0  0  0  0
    8.2184    0.5154   -0.0062 C   0  0  0  0  0  0  0  0  0  0  0  0
    7.0805   -0.5074   -0.0006 C   0  0  0  0  0  0  0  0  0  0  0  0
    5.7369    0.2245   -0.0027 C   0  0  0  0  0  0  0  0  0  0  0  0
    4.5990   -0.7983    0.0029 C   0  0  0  0  0  0  0  0  0  0  0  0
    3.2756   -0.0774    0.0008 C   0  0  0  0  0  0  0  0  0  0  0  0
    3.2457    1.1298   -0.0046 O   0  0  0  0  0  0  0  0  0  0  0  0
    1.9896   -0.8630    0.0056 C   0  0  0  0  0  0  0  0  0  0  0  0
    0.8202    0.0875    0.0023 C   0  0  0  0  0  0  0  0  0  0  0  0
    1.0125    1.2869   -0.0033 O   0  0  0  0  0  0  0  0  0  0  0  0
   -0.4950   -0.4145    0.0057 C   0  0  0  0  0  0  0  0  0  0  0  0
   -1.5469    0.4405    0.0028 C   0  0  0  0  0  0  0  0  0  0  0  0
   -2.9182   -0.0829    0.0064 C   0  0  0  0  0  0  0  0  0  0  0  0
   -4.0068    0.7987    0.0034 C   0  0  0  0  0  0  0  0  0  0  0  0
   -5.2939    0.3000    0.0063 C   0  0  0  0  0  0  0  0  0  0  0  0
   -5.5086   -1.0782    0.0127 C   0  0  0  0  0  0  0  0  0  0  0  0
   -4.4299   -1.9536    0.0162 C   0  0  0  0  0  0  0  0  0  0  0  0
   -3.1424   -1.4656    0.0070 C   0  0  0  0  0  0  0  0  0  0  0  0
   -6.7759   -1.5658    0.0160 O   0  0  0  0  0  0  0  0  0  0  0  0
   -6.3533    1.1528    0.0034 O   0  0  0  0  0  0  0  0  0  0  0  0
   -6.0601    2.5514   -0.0027 C   0  0  0  0  0  0  0  0  0  0  0  0
    9.6361   -0.8375    0.8886 H   0  0  0  0  0  0  0  0  0  0  0  0
    9.6345   -0.8455   -0.8913 H   0  0  0  0  0  0  0  0  0  0  0  0
   10.3726    0.5122   -0.0082 H   0  0  0  0  0  0  0  0  0  0  0  0
    8.1459    1.1445    0.8810 H   0  0  0  0  0  0  0  0  0  0  0  0
    8.1443    1.1364   -0.8990 H   0  0  0  0  0  0  0  0  0  0  0  0
    7.1530   -1.1364   -0.8878 H   0  0  0  0  0  0  0  0  0  0  0  0
    7.1546   -1.1284    0.8921 H   0  0  0  0  0  0  0  0  0  0  0  0
    5.6644    0.8536    0.8845 H   0  0  0  0  0  0  0  0  0  0  0  0
    5.6628    0.8455   -0.8954 H   0  0  0  0  0  0  0  0  0  0  0  0
    4.6715   -1.4273   -0.8843 H   0  0  0  0  0  0  0  0  0  0  0  0
    4.6731   -1.4193    0.8957 H   0  0  0  0  0  0  0  0  0  0  0  0
    1.9467   -1.4950   -0.8815 H   0  0  0  0  0  0  0  0  0  0  0  0
    1.9482   -1.4869    0.8984 H   0  0  0  0  0  0  0  0  0  0  0  0
   -0.6660   -1.4809    0.0107 H   0  0  0  0  0  0  0  0  0  0  0  0
   -1.3760    1.5069   -0.0022 H   0  0  0  0  0  0  0  0  0  0  0  0
   -3.8395    1.8656   -0.0009 H   0  0  0  0  0  0  0  0  0  0  0  0
   -4.6017   -3.0198    0.0218 H   0  0  0  0  0  0  0  0  0  0  0  0
   -2.3058   -2.1486    0.0097 H   0  0  0  0  0  0  0  0  0  0  0  0
   -7.1438   -1.7111   -0.8664 H   0  0  0  0  0  0  0  0  0  0  0  0
   -5.4821    2.8054    0.8859 H   0  0  0  0  0  0  0  0  0  0  0  0
   -5.4833    2.7979   -0.8941 H   0  0  0  0  0  0  0  0  0  0  0  0
   -6.9914    3.1178   -0.0045 H   0  0  0  0  0  0  0  0  0  0  0  0
  1  2  1  0  0  0  0
  2  3  1  0  0  0  0
  3  4  1  0  0  0  0
  4  5  1  0  0  0  0
  5  6  1  0  0  0  0
  6  7  2  0  0  0  0
  6  8  1  0  0  0  0
  8  9  1  0  0  0  0
  9 10  2  0  0  0  0
  9 11  1  0  0  0  0
 11 12  2  0  0  0  0
 12 13  1  0  0  0  0
 13 14  2  0  0  0  0
 14 15  1  0  0  0  0
 15 16  2  0  0  0  0
 16 17  1  0  0  0  0
 17 18  2  0  0  0  0
 13 18  1  0  0  0  0
 16 19  1  0  0  0  0
 15 20  1  0  0  0  0
 20 21  1  0  0  0  0
  1 22  1  0  0  0  0
  1 23  1  0  0  0  0
  1 24  1  0  0  0  0
  2 25  1  0  0  0  0
  2 26  1  0  0  0  0
  3 27  1  0  0  0  0
  3 28  1  0  0  0  0
  4 29  1  0  0  0  0
  4 30  1  0  0  0  0
  5 31  1  0  0  0  0
  5 32  1  0  0  0  0
  8 33  1  0  0  0  0
  8 34  1  0  0  0  0
 11 35  1  0  0  0  0
 12 36  1  0  0  0  0
 14 37  1  0  0  0  0
 17 38  1  0  0  0  0
 18 39  1  0  0  0  0
 19 40  1  0  0  0  0
 21 41  1  0  0  0  0
 21 42  1  0  0  0  0
 21 43  1  0  0  0  0
M  END
$$$$
