C21H12O5
APtclcactv06281817243D 0   0.00000     0.00000
 
 38 42  0  0  0  0  0  0  0  0999 V2000
    0.7795   -3.3637    1.0732 C   0  0  0  0  0  0  0  0  0  0  0  0
    0.9858   -2.6974   -0.1740 O   0  0  0  0  0  0  0  0  0  0  0  0
    1.5404   -1.4566   -0.1267 C   0  0  0  0  0  0  0  0  0  0  0  0
    2.8958   -1.3228   -0.1810 C   0  0  0  0  0  0  0  0  0  0  0  0
    3.4854   -0.0388   -0.1361 C   0  0  0  0  0  0  0  0  0  0  0  0
    4.8788    0.1142   -0.1850 C   0  0  0  0  0  0  0  0  0  0  0  0
    5.4246    1.3633   -0.1461 C   0  0  0  0  0  0  0  0  0  0  0  0
    4.6178    2.4932   -0.0561 C   0  0  0  0  0  0  0  0  0  0  0  0
    3.2599    2.3807   -0.0030 C   0  0  0  0  0  0  0  0  0  0  0  0
    2.6649    1.1110   -0.0395 C   0  0  0  0  0  0  0  0  0  0  0  0
    1.2613    0.9645    0.0213 C   0  0  0  0  0  0  0  0  0  0  0  0
    0.7064   -0.3250   -0.0280 C   0  0  0  0  0  0  0  0  0  0  0  0
   -0.7312   -0.1260    0.0572 C   0  0  0  0  0  0  0  0  0  0  0  0
   -0.9288    1.2521    0.1481 C   0  0  0  0  0  0  0  0  0  0  0  0
    0.2565    1.8597    0.1194 O   0  0  0  0  0  0  0  0  0  0  0  0
   -2.2909    1.8117    0.2499 C   0  0  0  0  0  0  0  0  0  0  0  0
   -2.4753    2.9831    0.5182 O   0  0  0  0  0  0  0  0  0  0  0  0
   -3.4283    0.8845    0.0105 C   0  0  0  0  0  0  0  0  0  0  0  0
   -4.7140    1.3990   -0.1273 C   0  0  0  0  0  0  0  0  0  0  0  0
   -5.7814    0.5443   -0.3477 C   0  0  0  0  0  0  0  0  0  0  0  0
   -5.5793   -0.8198   -0.4317 C   0  0  0  0  0  0  0  0  0  0  0  0
   -4.3057   -1.3487   -0.2972 C   0  0  0  0  0  0  0  0  0  0  0  0
   -3.2236   -0.5033   -0.0781 C   0  0  0  0  0  0  0  0  0  0  0  0
   -1.8576   -1.0773    0.0594 C   0  0  0  0  0  0  0  0  0  0  0  0
   -1.6788   -2.2744    0.1684 O   0  0  0  0  0  0  0  0  0  0  0  0
    3.6830   -2.4277   -0.2782 O   0  0  0  0  0  0  0  0  0  0  0  0
    0.1128   -2.7685    1.6972 H   0  0  0  0  0  0  0  0  0  0  0  0
    0.3322   -4.3413    0.8932 H   0  0  0  0  0  0  0  0  0  0  0  0
    1.7360   -3.4896    1.5805 H   0  0  0  0  0  0  0  0  0  0  0  0
    5.5173   -0.7543   -0.2530 H   0  0  0  0  0  0  0  0  0  0  0  0
    6.4978    1.4770   -0.1853 H   0  0  0  0  0  0  0  0  0  0  0  0
    5.0730    3.4721   -0.0275 H   0  0  0  0  0  0  0  0  0  0  0  0
    2.6450    3.2658    0.0665 H   0  0  0  0  0  0  0  0  0  0  0  0
   -4.8795    2.4642   -0.0620 H   0  0  0  0  0  0  0  0  0  0  0  0
   -6.7780    0.9467   -0.4542 H   0  0  0  0  0  0  0  0  0  0  0  0
   -6.4186   -1.4775   -0.6028 H   0  0  0  0  0  0  0  0  0  0  0  0
   -4.1537   -2.4160   -0.3625 H   0  0  0  0  0  0  0  0  0  0  0  0
    3.8706   -2.6983   -1.1874 H   0  0  0  0  0  0  0  0  0  0  0  0
  1  2  1  0  0  0  0
  2  3  1  0  0  0  0
  3  4  2  0  0  0  0
  4  5  1  0  0  0  0
  5  6  2  0  0  0  0
  6  7  1  0  0  0  0
  7  8  2  0  0  0  0
  8  9  1  0  0  0  0
  9 10  2  0  0  0  0
  5 10  1  0  0  0  0
 10 11  1  0  0  0  0
 11 12  2  0  0  0  0
  3 12  1  0  0  0  0
 12 13  1  0  0  0  0
 13 14  2  0  0  0  0
 14 15  1  0  0  0  0
 11 15  1  0  0  0  0
 14 16  1  0  0  0  0
 16 17  2  0  0  0  0
 16 18  1  0  0  0  0
 18 19  2  0  0  0  0
 19 20  1  0  0  0  0
 20 21  2  0  0  0  0
 21 22  1  0  0  0  0
 22 23  2  0  0  0  0
 18 23  1  0  0  0  0
 23 24  1  0  0  0  0
 13 24  1  0  0  0  0
 24 25  2  0  0  0  0
  4 26  1  0  0  0  0
  1 27  1  0  0  0  0
  1 28  1  0  0  0  0
  1 29  1  0  0  0  0
  6 30  1  0  0  0  0
  7 31  1  0  0  0  0
  8 32  1  0  0  0  0
  9 33  1  0  0  0  0
 19 34  1  0  0  0  0
 20 35  1  0  0  0  0
 21 36  1  0  0  0  0
 22 37  1  0  0  0  0
 26 38  1  0  0  0  0
M  END
$$$$
