C18H34O4
APtclcactv06281817243D 0   0.00000     0.00000
 
 56 56  0  0  0  0  0  0  0  0999 V2000
   -6.0728   -0.1520   -0.3861 C   0  0  0  0  0  0  0  0  0  0  0  0
   -7.2684    0.3585    0.4206 C   0  0  0  0  0  0  0  0  0  0  0  0
   -8.5287    0.3034   -0.4452 C   0  0  0  0  0  0  0  0  0  0  0  0
   -9.7244    0.8139    0.3615 C   0  0  0  0  0  0  0  0  0  0  0  0
  -10.9846    0.7588   -0.5044 C   0  0  0  0  0  0  0  0  0  0  0  0
  -12.1013    1.2356    0.2491 O   0  0  0  0  0  0  0  0  0  0  0  0
   -4.8125   -0.0969    0.4797 C   0  0  0  0  0  0  0  0  0  0  0  0
   -3.6169   -0.6074   -0.3270 C   0  0  0  0  0  0  0  0  0  0  0  0
   -2.3566   -0.5523    0.5388 C   0  0  0  0  0  0  0  0  0  0  0  0
   -1.1610   -1.0628   -0.2678 C   0  0  0  0  0  0  0  0  0  0  0  0
    0.2230   -0.9804    0.3792 C   0  0  0  0  0  0  0  0  0  0  0  0
   -0.4738   -2.2175    0.2184 O   0  0  0  0  0  0  0  0  0  0  0  0
    1.4219   -0.7136   -0.5332 C   0  0  0  0  0  0  0  0  0  0  0  0
    2.6826   -0.5454    0.3172 C   0  0  0  0  0  0  0  0  0  0  0  0
    3.8814   -0.2787   -0.5953 C   0  0  0  0  0  0  0  0  0  0  0  0
    5.1421   -0.1105    0.2552 C   0  0  0  0  0  0  0  0  0  0  0  0
    6.3410    0.1563   -0.6573 C   0  0  0  0  0  0  0  0  0  0  0  0
    7.6017    0.3245    0.1931 C   0  0  0  0  0  0  0  0  0  0  0  0
    8.8005    0.5912   -0.7193 C   0  0  0  0  0  0  0  0  0  0  0  0
   10.0423    0.7569    0.1183 C   0  0  0  0  0  0  0  0  0  0  0  0
    9.9753    0.6704    1.3216 O   0  0  0  0  0  0  0  0  0  0  0  0
   11.2227    1.0004   -0.4724 O   0  0  0  0  0  0  0  0  0  0  0  0
   -6.2561   -1.1808   -0.6959 H   0  0  0  0  0  0  0  0  0  0  0  0
   -5.9355    0.4740   -1.2678 H   0  0  0  0  0  0  0  0  0  0  0  0
   -7.4057   -0.2674    1.3023 H   0  0  0  0  0  0  0  0  0  0  0  0
   -7.0851    1.3874    0.7304 H   0  0  0  0  0  0  0  0  0  0  0  0
   -8.3914    0.9294   -1.3269 H   0  0  0  0  0  0  0  0  0  0  0  0
   -8.7120   -0.7254   -0.7550 H   0  0  0  0  0  0  0  0  0  0  0  0
   -9.8617    0.1880    1.2432 H   0  0  0  0  0  0  0  0  0  0  0  0
   -9.5410    1.8428    0.6712 H   0  0  0  0  0  0  0  0  0  0  0  0
  -10.8473    1.3848   -1.3861 H   0  0  0  0  0  0  0  0  0  0  0  0
  -11.1679   -0.2700   -0.8141 H   0  0  0  0  0  0  0  0  0  0  0  0
  -12.9364    1.2289   -0.2385 H   0  0  0  0  0  0  0  0  0  0  0  0
   -4.6292    0.9320    0.7895 H   0  0  0  0  0  0  0  0  0  0  0  0
   -4.9498   -0.7228    1.3614 H   0  0  0  0  0  0  0  0  0  0  0  0
   -3.8002   -1.6362   -0.6367 H   0  0  0  0  0  0  0  0  0  0  0  0
   -3.4796    0.0186   -1.2087 H   0  0  0  0  0  0  0  0  0  0  0  0
   -2.1733    0.4766    0.8486 H   0  0  0  0  0  0  0  0  0  0  0  0
   -2.4939   -1.1782    1.4206 H   0  0  0  0  0  0  0  0  0  0  0  0
   -1.2259   -0.9265   -1.3473 H   0  0  0  0  0  0  0  0  0  0  0  0
    0.2901   -0.5620    1.3835 H   0  0  0  0  0  0  0  0  0  0  0  0
    1.5532   -1.5535   -1.2155 H   0  0  0  0  0  0  0  0  0  0  0  0
    1.2465    0.1965   -1.1069 H   0  0  0  0  0  0  0  0  0  0  0  0
    2.5513    0.2944    0.9994 H   0  0  0  0  0  0  0  0  0  0  0  0
    2.8580   -1.4555    0.8908 H   0  0  0  0  0  0  0  0  0  0  0  0
    4.0127   -1.1185   -1.2775 H   0  0  0  0  0  0  0  0  0  0  0  0
    3.7060    0.6314   -1.1689 H   0  0  0  0  0  0  0  0  0  0  0  0
    5.0108    0.7294    0.9374 H   0  0  0  0  0  0  0  0  0  0  0  0
    5.3175   -1.0206    0.8288 H   0  0  0  0  0  0  0  0  0  0  0  0
    6.4723   -0.6836   -1.3395 H   0  0  0  0  0  0  0  0  0  0  0  0
    6.1656    1.0664   -1.2309 H   0  0  0  0  0  0  0  0  0  0  0  0
    7.4704    1.1643    0.8754 H   0  0  0  0  0  0  0  0  0  0  0  0
    7.7771   -0.5856    0.7668 H   0  0  0  0  0  0  0  0  0  0  0  0
    8.9318   -0.2487   -1.4016 H   0  0  0  0  0  0  0  0  0  0  0  0
    8.6251    1.5013   -1.2929 H   0  0  0  0  0  0  0  0  0  0  0  0
   11.9911    1.0992    0.1063 H   0  0  0  0  0  0  0  0  0  0  0  0
  1  2  1  0  0  0  0
  2  3  1  0  0  0  0
  3  4  1  0  0  0  0
  4  5  1  0  0  0  0
  5  6  1  0  0  0  0
  1  7  1  0  0  0  0
  7  8  1  0  0  0  0
  8  9  1  0  0  0  0
  9 10  1  0  0  0  0
 10 11  1  0  0  0  0
 11 12  1  0  0  0  0
 10 12  1  0  0  0  0
 11 13  1  0  0  0  0
 13 14  1  0  0  0  0
 14 15  1  0  0  0  0
 15 16  1  0  0  0  0
 16 17  1  0  0  0  0
 17 18  1  0  0  0  0
 18 19  1  0  0  0  0
 19 20  1  0  0  0  0
 20 21  2  0  0  0  0
 20 22  1  0  0  0  0
  1 23  1  0  0  0  0
  1 24  1  0  0  0  0
  2 25  1  0  0  0  0
  2 26  1  0  0  0  0
  3 27  1  0  0  0  0
  3 28  1  0  0  0  0
  4 29  1  0  0  0  0
  4 30  1  0  0  0  0
  5 31  1  0  0  0  0
  5 32  1  0  0  0  0
  6 33  1  0  0  0  0
  7 34  1  0  0  0  0
  7 35  1  0  0  0  0
  8 36  1  0  0  0  0
  8 37  1  0  0  0  0
  9 38  1  0  0  0  0
  9 39  1  0  0  0  0
 10 40  1  0  0  0  0
 11 41  1  0  0  0  0
 13 42  1  0  0  0  0
 13 43  1  0  0  0  0
 14 44  1  0  0  0  0
 14 45  1  0  0  0  0
 15 46  1  0  0  0  0
 15 47  1  0  0  0  0
 16 48  1  0  0  0  0
 16 49  1  0  0  0  0
 17 50  1  0  0  0  0
 17 51  1  0  0  0  0
 18 52  1  0  0  0  0
 18 53  1  0  0  0  0
 19 54  1  0  0  0  0
 19 55  1  0  0  0  0
 22 56  1  0  0  0  0
M  END
$$$$
