C40H56
APtclcactv06281816423D 0   0.00000     0.00000
 
 96 97  0  0  0  0  0  0  0  0999 V2000
  -10.5367   -0.8286   -2.1588 C   0  0  0  0  0  0  0  0  0  0  0  0
  -11.6427   -0.6943   -1.1440 C   0  0  0  0  0  0  0  0  0  0  0  0
  -11.4280    0.0674   -0.0842 C   0  0  0  0  0  0  0  0  0  0  0  0
  -12.4375    0.2810    1.0060 C   0  0  0  0  0  0  0  0  0  0  0  0
  -13.8300   -0.1283    0.5219 C   0  0  0  0  0  0  0  0  0  0  0  0
  -13.7381   -1.5271   -0.1000 C   0  0  0  0  0  0  0  0  0  0  0  0
  -12.9279   -1.4276   -1.3959 C   0  0  0  0  0  0  0  0  0  0  0  0
  -12.0553   -0.5630    2.2236 C   0  0  0  0  0  0  0  0  0  0  0  0
  -12.4520    1.7590    1.4013 C   0  0  0  0  0  0  0  0  0  0  0  0
  -10.1739    0.7183    0.0286 C   0  0  0  0  0  0  0  0  0  0  0  0
   -9.0267   -0.0105    0.0196 C   0  0  0  0  0  0  0  0  0  0  0  0
   -7.7807    0.6401    0.0052 C   0  0  0  0  0  0  0  0  0  0  0  0
   -6.6285   -0.0920   -0.0038 C   0  0  0  0  0  0  0  0  0  0  0  0
   -5.3863    0.5567   -0.0182 C   0  0  0  0  0  0  0  0  0  0  0  0
   -4.2237   -0.1819   -0.0273 C   0  0  0  0  0  0  0  0  0  0  0  0
   -2.9832    0.4659   -0.0416 C   0  0  0  0  0  0  0  0  0  0  0  0
   -1.8196   -0.2734   -0.0507 C   0  0  0  0  0  0  0  0  0  0  0  0
   -0.5798    0.3740   -0.0651 C   0  0  0  0  0  0  0  0  0  0  0  0
    0.5841   -0.3654   -0.0742 C   0  0  0  0  0  0  0  0  0  0  0  0
    1.8240    0.2820   -0.0885 C   0  0  0  0  0  0  0  0  0  0  0  0
    2.9876   -0.4572   -0.0976 C   0  0  0  0  0  0  0  0  0  0  0  0
    2.9238   -1.9629   -0.0921 C   0  0  0  0  0  0  0  0  0  0  0  0
    4.2281    0.1905   -0.1119 C   0  0  0  0  0  0  0  0  0  0  0  0
    5.3906   -0.5480   -0.1210 C   0  0  0  0  0  0  0  0  0  0  0  0
    6.6328    0.1006   -0.1354 C   0  0  0  0  0  0  0  0  0  0  0  0
    7.7851   -0.6315   -0.1444 C   0  0  0  0  0  0  0  0  0  0  0  0
    7.7213   -2.1371   -0.1390 C   0  0  0  0  0  0  0  0  0  0  0  0
    9.0310    0.0191   -0.1588 C   0  0  0  0  0  0  0  0  0  0  0  0
   10.1782   -0.7097   -0.1678 C   0  0  0  0  0  0  0  0  0  0  0  0
   11.4344   -0.0547   -0.1198 C   0  0  0  0  0  0  0  0  0  0  0  0
   11.7073    0.8408   -1.0540 C   0  0  0  0  0  0  0  0  0  0  0  0
   13.0001    1.6000   -1.1277 C   0  0  0  0  0  0  0  0  0  0  0  0
   13.7360    1.5177    0.2113 C   0  0  0  0  0  0  0  0  0  0  0  0
   13.7965    0.0479    0.6447 C   0  0  0  0  0  0  0  0  0  0  0  0
   12.3776   -0.4123    0.9918 C   0  0  0  0  0  0  0  0  0  0  0  0
   11.9274    0.2650    2.2878 C   0  0  0  0  0  0  0  0  0  0  0  0
   12.3700   -1.9298    1.1867 C   0  0  0  0  0  0  0  0  0  0  0  0
   10.6615    1.1142   -2.1041 C   0  0  0  0  0  0  0  0  0  0  0  0
   -2.9194    1.9715   -0.0471 C   0  0  0  0  0  0  0  0  0  0  0  0
   -7.7170    2.1457   -0.0003 C   0  0  0  0  0  0  0  0  0  0  0  0
   -9.8532   -1.6191   -1.8488 H   0  0  0  0  0  0  0  0  0  0  0  0
  -10.9634   -1.0776   -3.1304 H   0  0  0  0  0  0  0  0  0  0  0  0
   -9.9936    0.1137   -2.2312 H   0  0  0  0  0  0  0  0  0  0  0  0
  -14.5200   -0.1472    1.3655 H   0  0  0  0  0  0  0  0  0  0  0  0
  -14.1812    0.5825   -0.2261 H   0  0  0  0  0  0  0  0  0  0  0  0
  -13.2422   -2.2048    0.5949 H   0  0  0  0  0  0  0  0  0  0  0  0
  -14.7396   -1.8952   -0.3228 H   0  0  0  0  0  0  0  0  0  0  0  0
  -13.5123   -0.8970   -2.1476 H   0  0  0  0  0  0  0  0  0  0  0  0
  -12.7016   -2.4303   -1.7585 H   0  0  0  0  0  0  0  0  0  0  0  0
  -11.0684   -0.2646    2.5772 H   0  0  0  0  0  0  0  0  0  0  0  0
  -12.7872   -0.4092    3.0165 H   0  0  0  0  0  0  0  0  0  0  0  0
  -12.0380   -1.6165    1.9444 H   0  0  0  0  0  0  0  0  0  0  0  0
  -12.7819    2.3587    0.5530 H   0  0  0  0  0  0  0  0  0  0  0  0
  -13.1361    1.9048    2.2372 H   0  0  0  0  0  0  0  0  0  0  0  0
  -11.4484    2.0664    1.6952 H   0  0  0  0  0  0  0  0  0  0  0  0
  -10.1299    1.7934    0.1217 H   0  0  0  0  0  0  0  0  0  0  0  0
   -9.0724   -1.0895    0.0235 H   0  0  0  0  0  0  0  0  0  0  0  0
   -6.6742   -1.1710    0.0001 H   0  0  0  0  0  0  0  0  0  0  0  0
   -5.3406    1.6357   -0.0221 H   0  0  0  0  0  0  0  0  0  0  0  0
   -4.2694   -1.2609   -0.0234 H   0  0  0  0  0  0  0  0  0  0  0  0
   -1.8653   -1.3524   -0.0468 H   0  0  0  0  0  0  0  0  0  0  0  0
   -0.5341    1.4531   -0.0690 H   0  0  0  0  0  0  0  0  0  0  0  0
    0.5384   -1.4444   -0.0703 H   0  0  0  0  0  0  0  0  0  0  0  0
    1.8697    1.3610   -0.0924 H   0  0  0  0  0  0  0  0  0  0  0  0
    2.8982   -2.3292   -1.1184 H   0  0  0  0  0  0  0  0  0  0  0  0
    3.8026   -2.3619    0.4143 H   0  0  0  0  0  0  0  0  0  0  0  0
    2.0243   -2.2865    0.4316 H   0  0  0  0  0  0  0  0  0  0  0  0
    4.2738    1.2696   -0.1159 H   0  0  0  0  0  0  0  0  0  0  0  0
    5.3449   -1.6271   -0.1171 H   0  0  0  0  0  0  0  0  0  0  0  0
    6.6785    1.1796   -0.1393 H   0  0  0  0  0  0  0  0  0  0  0  0
    7.6958   -2.5034   -1.1652 H   0  0  0  0  0  0  0  0  0  0  0  0
    8.6001   -2.5362    0.3675 H   0  0  0  0  0  0  0  0  0  0  0  0
    6.8218   -2.4608    0.3848 H   0  0  0  0  0  0  0  0  0  0  0  0
    9.0767    1.0982   -0.1627 H   0  0  0  0  0  0  0  0  0  0  0  0
   10.1327   -1.7879   -0.2115 H   0  0  0  0  0  0  0  0  0  0  0  0
   13.6261    1.1725   -1.9109 H   0  0  0  0  0  0  0  0  0  0  0  0
   12.7933    2.6440   -1.3627 H   0  0  0  0  0  0  0  0  0  0  0  0
   14.7475    1.9078    0.0977 H   0  0  0  0  0  0  0  0  0  0  0  0
   13.1985    2.0986    0.9608 H   0  0  0  0  0  0  0  0  0  0  0  0
   14.1927   -0.5581   -0.1701 H   0  0  0  0  0  0  0  0  0  0  0  0
   14.4366   -0.0491    1.5216 H   0  0  0  0  0  0  0  0  0  0  0  0
   11.9372    1.3468    2.1548 H   0  0  0  0  0  0  0  0  0  0  0  0
   10.9176   -0.0614    2.5366 H   0  0  0  0  0  0  0  0  0  0  0  0
   12.6068   -0.0080    3.0954 H   0  0  0  0  0  0  0  0  0  0  0  0
   12.9975   -2.1898    2.0392 H   0  0  0  0  0  0  0  0  0  0  0  0
   11.3500   -2.2675    1.3701 H   0  0  0  0  0  0  0  0  0  0  0  0
   12.7571   -2.4133    0.2898 H   0  0  0  0  0  0  0  0  0  0  0  0
   10.0050    1.9148   -1.7633 H   0  0  0  0  0  0  0  0  0  0  0  0
   11.1481    1.4137   -3.0323 H   0  0  0  0  0  0  0  0  0  0  0  0
   10.0748    0.2118   -2.2761 H   0  0  0  0  0  0  0  0  0  0  0  0
   -2.8939    2.3378    0.9792 H   0  0  0  0  0  0  0  0  0  0  0  0
   -2.0200    2.2952   -0.5709 H   0  0  0  0  0  0  0  0  0  0  0  0
   -3.7983    2.3706   -0.5535 H   0  0  0  0  0  0  0  0  0  0  0  0
   -7.6914    2.5120    1.0260 H   0  0  0  0  0  0  0  0  0  0  0  0
   -6.8175    2.4694   -0.5240 H   0  0  0  0  0  0  0  0  0  0  0  0
   -8.5958    2.5448   -0.5067 H   0  0  0  0  0  0  0  0  0  0  0  0
  1  2  1  0  0  0  0
  2  3  2  0  0  0  0
  3  4  1  0  0  0  0
  4  5  1  0  0  0  0
  5  6  1  0  0  0  0
  6  7  1  0  0  0  0
  2  7  1  0  0  0  0
  4  8  1  0  0  0  0
  4  9  1  0  0  0  0
  3 10  1  0  0  0  0
 10 11  2  0  0  0  0
 11 12  1  0  0  0  0
 12 13  2  0  0  0  0
 13 14  1  0  0  0  0
 14 15  2  0  0  0  0
 15 16  1  0  0  0  0
 16 17  2  0  0  0  0
 17 18  1  0  0  0  0
 18 19  2  0  0  0  0
 19 20  1  0  0  0  0
 20 21  2  0  0  0  0
 21 22  1  0  0  0  0
 21 23  1  0  0  0  0
 23 24  2  0  0  0  0
 24 25  1  0  0  0  0
 25 26  2  0  0  0  0
 26 27  1  0  0  0  0
 26 28  1  0  0  0  0
 28 29  2  0  0  0  0
 29 30  1  0  0  0  0
 30 31  2  0  0  0  0
 31 32  1  0  0  0  0
 32 33  1  0  0  0  0
 33 34  1  0  0  0  0
 34 35  1  0  0  0  0
 30 35  1  0  0  0  0
 35 36  1  0  0  0  0
 35 37  1  0  0  0  0
 31 38  1  0  0  0  0
 16 39  1  0  0  0  0
 12 40  1  0  0  0  0
  1 41  1  0  0  0  0
  1 42  1  0  0  0  0
  1 43  1  0  0  0  0
  5 44  1  0  0  0  0
  5 45  1  0  0  0  0
  6 46  1  0  0  0  0
  6 47  1  0  0  0  0
  7 48  1  0  0  0  0
  7 49  1  0  0  0  0
  8 50  1  0  0  0  0
  8 51  1  0  0  0  0
  8 52  1  0  0  0  0
  9 53  1  0  0  0  0
  9 54  1  0  0  0  0
  9 55  1  0  0  0  0
 10 56  1  0  0  0  0
 11 57  1  0  0  0  0
 13 58  1  0  0  0  0
 14 59  1  0  0  0  0
 15 60  1  0  0  0  0
 17 61  1  0  0  0  0
 18 62  1  0  0  0  0
 19 63  1  0  0  0  0
 20 64  1  0  0  0  0
 22 65  1  0  0  0  0
 22 66  1  0  0  0  0
 22 67  1  0  0  0  0
 23 68  1  0  0  0  0
 24 69  1  0  0  0  0
 25 70  1  0  0  0  0
 27 71  1  0  0  0  0
 27 72  1  0  0  0  0
 27 73  1  0  0  0  0
 28 74  1  0  0  0  0
 29 75  1  0  0  0  0
 32 76  1  0  0  0  0
 32 77  1  0  0  0  0
 33 78  1  0  0  0  0
 33 79  1  0  0  0  0
 34 80  1  0  0  0  0
 34 81  1  0  0  0  0
 36 82  1  0  0  0  0
 36 83  1  0  0  0  0
 36 84  1  0  0  0  0
 37 85  1  0  0  0  0
 37 86  1  0  0  0  0
 37 87  1  0  0  0  0
 38 88  1  0  0  0  0
 38 89  1  0  0  0  0
 38 90  1  0  0  0  0
 39 91  1  0  0  0  0
 39 92  1  0  0  0  0
 39 93  1  0  0  0  0
 40 94  1  0  0  0  0
 40 95  1  0  0  0  0
 40 96  1  0  0  0  0
M  END
$$$$
