C15H20O5
APtclcactv06211806333D 0   0.00000     0.00000
 
 40 42  0  0  0  0  0  0  0  0999 V2000
   -0.4679    1.9714    1.9412 C   0  0  0  0  0  0  0  0  0  0  0  0
   -0.9796    1.7560    0.5209 C   0  0  0  0  0  0  0  0  0  0  0  0
   -0.0594    2.3565   -0.5045 C   0  0  0  0  0  0  0  0  0  0  0  0
    1.4126    2.0259   -0.3626 C   0  0  0  0  0  0  0  0  0  0  0  0
    1.7736    0.5968   -0.7187 C   0  0  0  0  0  0  0  0  0  0  0  0
    1.0405   -0.3146    0.3132 C   0  0  0  0  0  0  0  0  0  0  0  0
   -0.3458   -0.6246   -0.2138 C   0  0  0  0  0  0  0  0  0  0  0  0
   -1.4359    0.3100    0.2566 C   0  0  0  0  0  0  0  0  0  0  0  0
   -2.1466   -0.2373    1.5086 C   0  0  0  0  0  0  0  0  0  0  0  0
   -3.2928   -1.0681    0.8828 C   0  0  0  0  0  0  0  0  0  0  0  0
   -3.5539   -0.3622   -0.4340 C   0  0  0  0  0  0  0  0  0  0  0  0
   -4.5761   -0.4504   -1.0848 O   0  0  0  0  0  0  0  0  0  0  0  0
   -2.4836    0.3709   -0.7656 O   0  0  0  0  0  0  0  0  0  0  0  0
   -0.4004   -0.7704   -1.7343 C   0  0  0  0  0  0  0  0  0  0  0  0
   -0.6697   -1.9459    0.3083 O   0  0  0  0  0  0  0  0  0  0  0  0
    1.9035   -1.4912    0.3551 O   0  0  0  0  0  0  0  0  0  0  0  0
    3.1829   -1.0822    0.2024 C   0  0  0  0  0  0  0  0  0  0  0  0
    4.1658   -1.7440    0.4745 O   0  0  0  0  0  0  0  0  0  0  0  0
    3.2209    0.2697   -0.3898 C   0  0  0  0  0  0  0  0  0  0  0  0
    4.2835    1.0377   -0.5968 C   0  0  0  0  0  0  0  0  0  0  0  0
   -0.4868    3.0355    2.1767 H   0  0  0  0  0  0  0  0  0  0  0  0
   -1.1052    1.4327    2.6426 H   0  0  0  0  0  0  0  0  0  0  0  0
    0.5538    1.5999    2.0196 H   0  0  0  0  0  0  0  0  0  0  0  0
   -1.9222    2.3706    0.4681 H   0  0  0  0  0  0  0  0  0  0  0  0
   -0.3998    2.0625   -1.5112 H   0  0  0  0  0  0  0  0  0  0  0  0
   -0.1746    3.4568   -0.4751 H   0  0  0  0  0  0  0  0  0  0  0  0
    1.9869    2.6804   -1.0377 H   0  0  0  0  0  0  0  0  0  0  0  0
    1.7698    2.2296    0.6466 H   0  0  0  0  0  0  0  0  0  0  0  0
    1.6107    0.4005   -1.7577 H   0  0  0  0  0  0  0  0  0  0  0  0
    1.0233    0.1299    1.3068 H   0  0  0  0  0  0  0  0  0  0  0  0
   -1.4871   -0.8567    2.1056 H   0  0  0  0  0  0  0  0  0  0  0  0
   -2.5766    0.5689    2.1057 H   0  0  0  0  0  0  0  0  0  0  0  0
   -2.9876   -2.0998    0.7210 H   0  0  0  0  0  0  0  0  0  0  0  0
   -4.1798   -1.0290    1.5189 H   0  0  0  0  0  0  0  0  0  0  0  0
    0.2564   -1.5828   -2.0452 H   0  0  0  0  0  0  0  0  0  0  0  0
   -1.4225   -0.9917   -2.0416 H   0  0  0  0  0  0  0  0  0  0  0  0
   -0.0740    0.1593   -2.2004 H   0  0  0  0  0  0  0  0  0  0  0  0
   -0.0566   -2.6400    0.0297 H   0  0  0  0  0  0  0  0  0  0  0  0
    5.2662    0.6863   -0.3191 H   0  0  0  0  0  0  0  0  0  0  0  0
    4.1654    2.0141   -1.0431 H   0  0  0  0  0  0  0  0  0  0  0  0
  1  2  1  0  0  0  0
  2  3  1  0  0  0  0
  3  4  1  0  0  0  0
  4  5  1  0  0  0  0
  5  6  1  0  0  0  0
  6  7  1  0  0  0  0
  7  8  1  0  0  0  0
  2  8  1  0  0  0  0
  8  9  1  0  0  0  0
  9 10  1  0  0  0  0
 10 11  1  0  0  0  0
 11 12  2  0  0  0  0
 11 13  1  0  0  0  0
  8 13  1  0  0  0  0
  7 14  1  0  0  0  0
  7 15  1  0  0  0  0
  6 16  1  0  0  0  0
 16 17  1  0  0  0  0
 17 18  2  0  0  0  0
 17 19  1  0  0  0  0
  5 19  1  0  0  0  0
 19 20  2  0  0  0  0
  1 21  1  0  0  0  0
  1 22  1  0  0  0  0
  1 23  1  0  0  0  0
  2 24  1  0  0  0  0
  3 25  1  0  0  0  0
  3 26  1  0  0  0  0
  4 27  1  0  0  0  0
  4 28  1  0  0  0  0
  5 29  1  0  0  0  0
  6 30  1  0  0  0  0
  9 31  1  0  0  0  0
  9 32  1  0  0  0  0
 10 33  1  0  0  0  0
 10 34  1  0  0  0  0
 14 35  1  0  0  0  0
 14 36  1  0  0  0  0
 14 37  1  0  0  0  0
 15 38  1  0  0  0  0
 20 39  1  0  0  0  0
 20 40  1  0  0  0  0
M  END
$$$$
