C16H12O6
APtclcactv06281817243D 0   0.00000     0.00000
 
 34 36  0  0  0  0  0  0  0  0999 V2000
    0.8457   -3.0776    1.2369 C   0  0  0  0  0  0  0  0  0  0  0  0
    0.7882   -2.2573    0.0682 O   0  0  0  0  0  0  0  0  0  0  0  0
   -0.1891   -1.3113    0.0248 C   0  0  0  0  0  0  0  0  0  0  0  0
    0.1352    0.0129    0.0403 C   0  0  0  0  0  0  0  0  0  0  0  0
   -0.7938    0.9831   -0.0004 O   0  0  0  0  0  0  0  0  0  0  0  0
   -2.1146    0.7151   -0.0598 C   0  0  0  0  0  0  0  0  0  0  0  0
   -2.5584   -0.6183   -0.0811 C   0  0  0  0  0  0  0  0  0  0  0  0
   -1.5524   -1.6948   -0.0426 C   0  0  0  0  0  0  0  0  0  0  0  0
   -1.8804   -2.8703   -0.0593 O   0  0  0  0  0  0  0  0  0  0  0  0
   -3.9231   -0.9045   -0.1421 C   0  0  0  0  0  0  0  0  0  0  0  0
   -4.8288    0.1170   -0.1811 C   0  0  0  0  0  0  0  0  0  0  0  0
   -4.3978    1.4418   -0.1608 C   0  0  0  0  0  0  0  0  0  0  0  0
   -3.0474    1.7419   -0.1000 C   0  0  0  0  0  0  0  0  0  0  0  0
   -5.3096    2.4468   -0.2005 O   0  0  0  0  0  0  0  0  0  0  0  0
    1.5579    0.3946    0.1045 C   0  0  0  0  0  0  0  0  0  0  0  0
    2.4853   -0.2124   -0.7472 C   0  0  0  0  0  0  0  0  0  0  0  0
    3.8173    0.1491   -0.6828 C   0  0  0  0  0  0  0  0  0  0  0  0
    4.2337    1.1163    0.2302 C   0  0  0  0  0  0  0  0  0  0  0  0
    3.3132    1.7189    1.0764 C   0  0  0  0  0  0  0  0  0  0  0  0
    1.9817    1.3683    1.0134 C   0  0  0  0  0  0  0  0  0  0  0  0
    5.5441    1.4701    0.2923 O   0  0  0  0  0  0  0  0  0  0  0  0
    4.7223   -0.4394   -1.5100 O   0  0  0  0  0  0  0  0  0  0  0  0
   -0.1215   -3.5552    1.3935 H   0  0  0  0  0  0  0  0  0  0  0  0
    1.6116   -3.8422    1.1068 H   0  0  0  0  0  0  0  0  0  0  0  0
    1.0909   -2.4612    2.1017 H   0  0  0  0  0  0  0  0  0  0  0  0
   -4.2616   -1.9299   -0.1587 H   0  0  0  0  0  0  0  0  0  0  0  0
   -5.8850   -0.1034   -0.2283 H   0  0  0  0  0  0  0  0  0  0  0  0
   -2.7212    2.7714   -0.0850 H   0  0  0  0  0  0  0  0  0  0  0  0
   -5.6130    2.7373    0.6705 H   0  0  0  0  0  0  0  0  0  0  0  0
    2.1615   -0.9623   -1.4538 H   0  0  0  0  0  0  0  0  0  0  0  0
    3.6403    2.4677    1.7826 H   0  0  0  0  0  0  0  0  0  0  0  0
    1.2675    1.8387    1.6730 H   0  0  0  0  0  0  0  0  0  0  0  0
    5.7820    2.2024   -0.2926 H   0  0  0  0  0  0  0  0  0  0  0  0
    4.8423    0.0202   -2.3523 H   0  0  0  0  0  0  0  0  0  0  0  0
  1  2  1  0  0  0  0
  2  3  1  0  0  0  0
  3  4  2  0  0  0  0
  4  5  1  0  0  0  0
  5  6  1  0  0  0  0
  6  7  2  0  0  0  0
  7  8  1  0  0  0  0
  3  8  1  0  0  0  0
  8  9  2  0  0  0  0
  7 10  1  0  0  0  0
 10 11  2  0  0  0  0
 11 12  1  0  0  0  0
 12 13  2  0  0  0  0
  6 13  1  0  0  0  0
 12 14  1  0  0  0  0
  4 15  1  0  0  0  0
 15 16  2  0  0  0  0
 16 17  1  0  0  0  0
 17 18  2  0  0  0  0
 18 19  1  0  0  0  0
 19 20  2  0  0  0  0
 15 20  1  0  0  0  0
 18 21  1  0  0  0  0
 17 22  1  0  0  0  0
  1 23  1  0  0  0  0
  1 24  1  0  0  0  0
  1 25  1  0  0  0  0
 10 26  1  0  0  0  0
 11 27  1  0  0  0  0
 13 28  1  0  0  0  0
 14 29  1  0  0  0  0
 16 30  1  0  0  0  0
 19 31  1  0  0  0  0
 20 32  1  0  0  0  0
 21 33  1  0  0  0  0
 22 34  1  0  0  0  0
M  END
$$$$
