C10H16O
APtclcactv06211806333D 0   0.00000     0.00000
 
 27 27  0  0  0  0  0  0  0  0999 V2000
    2.9527    0.3677    1.1074 C   0  0  0  0  0  0  0  0  0  0  0  0
    1.6827    0.5201    0.3105 C   0  0  0  0  0  0  0  0  0  0  0  0
    1.1147    1.6633    0.0381 C   0  0  0  0  0  0  0  0  0  0  0  0
   -0.1415    1.4658   -0.7780 C   0  0  0  0  0  0  0  0  0  0  0  0
   -0.4864   -0.0324   -0.6123 C   0  0  0  0  0  0  0  0  0  0  0  0
    0.9032   -0.6299   -0.2835 C   0  0  0  0  0  0  0  0  0  0  0  0
    1.5790   -1.1402   -1.5578 C   0  0  0  0  0  0  0  0  0  0  0  0
    0.7691   -1.7599    0.7392 C   0  0  0  0  0  0  0  0  0  0  0  0
   -1.4687   -0.2456    0.5411 C   0  0  0  0  0  0  0  0  0  0  0  0
   -2.7943    0.3819    0.1946 C   0  0  0  0  0  0  0  0  0  0  0  0
   -3.8035   -0.2804    0.2299 O   0  0  0  0  0  0  0  0  0  0  0  0
    3.3103    1.3511    1.4126 H   0  0  0  0  0  0  0  0  0  0  0  0
    2.7560   -0.2380    1.9921 H   0  0  0  0  0  0  0  0  0  0  0  0
    3.7102   -0.1202    0.4940 H   0  0  0  0  0  0  0  0  0  0  0  0
    1.4928    2.6241    0.3548 H   0  0  0  0  0  0  0  0  0  0  0  0
   -0.9486    2.0866   -0.3889 H   0  0  0  0  0  0  0  0  0  0  0  0
    0.0461    1.6987   -1.8262 H   0  0  0  0  0  0  0  0  0  0  0  0
   -0.8788   -0.4485   -1.5402 H   0  0  0  0  0  0  0  0  0  0  0  0
    1.7043   -0.3146   -2.2583 H   0  0  0  0  0  0  0  0  0  0  0  0
    2.5550   -1.5572   -1.3094 H   0  0  0  0  0  0  0  0  0  0  0  0
    0.9593   -1.9125   -2.0135 H   0  0  0  0  0  0  0  0  0  0  0  0
    0.1323   -2.5451    0.3317 H   0  0  0  0  0  0  0  0  0  0  0  0
    1.7549   -2.1694    0.9597 H   0  0  0  0  0  0  0  0  0  0  0  0
    0.3244   -1.3702    1.6550 H   0  0  0  0  0  0  0  0  0  0  0  0
   -1.6053   -1.3139    0.7093 H   0  0  0  0  0  0  0  0  0  0  0  0
   -1.0731    0.2169    1.4454 H   0  0  0  0  0  0  0  0  0  0  0  0
   -2.8418    1.4239   -0.0854 H   0  0  0  0  0  0  0  0  0  0  0  0
  1  2  1  0  0  0  0
  2  3  2  0  0  0  0
  3  4  1  0  0  0  0
  4  5  1  0  0  0  0
  5  6  1  0  0  0  0
  2  6  1  0  0  0  0
  6  7  1  0  0  0  0
  6  8  1  0  0  0  0
  5  9  1  0  0  0  0
  9 10  1  0  0  0  0
 10 11  2  0  0  0  0
  1 12  1  0  0  0  0
  1 13  1  0  0  0  0
  1 14  1  0  0  0  0
  3 15  1  0  0  0  0
  4 16  1  0  0  0  0
  4 17  1  0  0  0  0
  5 18  1  0  0  0  0
  7 19  1  0  0  0  0
  7 20  1  0  0  0  0
  7 21  1  0  0  0  0
  8 22  1  0  0  0  0
  8 23  1  0  0  0  0
  8 24  1  0  0  0  0
  9 25  1  0  0  0  0
  9 26  1  0  0  0  0
 10 27  1  0  0  0  0
M  END
$$$$
