C16H32O2
APtclcactv06201810123D 0   0.00000     0.00000
 
 50 49  0  0  0  0  0  0  0  0999 V2000
   10.5448   -0.2715   -0.0000 C   0  0  0  0  0  0  0  0  0  0  0  0
    9.2744    0.5811    0.0000 C   0  0  0  0  0  0  0  0  0  0  0  0
    8.0471   -0.3325   -0.0000 C   0  0  0  0  0  0  0  0  0  0  0  0
    6.7766    0.5202    0.0000 C   0  0  0  0  0  0  0  0  0  0  0  0
    5.5493   -0.3934   -0.0000 C   0  0  0  0  0  0  0  0  0  0  0  0
    4.2789    0.4592    0.0000 C   0  0  0  0  0  0  0  0  0  0  0  0
    3.0516   -0.4544   -0.0000 C   0  0  0  0  0  0  0  0  0  0  0  0
    1.7812    0.3982    0.0000 C   0  0  0  0  0  0  0  0  0  0  0  0
    0.5539   -0.5153   -0.0000 C   0  0  0  0  0  0  0  0  0  0  0  0
   -0.7166    0.3373    0.0000 C   0  0  0  0  0  0  0  0  0  0  0  0
   -1.9439   -0.5763    0.0000 C   0  0  0  0  0  0  0  0  0  0  0  0
   -3.2143    0.2763    0.0000 C   0  0  0  0  0  0  0  0  0  0  0  0
   -4.4416   -0.6372    0.0000 C   0  0  0  0  0  0  0  0  0  0  0  0
   -5.7120    0.2154   -0.0000 C   0  0  0  0  0  0  0  0  0  0  0  0
   -6.9394   -0.6982    0.0000 C   0  0  0  0  0  0  0  0  0  0  0  0
   -8.1907    0.1416   -0.0000 C   0  0  0  0  0  0  0  0  0  0  0  0
   -8.1092    1.3471   -0.0000 O   0  0  0  0  0  0  0  0  0  0  0  0
   -9.3957   -0.4497    0.0000 O   0  0  0  0  0  0  0  0  0  0  0  0
   11.4192    0.3793    0.0000 H   0  0  0  0  0  0  0  0  0  0  0  0
   10.5602   -0.9006    0.8900 H   0  0  0  0  0  0  0  0  0  0  0  0
   10.5602   -0.9006   -0.8900 H   0  0  0  0  0  0  0  0  0  0  0  0
    9.2590    1.2102    0.8900 H   0  0  0  0  0  0  0  0  0  0  0  0
    9.2590    1.2102   -0.8900 H   0  0  0  0  0  0  0  0  0  0  0  0
    8.0624   -0.9616   -0.8900 H   0  0  0  0  0  0  0  0  0  0  0  0
    8.0624   -0.9616    0.8900 H   0  0  0  0  0  0  0  0  0  0  0  0
    6.7613    1.1493    0.8900 H   0  0  0  0  0  0  0  0  0  0  0  0
    6.7613    1.1493   -0.8900 H   0  0  0  0  0  0  0  0  0  0  0  0
    5.5647   -1.0225   -0.8900 H   0  0  0  0  0  0  0  0  0  0  0  0
    5.5647   -1.0225    0.8900 H   0  0  0  0  0  0  0  0  0  0  0  0
    4.2636    1.0883    0.8900 H   0  0  0  0  0  0  0  0  0  0  0  0
    4.2636    1.0883   -0.8900 H   0  0  0  0  0  0  0  0  0  0  0  0
    3.0669   -1.0835   -0.8900 H   0  0  0  0  0  0  0  0  0  0  0  0
    3.0669   -1.0835    0.8900 H   0  0  0  0  0  0  0  0  0  0  0  0
    1.7658    1.0274    0.8900 H   0  0  0  0  0  0  0  0  0  0  0  0
    1.7658    1.0274   -0.8900 H   0  0  0  0  0  0  0  0  0  0  0  0
    0.5692   -1.1445   -0.8900 H   0  0  0  0  0  0  0  0  0  0  0  0
    0.5692   -1.1445    0.8900 H   0  0  0  0  0  0  0  0  0  0  0  0
   -0.7319    0.9664    0.8900 H   0  0  0  0  0  0  0  0  0  0  0  0
   -0.7319    0.9664   -0.8900 H   0  0  0  0  0  0  0  0  0  0  0  0
   -1.9285   -1.2054   -0.8900 H   0  0  0  0  0  0  0  0  0  0  0  0
   -1.9285   -1.2054    0.8900 H   0  0  0  0  0  0  0  0  0  0  0  0
   -3.2297    0.9054    0.8900 H   0  0  0  0  0  0  0  0  0  0  0  0
   -3.2297    0.9054   -0.8900 H   0  0  0  0  0  0  0  0  0  0  0  0
   -4.4263   -1.2664   -0.8900 H   0  0  0  0  0  0  0  0  0  0  0  0
   -4.4263   -1.2664    0.8900 H   0  0  0  0  0  0  0  0  0  0  0  0
   -5.7274    0.8445    0.8900 H   0  0  0  0  0  0  0  0  0  0  0  0
   -5.7274    0.8445   -0.8900 H   0  0  0  0  0  0  0  0  0  0  0  0
   -6.9240   -1.3273   -0.8900 H   0  0  0  0  0  0  0  0  0  0  0  0
   -6.9240   -1.3273    0.8900 H   0  0  0  0  0  0  0  0  0  0  0  0
  -10.1694    0.1305   -0.0000 H   0  0  0  0  0  0  0  0  0  0  0  0
  1  2  1  0  0  0  0
  2  3  1  0  0  0  0
  3  4  1  0  0  0  0
  4  5  1  0  0  0  0
  5  6  1  0  0  0  0
  6  7  1  0  0  0  0
  7  8  1  0  0  0  0
  8  9  1  0  0  0  0
  9 10  1  0  0  0  0
 10 11  1  0  0  0  0
 11 12  1  0  0  0  0
 12 13  1  0  0  0  0
 13 14  1  0  0  0  0
 14 15  1  0  0  0  0
 15 16  1  0  0  0  0
 16 17  2  0  0  0  0
 16 18  1  0  0  0  0
  1 19  1  0  0  0  0
  1 20  1  0  0  0  0
  1 21  1  0  0  0  0
  2 22  1  0  0  0  0
  2 23  1  0  0  0  0
  3 24  1  0  0  0  0
  3 25  1  0  0  0  0
  4 26  1  0  0  0  0
  4 27  1  0  0  0  0
  5 28  1  0  0  0  0
  5 29  1  0  0  0  0
  6 30  1  0  0  0  0
  6 31  1  0  0  0  0
  7 32  1  0  0  0  0
  7 33  1  0  0  0  0
  8 34  1  0  0  0  0
  8 35  1  0  0  0  0
  9 36  1  0  0  0  0
  9 37  1  0  0  0  0
 10 38  1  0  0  0  0
 10 39  1  0  0  0  0
 11 40  1  0  0  0  0
 11 41  1  0  0  0  0
 12 42  1  0  0  0  0
 12 43  1  0  0  0  0
 13 44  1  0  0  0  0
 13 45  1  0  0  0  0
 14 46  1  0  0  0  0
 14 47  1  0  0  0  0
 15 48  1  0  0  0  0
 15 49  1  0  0  0  0
 18 50  1  0  0  0  0
M  END
$$$$
