C10H18O
APtclcactv06281817243D 0   0.00000     0.00000
 
 29 29  0  0  0  0  0  0  0  0999 V2000
    3.3375    0.3896   -1.0106 C   0  0  0  0  0  0  0  0  0  0  0  0
    2.6001   -0.5234   -0.0290 C   0  0  0  0  0  0  0  0  0  0  0  0
    3.1243   -0.2786    1.3874 C   0  0  0  0  0  0  0  0  0  0  0  0
    1.1239   -0.2245   -0.0769 C   0  0  0  0  0  0  0  0  0  0  0  0
    0.3213   -1.1821   -0.4151 C   0  0  0  0  0  0  0  0  0  0  0  0
   -1.1686   -1.0343   -0.5164 C   0  0  0  0  0  0  0  0  0  0  0  0
   -1.6250    0.2243    0.2248 C   0  0  0  0  0  0  0  0  0  0  0  0
   -0.7509    1.3995   -0.2309 C   0  0  0  0  0  0  0  0  0  0  0  0
    0.6751    1.1633    0.2763 C   0  0  0  0  0  0  0  0  0  0  0  0
   -3.0901    0.5139   -0.1074 C   0  0  0  0  0  0  0  0  0  0  0  0
   -3.9110   -0.5400    0.4001 O   0  0  0  0  0  0  0  0  0  0  0  0
    4.4053    0.1734   -0.9759 H   0  0  0  0  0  0  0  0  0  0  0  0
    2.9640    0.2152   -2.0197 H   0  0  0  0  0  0  0  0  0  0  0  0
    3.1685    1.4307   -0.7355 H   0  0  0  0  0  0  0  0  0  0  0  0
    2.7691   -1.5645   -0.3040 H   0  0  0  0  0  0  0  0  0  0  0  0
    2.9553    0.7625    1.6625 H   0  0  0  0  0  0  0  0  0  0  0  0
    2.5990   -0.9290    2.0867 H   0  0  0  0  0  0  0  0  0  0  0  0
    4.1921   -0.4948    1.4221 H   0  0  0  0  0  0  0  0  0  0  0  0
    0.7508   -2.1476   -0.6386 H   0  0  0  0  0  0  0  0  0  0  0  0
   -1.4536   -0.9590   -1.5658 H   0  0  0  0  0  0  0  0  0  0  0  0
   -1.6492   -1.9076   -0.0754 H   0  0  0  0  0  0  0  0  0  0  0  0
   -1.5116    0.0782    1.2990 H   0  0  0  0  0  0  0  0  0  0  0  0
   -0.7517    1.4562   -1.3195 H   0  0  0  0  0  0  0  0  0  0  0  0
   -1.1384    2.3283    0.1877 H   0  0  0  0  0  0  0  0  0  0  0  0
    0.6998    1.2928    1.3583 H   0  0  0  0  0  0  0  0  0  0  0  0
    1.3477    1.8849   -0.1874 H   0  0  0  0  0  0  0  0  0  0  0  0
   -3.3866    1.4578    0.3500 H   0  0  0  0  0  0  0  0  0  0  0  0
   -3.2113    0.5803   -1.1886 H   0  0  0  0  0  0  0  0  0  0  0  0
   -4.8548   -0.4223    0.2254 H   0  0  0  0  0  0  0  0  0  0  0  0
  1  2  1  0  0  0  0
  2  3  1  0  0  0  0
  2  4  1  0  0  0  0
  4  5  2  0  0  0  0
  5  6  1  0  0  0  0
  6  7  1  0  0  0  0
  7  8  1  0  0  0  0
  8  9  1  0  0  0  0
  4  9  1  0  0  0  0
  7 10  1  0  0  0  0
 10 11  1  0  0  0  0
  1 12  1  0  0  0  0
  1 13  1  0  0  0  0
  1 14  1  0  0  0  0
  2 15  1  0  0  0  0
  3 16  1  0  0  0  0
  3 17  1  0  0  0  0
  3 18  1  0  0  0  0
  5 19  1  0  0  0  0
  6 20  1  0  0  0  0
  6 21  1  0  0  0  0
  7 22  1  0  0  0  0
  8 23  1  0  0  0  0
  8 24  1  0  0  0  0
  9 25  1  0  0  0  0
  9 26  1  0  0  0  0
 10 27  1  0  0  0  0
 10 28  1  0  0  0  0
 11 29  1  0  0  0  0
M  END
$$$$
