C20H20O5
APtclcactv06281817243D 0   0.00000     0.00000
 
 45 46  0  0  0  0  0  0  0  0999 V2000
    5.9627   -2.1733   -0.3981 C   0  0  0  0  0  0  0  0  0  0  0  0
    5.8592   -1.2521    0.7901 C   0  0  0  0  0  0  0  0  0  0  0  0
    5.3508   -0.0533    0.6471 C   0  0  0  0  0  0  0  0  0  0  0  0
    4.7553    0.3600   -0.6742 C   0  0  0  0  0  0  0  0  0  0  0  0
    3.3497    0.8585   -0.4577 C   0  0  0  0  0  0  0  0  0  0  0  0
    3.1230    2.2022   -0.1988 C   0  0  0  0  0  0  0  0  0  0  0  0
    1.8272    2.6692    0.0021 C   0  0  0  0  0  0  0  0  0  0  0  0
    0.7615    1.8013   -0.0547 C   0  0  0  0  0  0  0  0  0  0  0  0
    0.9787    0.4446   -0.3155 C   0  0  0  0  0  0  0  0  0  0  0  0
    2.2851   -0.0237   -0.5230 C   0  0  0  0  0  0  0  0  0  0  0  0
    2.5048   -1.3383   -0.7766 O   0  0  0  0  0  0  0  0  0  0  0  0
   -0.1609   -0.4890   -0.3772 C   0  0  0  0  0  0  0  0  0  0  0  0
    0.0311   -1.6706   -0.6046 O   0  0  0  0  0  0  0  0  0  0  0  0
   -1.4797   -0.0121   -0.1720 C   0  0  0  0  0  0  0  0  0  0  0  0
   -2.5257   -0.8690   -0.2286 C   0  0  0  0  0  0  0  0  0  0  0  0
   -3.8903   -0.3755   -0.0162 C   0  0  0  0  0  0  0  0  0  0  0  0
   -4.9795   -1.2628   -0.0743 C   0  0  0  0  0  0  0  0  0  0  0  0
   -6.2624   -0.7849    0.1283 C   0  0  0  0  0  0  0  0  0  0  0  0
   -6.4663    0.5631    0.3869 C   0  0  0  0  0  0  0  0  0  0  0  0
   -5.3860    1.4392    0.4438 C   0  0  0  0  0  0  0  0  0  0  0  0
   -4.1144    0.9812    0.2512 C   0  0  0  0  0  0  0  0  0  0  0  0
   -7.7254    1.0298    0.5849 O   0  0  0  0  0  0  0  0  0  0  0  0
   -4.7740   -2.5798   -0.3279 O   0  0  0  0  0  0  0  0  0  0  0  0
    4.1690    3.0652   -0.1407 O   0  0  0  0  0  0  0  0  0  0  0  0
    6.3405   -1.7100    2.1427 C   0  0  0  0  0  0  0  0  0  0  0  0
    6.5116   -1.6753   -1.1973 H   0  0  0  0  0  0  0  0  0  0  0  0
    6.4887   -3.0828   -0.1080 H   0  0  0  0  0  0  0  0  0  0  0  0
    4.9625   -2.4282   -0.7485 H   0  0  0  0  0  0  0  0  0  0  0  0
    5.3584    0.6389    1.4760 H   0  0  0  0  0  0  0  0  0  0  0  0
    5.3592    1.1546   -1.1123 H   0  0  0  0  0  0  0  0  0  0  0  0
    4.7373   -0.4964   -1.3483 H   0  0  0  0  0  0  0  0  0  0  0  0
    1.6579    3.7166    0.2036 H   0  0  0  0  0  0  0  0  0  0  0  0
   -0.2423    2.1673    0.1024 H   0  0  0  0  0  0  0  0  0  0  0  0
    2.4859   -1.5661   -1.7162 H   0  0  0  0  0  0  0  0  0  0  0  0
   -1.6499    1.0352    0.0296 H   0  0  0  0  0  0  0  0  0  0  0  0
   -2.3555   -1.9163   -0.4301 H   0  0  0  0  0  0  0  0  0  0  0  0
   -7.1040   -1.4604    0.0849 H   0  0  0  0  0  0  0  0  0  0  0  0
   -5.5545    2.4867    0.6456 H   0  0  0  0  0  0  0  0  0  0  0  0
   -3.2813    1.6669    0.2972 H   0  0  0  0  0  0  0  0  0  0  0  0
   -8.0112    1.0108    1.5085 H   0  0  0  0  0  0  0  0  0  0  0  0
   -4.6349   -3.1159    0.4647 H   0  0  0  0  0  0  0  0  0  0  0  0
    4.3935    3.4689   -0.9902 H   0  0  0  0  0  0  0  0  0  0  0  0
    7.3919   -1.4484    2.2619 H   0  0  0  0  0  0  0  0  0  0  0  0
    5.7542   -1.2221    2.9213 H   0  0  0  0  0  0  0  0  0  0  0  0
    6.2236   -2.7907    2.2233 H   0  0  0  0  0  0  0  0  0  0  0  0
  1  2  1  0  0  0  0
  2  3  2  0  0  0  0
  3  4  1  0  0  0  0
  4  5  1  0  0  0  0
  5  6  2  0  0  0  0
  6  7  1  0  0  0  0
  7  8  2  0  0  0  0
  8  9  1  0  0  0  0
  9 10  2  0  0  0  0
  5 10  1  0  0  0  0
 10 11  1  0  0  0  0
  9 12  1  0  0  0  0
 12 13  2  0  0  0  0
 12 14  1  0  0  0  0
 14 15  2  0  0  0  0
 15 16  1  0  0  0  0
 16 17  2  0  0  0  0
 17 18  1  0  0  0  0
 18 19  2  0  0  0  0
 19 20  1  0  0  0  0
 20 21  2  0  0  0  0
 16 21  1  0  0  0  0
 19 22  1  0  0  0  0
 17 23  1  0  0  0  0
  6 24  1  0  0  0  0
  2 25  1  0  0  0  0
  1 26  1  0  0  0  0
  1 27  1  0  0  0  0
  1 28  1  0  0  0  0
  3 29  1  0  0  0  0
  4 30  1  0  0  0  0
  4 31  1  0  0  0  0
  7 32  1  0  0  0  0
  8 33  1  0  0  0  0
 11 34  1  0  0  0  0
 14 35  1  0  0  0  0
 15 36  1  0  0  0  0
 18 37  1  0  0  0  0
 20 38  1  0  0  0  0
 21 39  1  0  0  0  0
 22 40  1  0  0  0  0
 23 41  1  0  0  0  0
 24 42  1  0  0  0  0
 25 43  1  0  0  0  0
 25 44  1  0  0  0  0
 25 45  1  0  0  0  0
M  END
$$$$
