C6H12S
APtclcactv06211806333D 0   0.00000     0.00000
 
 19 18  0  0  0  0  0  0  0  0999 V2000
    3.8460   -0.4224   -0.1170 C   0  0  0  0  0  0  0  0  0  0  0  0
    2.5813    0.4376   -0.1599 C   0  0  0  0  0  0  0  0  0  0  0  0
    1.3563   -0.4441    0.0908 C   0  0  0  0  0  0  0  0  0  0  0  0
   -0.1432    0.5755    0.0399 S   0  0  0  0  0  0  0  0  0  0  0  0
   -1.4650   -0.6267    0.3532 C   0  0  0  0  0  0  0  0  0  0  0  0
   -2.7973    0.0774    0.3424 C   0  0  0  0  0  0  0  0  0  0  0  0
   -3.6799   -0.2050   -0.5835 C   0  0  0  0  0  0  0  0  0  0  0  0
    3.9318   -0.8938    0.8621 H   0  0  0  0  0  0  0  0  0  0  0  0
    3.7885   -1.1919   -0.8869 H   0  0  0  0  0  0  0  0  0  0  0  0
    4.7188    0.2057   -0.2956 H   0  0  0  0  0  0  0  0  0  0  0  0
    2.6389    1.2070    0.6100 H   0  0  0  0  0  0  0  0  0  0  0  0
    2.4955    0.9089   -1.1390 H   0  0  0  0  0  0  0  0  0  0  0  0
    1.2987   -1.2136   -0.6791 H   0  0  0  0  0  0  0  0  0  0  0  0
    1.4421   -0.9155    1.0699 H   0  0  0  0  0  0  0  0  0  0  0  0
   -1.4519   -1.3916   -0.4233 H   0  0  0  0  0  0  0  0  0  0  0  0
   -1.3085   -1.0935    1.3257 H   0  0  0  0  0  0  0  0  0  0  0  0
   -3.0245    0.8148    1.0981 H   0  0  0  0  0  0  0  0  0  0  0  0
   -3.4527   -0.9424   -1.3392 H   0  0  0  0  0  0  0  0  0  0  0  0
   -4.6347    0.2996   -0.5913 H   0  0  0  0  0  0  0  0  0  0  0  0
  1  2  1  0  0  0  0
  2  3  1  0  0  0  0
  3  4  1  0  0  0  0
  4  5  1  0  0  0  0
  5  6  1  0  0  0  0
  6  7  2  0  0  0  0
  1  8  1  0  0  0  0
  1  9  1  0  0  0  0
  1 10  1  0  0  0  0
  2 11  1  0  0  0  0
  2 12  1  0  0  0  0
  3 13  1  0  0  0  0
  3 14  1  0  0  0  0
  5 15  1  0  0  0  0
  5 16  1  0  0  0  0
  6 17  1  0  0  0  0
  7 18  1  0  0  0  0
  7 19  1  0  0  0  0
M  END
$$$$
