C9H14OS3
APtclcactv06281817253D 0   0.00000     0.00000
 
 27 26  0  0  0  0  0  0  0  0999 V2000
    6.4146    0.2780    0.9425 C   0  0  0  0  0  0  0  0  0  0  0  0
    5.1148    0.1158    0.9287 C   0  0  0  0  0  0  0  0  0  0  0  0
    4.2422    1.0866    0.1755 C   0  0  0  0  0  0  0  0  0  0  0  0
    3.4286    0.2273   -1.1994 S   0  0  0  0  0  0  0  0  0  0  0  0
    2.0896   -0.9997   -0.2486 S   0  0  0  0  0  0  0  0  0  0  0  0
    0.6951    0.0492   -0.0041 C   0  0  0  0  0  0  0  0  0  0  0  0
   -0.3856   -0.4177    0.5955 C   0  0  0  0  0  0  0  0  0  0  0  0
   -1.5783    0.4794    0.8046 C   0  0  0  0  0  0  0  0  0  0  0  0
   -2.9806   -0.1438   -0.1628 S   0  0  0  0  0  0  0  0  0  0  0  0
   -3.3530   -1.4286    0.3166 O   0  0  0  0  0  0  0  0  0  0  0  0
   -4.2967    1.0467    0.2129 C   0  0  0  0  0  0  0  0  0  0  0  0
   -5.5504    0.6601   -0.5286 C   0  0  0  0  0  0  0  0  0  0  0  0
   -6.6175    0.2921    0.1363 C   0  0  0  0  0  0  0  0  0  0  0  0
    6.8609    1.1076    0.4142 H   0  0  0  0  0  0  0  0  0  0  0  0
    7.0396   -0.4152    1.4859 H   0  0  0  0  0  0  0  0  0  0  0  0
    4.6685   -0.7138    1.4570 H   0  0  0  0  0  0  0  0  0  0  0  0
    3.4867    1.4932    0.8479 H   0  0  0  0  0  0  0  0  0  0  0  0
    4.8555    1.8985   -0.2154 H   0  0  0  0  0  0  0  0  0  0  0  0
    0.7238    1.0737   -0.3444 H   0  0  0  0  0  0  0  0  0  0  0  0
   -0.4142   -1.4423    0.9358 H   0  0  0  0  0  0  0  0  0  0  0  0
   -1.8430    0.4914    1.8619 H   0  0  0  0  0  0  0  0  0  0  0  0
   -1.3336    1.4907    0.4797 H   0  0  0  0  0  0  0  0  0  0  0  0
   -4.4934    1.0445    1.2850 H   0  0  0  0  0  0  0  0  0  0  0  0
   -3.9840    2.0438   -0.0971 H   0  0  0  0  0  0  0  0  0  0  0  0
   -5.5692    0.6865   -1.6081 H   0  0  0  0  0  0  0  0  0  0  0  0
   -7.5160    0.0151   -0.3951 H   0  0  0  0  0  0  0  0  0  0  0  0
   -6.5987    0.2657    1.2158 H   0  0  0  0  0  0  0  0  0  0  0  0
  1  2  2  0  0  0  0
  2  3  1  0  0  0  0
  3  4  1  0  0  0  0
  4  5  1  0  0  0  0
  5  6  1  0  0  0  0
  6  7  2  0  0  0  0
  7  8  1  0  0  0  0
  8  9  1  0  0  0  0
  9 10  2  0  0  0  0
  9 11  1  0  0  0  0
 11 12  1  0  0  0  0
 12 13  2  0  0  0  0
  1 14  1  0  0  0  0
  1 15  1  0  0  0  0
  2 16  1  0  0  0  0
  3 17  1  0  0  0  0
  3 18  1  0  0  0  0
  6 19  1  0  0  0  0
  7 20  1  0  0  0  0
  8 21  1  0  0  0  0
  8 22  1  0  0  0  0
 11 23  1  0  0  0  0
 11 24  1  0  0  0  0
 12 25  1  0  0  0  0
 13 26  1  0  0  0  0
 13 27  1  0  0  0  0
M  END
$$$$
