C12H21N3O6
APtclcactv06281817253D 0   0.00000     0.00000
 
 42 42  0  0  0  0  0  0  0  0999 V2000
   -5.1160    0.5541    1.0161 C   0  0  0  0  0  0  0  0  0  0  0  0
   -4.2920   -0.7405    1.1365 C   0  0  0  0  0  0  0  0  0  0  0  0
   -3.3857   -0.1398    0.1331 N   0  0  0  0  0  0  0  0  0  0  0  0
   -3.8161    1.2193    0.5289 C   0  0  0  0  0  0  0  0  0  0  0  0
   -4.0129    2.1568   -0.6345 C   0  0  0  0  0  0  0  0  0  0  0  0
   -3.8193    1.7689   -1.7623 O   0  0  0  0  0  0  0  0  0  0  0  0
   -4.4032    3.4227   -0.4178 O   0  0  0  0  0  0  0  0  0  0  0  0
   -1.9793   -0.3711    0.4887 C   0  0  0  0  0  0  0  0  0  0  0  0
   -1.4930   -1.6643   -0.1686 C   0  0  0  0  0  0  0  0  0  0  0  0
   -0.0282   -1.9052    0.2018 C   0  0  0  0  0  0  0  0  0  0  0  0
    0.4150   -3.2385   -0.3430 C   0  0  0  0  0  0  0  0  0  0  0  0
    1.3302   -3.2956   -1.1299 O   0  0  0  0  0  0  0  0  0  0  0  0
   -0.2069   -4.3627    0.0458 O   0  0  0  0  0  0  0  0  0  0  0  0
    0.8039   -0.8400   -0.3736 N   0  0  0  0  0  0  0  0  0  0  0  0
    2.0454   -0.6697    0.3931 C   0  0  0  0  0  0  0  0  0  0  0  0
    2.8836    0.4456   -0.2349 C   0  0  0  0  0  0  0  0  0  0  0  0
    4.1766    0.6230    0.5636 C   0  0  0  0  0  0  0  0  0  0  0  0
    5.0570    1.6344   -0.1242 C   0  0  0  0  0  0  0  0  0  0  0  0
    5.0946    2.7739    0.2759 O   0  0  0  0  0  0  0  0  0  0  0  0
    5.7994    1.2694   -1.1812 O   0  0  0  0  0  0  0  0  0  0  0  0
    3.8553    1.0937    1.9175 N   0  0  0  0  0  0  0  0  0  0  0  0
   -5.8967    0.5083    0.2568 H   0  0  0  0  0  0  0  0  0  0  0  0
   -5.4733    0.9373    1.9720 H   0  0  0  0  0  0  0  0  0  0  0  0
   -3.8331   -0.8796    2.1154 H   0  0  0  0  0  0  0  0  0  0  0  0
   -4.8146   -1.6284    0.7805 H   0  0  0  0  0  0  0  0  0  0  0  0
   -3.2180    1.6535    1.3300 H   0  0  0  0  0  0  0  0  0  0  0  0
   -4.5161    3.9864   -1.1953 H   0  0  0  0  0  0  0  0  0  0  0  0
   -1.3737    0.4647    0.1382 H   0  0  0  0  0  0  0  0  0  0  0  0
   -1.8877   -0.4572    1.5714 H   0  0  0  0  0  0  0  0  0  0  0  0
   -2.0986   -2.5001    0.1819 H   0  0  0  0  0  0  0  0  0  0  0  0
   -1.5846   -1.5782   -1.2514 H   0  0  0  0  0  0  0  0  0  0  0  0
    0.0774   -1.9027    1.2867 H   0  0  0  0  0  0  0  0  0  0  0  0
    0.1128   -5.1940   -0.3308 H   0  0  0  0  0  0  0  0  0  0  0  0
    1.0016   -1.0212   -1.3463 H   0  0  0  0  0  0  0  0  0  0  0  0
    1.8033   -0.4064    1.4227 H   0  0  0  0  0  0  0  0  0  0  0  0
    2.6114   -1.6011    0.3797 H   0  0  0  0  0  0  0  0  0  0  0  0
    3.1257    0.1823   -1.2645 H   0  0  0  0  0  0  0  0  0  0  0  0
    2.3176    1.3770   -0.2215 H   0  0  0  0  0  0  0  0  0  0  0  0
    4.6994   -0.3315    0.6253 H   0  0  0  0  0  0  0  0  0  0  0  0
    6.3483    1.9530   -1.5892 H   0  0  0  0  0  0  0  0  0  0  0  0
    4.6871    1.1572    2.4852 H   0  0  0  0  0  0  0  0  0  0  0  0
    3.3699    1.9778    1.8873 H   0  0  0  0  0  0  0  0  0  0  0  0
  1  2  1  0  0  0  0
  2  3  1  0  0  0  0
  3  4  1  0  0  0  0
  1  4  1  0  0  0  0
  4  5  1  0  0  0  0
  5  6  2  0  0  0  0
  5  7  1  0  0  0  0
  3  8  1  0  0  0  0
  8  9  1  0  0  0  0
  9 10  1  0  0  0  0
 10 11  1  0  0  0  0
 11 12  2  0  0  0  0
 11 13  1  0  0  0  0
 10 14  1  0  0  0  0
 14 15  1  0  0  0  0
 15 16  1  0  0  0  0
 16 17  1  0  0  0  0
 17 18  1  0  0  0  0
 18 19  2  0  0  0  0
 18 20  1  0  0  0  0
 17 21  1  0  0  0  0
  1 22  1  0  0  0  0
  1 23  1  0  0  0  0
  2 24  1  0  0  0  0
  2 25  1  0  0  0  0
  4 26  1  0  0  0  0
  7 27  1  0  0  0  0
  8 28  1  0  0  0  0
  8 29  1  0  0  0  0
  9 30  1  0  0  0  0
  9 31  1  0  0  0  0
 10 32  1  0  0  0  0
 13 33  1  0  0  0  0
 14 34  1  0  0  0  0
 15 35  1  0  0  0  0
 15 36  1  0  0  0  0
 16 37  1  0  0  0  0
 16 38  1  0  0  0  0
 17 39  1  0  0  0  0
 20 40  1  0  0  0  0
 21 41  1  0  0  0  0
 21 42  1  0  0  0  0
M  END
$$$$
