C9H10N4O6
APtclcactv06211806333D 0   0.00000     0.00000
 
 29 29  0  0  0  0  0  0  0  0999 V2000
    1.9513   -1.6525    0.0660 C   0  0  0  0  0  0  0  0  0  0  0  0
    0.6013   -1.3637    0.0814 C   0  0  0  0  0  0  0  0  0  0  0  0
    0.1750   -0.0411    0.0557 C   0  0  0  0  0  0  0  0  0  0  0  0
    1.1099    0.9860    0.0145 C   0  0  0  0  0  0  0  0  0  0  0  0
    2.4587    0.6895   -0.0007 C   0  0  0  0  0  0  0  0  0  0  0  0
    2.8791   -0.6275    0.0250 C   0  0  0  0  0  0  0  0  0  0  0  0
    4.3257   -0.9413    0.0080 N   0  3  0  0  0  0  0  0  0  0  0  0
    5.1439   -0.0398   -0.0285 O   0  0  0  0  0  0  0  0  0  0  0  0
    4.6976   -2.1009    0.0306 O   0  5  0  0  0  0  0  0  0  0  0  0
    0.6608    2.3962   -0.0134 N   0  3  0  0  0  0  0  0  0  0  0  0
    1.2604    3.2130   -0.6893 O   0  0  0  0  0  0  0  0  0  0  0  0
   -0.3084    2.7398    0.6394 O   0  5  0  0  0  0  0  0  0  0  0  0
   -1.1892    0.2548    0.0708 N   0  0  0  0  0  0  0  0  0  0  0  0
   -2.1310   -0.7824    0.0723 N   0  0  0  0  0  0  0  0  0  0  0  0
   -3.3796   -0.5135   -0.0141 C   0  0  0  0  0  0  0  0  0  0  0  0
   -3.8460    0.9192    0.0206 C   0  0  0  0  0  0  0  0  0  0  0  0
   -5.2745    0.9550    0.0303 O   0  0  0  0  0  0  0  0  0  0  0  0
   -4.3831   -1.6294   -0.1506 C   0  0  0  0  0  0  0  0  0  0  0  0
   -3.7010   -2.8851   -0.1591 O   0  0  0  0  0  0  0  0  0  0  0  0
    2.2833   -2.6799    0.0904 H   0  0  0  0  0  0  0  0  0  0  0  0
   -0.1227   -2.1645    0.1131 H   0  0  0  0  0  0  0  0  0  0  0  0
    3.1859    1.4873   -0.0327 H   0  0  0  0  0  0  0  0  0  0  0  0
   -1.4851    1.1785    0.0802 H   0  0  0  0  0  0  0  0  0  0  0  0
   -3.4642    1.4038    0.9192 H   0  0  0  0  0  0  0  0  0  0  0  0
   -3.4754    1.4433   -0.8603 H   0  0  0  0  0  0  0  0  0  0  0  0
   -5.6454    1.8478    0.0525 H   0  0  0  0  0  0  0  0  0  0  0  0
   -5.0772   -1.5987    0.6894 H   0  0  0  0  0  0  0  0  0  0  0  0
   -4.9353   -1.5096   -1.0827 H   0  0  0  0  0  0  0  0  0  0  0  0
   -4.2862   -3.6501   -0.2444 H   0  0  0  0  0  0  0  0  0  0  0  0
  1  2  2  0  0  0  0
  2  3  1  0  0  0  0
  3  4  2  0  0  0  0
  4  5  1  0  0  0  0
  5  6  2  0  0  0  0
  1  6  1  0  0  0  0
  6  7  1  0  0  0  0
  7  8  2  0  0  0  0
  7  9  1  0  0  0  0
  4 10  1  0  0  0  0
 10 11  2  0  0  0  0
 10 12  1  0  0  0  0
  3 13  1  0  0  0  0
 13 14  1  0  0  0  0
 14 15  2  0  0  0  0
 15 16  1  0  0  0  0
 16 17  1  0  0  0  0
 15 18  1  0  0  0  0
 18 19  1  0  0  0  0
  1 20  1  0  0  0  0
  2 21  1  0  0  0  0
  5 22  1  0  0  0  0
 13 23  1  0  0  0  0
 16 24  1  0  0  0  0
 16 25  1  0  0  0  0
 17 26  1  0  0  0  0
 18 27  1  0  0  0  0
 18 28  1  0  0  0  0
 19 29  1  0  0  0  0
M  CHG  4   7   1   9  -1  10   1  12  -1
M  END
$$$$
