C15H20O3
APtclcactv06211806333D 0   0.00000     0.00000
 
 38 40  0  0  0  0  0  0  0  0999 V2000
   -1.3931    0.5444    1.5752 C   0  0  0  0  0  0  0  0  0  0  0  0
   -1.3660    0.6821    0.0517 C   0  0  0  0  0  0  0  0  0  0  0  0
   -0.7573    2.0322   -0.2986 C   0  0  0  0  0  0  0  0  0  0  0  0
    0.7116    2.1123    0.1589 C   0  0  0  0  0  0  0  0  0  0  0  0
    1.4537    0.9694   -0.5024 C   0  0  0  0  0  0  0  0  0  0  0  0
    0.8523   -0.3542    0.0606 C   0  0  0  0  0  0  0  0  0  0  0  0
   -0.5340   -0.4775   -0.5263 C   0  0  0  0  0  0  0  0  0  0  0  0
   -1.1984   -1.7711   -0.1202 C   0  0  0  0  0  0  0  0  0  0  0  0
   -0.5244   -2.7181    0.4839 C   0  0  0  0  0  0  0  0  0  0  0  0
   -2.6707   -1.9364   -0.4344 C   0  0  0  0  0  0  0  0  0  0  0  0
   -3.4320   -0.7161    0.0909 C   0  0  0  0  0  0  0  0  0  0  0  0
   -2.7951    0.5616   -0.4680 C   0  0  0  0  0  0  0  0  0  0  0  0
   -3.5432    1.6977   -0.0303 O   0  0  0  0  0  0  0  0  0  0  0  0
    1.8616   -1.3051   -0.3474 O   0  0  0  0  0  0  0  0  0  0  0  0
    3.0588   -0.7038   -0.0685 C   0  0  0  0  0  0  0  0  0  0  0  0
    4.0947   -1.2872    0.1841 O   0  0  0  0  0  0  0  0  0  0  0  0
    2.8968    0.7745   -0.1221 C   0  0  0  0  0  0  0  0  0  0  0  0
    3.8157    1.7084    0.1117 C   0  0  0  0  0  0  0  0  0  0  0  0
   -1.9952    1.3466    2.0019 H   0  0  0  0  0  0  0  0  0  0  0  0
   -1.8267   -0.4184    1.8454 H   0  0  0  0  0  0  0  0  0  0  0  0
   -0.3766    0.6070    1.9638 H   0  0  0  0  0  0  0  0  0  0  0  0
   -0.8043    2.1767   -1.3780 H   0  0  0  0  0  0  0  0  0  0  0  0
   -1.3283    2.8203    0.1922 H   0  0  0  0  0  0  0  0  0  0  0  0
    1.1447    3.0636   -0.1502 H   0  0  0  0  0  0  0  0  0  0  0  0
    0.7681    2.0130    1.2429 H   0  0  0  0  0  0  0  0  0  0  0  0
    1.3344    1.0145   -1.5849 H   0  0  0  0  0  0  0  0  0  0  0  0
    0.7924   -0.3035    1.1477 H   0  0  0  0  0  0  0  0  0  0  0  0
   -0.4871   -0.3977   -1.6123 H   0  0  0  0  0  0  0  0  0  0  0  0
    0.5249   -2.5807    0.6995 H   0  0  0  0  0  0  0  0  0  0  0  0
   -1.0180   -3.6362    0.7664 H   0  0  0  0  0  0  0  0  0  0  0  0
   -2.8069   -2.0149   -1.5130 H   0  0  0  0  0  0  0  0  0  0  0  0
   -3.0479   -2.8376    0.0490 H   0  0  0  0  0  0  0  0  0  0  0  0
   -4.4722   -0.7725   -0.2299 H   0  0  0  0  0  0  0  0  0  0  0  0
   -3.3903   -0.7045    1.1801 H   0  0  0  0  0  0  0  0  0  0  0  0
   -2.7974    0.5223   -1.5573 H   0  0  0  0  0  0  0  0  0  0  0  0
   -4.4679    1.6926   -0.3133 H   0  0  0  0  0  0  0  0  0  0  0  0
    4.8221    1.4210    0.3781 H   0  0  0  0  0  0  0  0  0  0  0  0
    3.5549    2.7536    0.0351 H   0  0  0  0  0  0  0  0  0  0  0  0
  1  2  1  0  0  0  0
  2  3  1  0  0  0  0
  3  4  1  0  0  0  0
  4  5  1  0  0  0  0
  5  6  1  0  0  0  0
  6  7  1  0  0  0  0
  2  7  1  0  0  0  0
  7  8  1  0  0  0  0
  8  9  2  0  0  0  0
  8 10  1  0  0  0  0
 10 11  1  0  0  0  0
 11 12  1  0  0  0  0
  2 12  1  0  0  0  0
 12 13  1  0  0  0  0
  6 14  1  0  0  0  0
 14 15  1  0  0  0  0
 15 16  2  0  0  0  0
 15 17  1  0  0  0  0
  5 17  1  0  0  0  0
 17 18  2  0  0  0  0
  1 19  1  0  0  0  0
  1 20  1  0  0  0  0
  1 21  1  0  0  0  0
  3 22  1  0  0  0  0
  3 23  1  0  0  0  0
  4 24  1  0  0  0  0
  4 25  1  0  0  0  0
  5 26  1  0  0  0  0
  6 27  1  0  0  0  0
  7 28  1  0  0  0  0
  9 29  1  0  0  0  0
  9 30  1  0  0  0  0
 10 31  1  0  0  0  0
 10 32  1  0  0  0  0
 11 33  1  0  0  0  0
 11 34  1  0  0  0  0
 12 35  1  0  0  0  0
 13 36  1  0  0  0  0
 18 37  1  0  0  0  0
 18 38  1  0  0  0  0
M  END
$$$$
