C59H74O12
APtclcactv06281817253D 0   0.00000     0.00000
 
145149  0  0  0  0  0  0  0  0999 V2000
  -14.6946   -1.5230   -2.0018 C   0  0  0  0  0  0  0  0  0  0  0  0
  -15.6612   -2.3509   -1.1946 C   0  0  0  0  0  0  0  0  0  0  0  0
  -15.4440   -3.7110   -1.0329 C   0  0  0  0  0  0  0  0  0  0  0  0
  -16.3360   -4.4688   -0.2910 C   0  0  0  0  0  0  0  0  0  0  0  0
  -17.4429   -3.8736    0.2899 C   0  0  0  0  0  0  0  0  0  0  0  0
  -18.3937   -4.7326    1.0847 C   0  0  0  0  0  0  0  0  0  0  0  0
  -19.2648   -3.8466    1.9786 C   0  0  0  0  0  0  0  0  0  0  0  0
  -19.8224   -2.7009    1.1244 C   0  0  0  0  0  0  0  0  0  0  0  0
  -18.7295   -1.8910    0.6889 O   0  0  0  0  0  0  0  0  0  0  0  0
  -17.6586   -2.5158    0.1312 C   0  0  0  0  0  0  0  0  0  0  0  0
  -16.7606   -1.7557   -0.6105 C   0  0  0  0  0  0  0  0  0  0  0  0
  -16.9927   -0.2766   -0.7824 C   0  0  0  0  0  0  0  0  0  0  0  0
  -20.5557   -3.2733   -0.0902 C   0  0  0  0  0  0  0  0  0  0  0  0
  -20.7877   -1.8577    1.9599 C   0  0  0  0  0  0  0  0  0  0  0  0
  -21.4256   -0.8095    1.0851 C   0  0  0  0  0  0  0  0  0  0  0  0
  -22.7552   -0.7209    1.0112 C   0  0  0  0  0  0  0  0  0  0  0  0
  -23.3742    0.2965    0.1621 C   0  0  0  0  0  0  0  0  0  0  0  0
  -22.6790    1.0598   -0.4751 O   0  0  0  0  0  0  0  0  0  0  0  0
  -24.8756    0.3966    0.0787 C   0  0  0  0  0  0  0  0  0  0  0  0
  -25.2532    1.5166   -0.8561 C   0  0  0  0  0  0  0  0  0  0  0  0
  -24.3920    2.1665   -1.3987 O   0  0  0  0  0  0  0  0  0  0  0  0
  -26.7055    1.8256   -1.1139 C   0  0  0  0  0  0  0  0  0  0  0  0
  -16.1004   -5.9470   -0.1163 C   0  0  0  0  0  0  0  0  0  0  0  0
  -14.3582   -4.2999   -1.6015 O   0  0  0  0  0  0  0  0  0  0  0  0
    5.6171    5.6533    1.8242 C   0  0  0  0  0  0  0  0  0  0  0  0
    4.3285    5.6492    1.0428 C   0  0  0  0  0  0  0  0  0  0  0  0
    4.2952    5.1005   -0.2349 C   0  0  0  0  0  0  0  0  0  0  0  0
    3.1098    5.0934   -0.9495 C   0  0  0  0  0  0  0  0  0  0  0  0
    1.9652    5.6372   -0.3921 C   0  0  0  0  0  0  0  0  0  0  0  0
    2.0003    6.1860    0.8800 C   0  0  0  0  0  0  0  0  0  0  0  0
    3.1855    6.1846    1.6003 C   0  0  0  0  0  0  0  0  0  0  0  0
    3.2279    6.7782    2.9848 C   0  0  0  0  0  0  0  0  0  0  0  0
    0.8736    6.7197    1.4231 O   0  0  0  0  0  0  0  0  0  0  0  0
    0.0894    5.8938    2.1337 C   0  0  0  0  0  0  0  0  0  0  0  0
    0.3980    4.7331    2.2667 O   0  0  0  0  0  0  0  0  0  0  0  0
   -1.1759    6.4141    2.7656 C   0  0  0  0  0  0  0  0  0  0  0  0
    0.6757    5.6328   -1.1721 C   0  0  0  0  0  0  0  0  0  0  0  0
    3.0297    4.4981   -2.3325 C   0  0  0  0  0  0  0  0  0  0  0  0
    4.4369    4.3702   -2.9209 C   0  0  0  0  0  0  0  0  0  0  0  0
    5.3398    3.7099   -1.8711 C   0  0  0  0  0  0  0  0  0  0  0  0
    5.4441    4.5880   -0.7497 O   0  0  0  0  0  0  0  0  0  0  0  0
    4.7274    2.3795   -1.4285 C   0  0  0  0  0  0  0  0  0  0  0  0
    6.7283    3.4663   -2.4657 C   0  0  0  0  0  0  0  0  0  0  0  0
    7.5732    2.7080   -1.4745 C   0  0  0  0  0  0  0  0  0  0  0  0
    8.1525    1.5601   -1.8320 C   0  0  0  0  0  0  0  0  0  0  0  0
    8.9725    0.8242   -0.8700 C   0  0  0  0  0  0  0  0  0  0  0  0
    9.1260    1.2573    0.2529 O   0  0  0  0  0  0  0  0  0  0  0  0
    9.6267   -0.4720   -1.2736 C   0  0  0  0  0  0  0  0  0  0  0  0
   10.4084   -1.0240   -0.1095 C   0  0  0  0  0  0  0  0  0  0  0  0
   10.4320   -0.4237    0.9446 O   0  0  0  0  0  0  0  0  0  0  0  0
   11.1387   -2.2834   -0.2503 C   0  0  0  0  0  0  0  0  0  0  0  0
   11.8310   -2.7722    0.7807 C   0  0  0  0  0  0  0  0  0  0  0  0
   12.5834   -4.0699    0.6356 C   0  0  0  0  0  0  0  0  0  0  0  0
   14.0508   -3.8532    1.0106 C   0  0  0  0  0  0  0  0  0  0  0  0
   14.8215   -5.1715    0.8645 C   0  0  0  0  0  0  0  0  0  0  0  0
   16.2548   -4.9470    1.3527 C   0  0  0  0  0  0  0  0  0  0  0  0
   16.8130   -3.6926    0.7296 C   0  0  0  0  0  0  0  0  0  0  0  0
   18.1843   -3.5026    0.7308 C   0  0  0  0  0  0  0  0  0  0  0  0
   18.7318   -2.3596    0.1701 C   0  0  0  0  0  0  0  0  0  0  0  0
   17.9026   -1.4019   -0.3945 C   0  0  0  0  0  0  0  0  0  0  0  0
   16.5359   -1.5910   -0.3976 C   0  0  0  0  0  0  0  0  0  0  0  0
   15.9852   -2.7384    0.1637 C   0  0  0  0  0  0  0  0  0  0  0  0
   14.6348   -2.8905    0.1319 O   0  0  0  0  0  0  0  0  0  0  0  0
   15.6359   -0.5496   -1.0110 C   0  0  0  0  0  0  0  0  0  0  0  0
   18.4934   -0.1563   -1.0032 C   0  0  0  0  0  0  0  0  0  0  0  0
   20.0794   -2.1772    0.1740 O   0  0  0  0  0  0  0  0  0  0  0  0
   20.7616   -2.6510   -0.8806 C   0  0  0  0  0  0  0  0  0  0  0  0
   20.1758   -3.2100   -1.7774 O   0  0  0  0  0  0  0  0  0  0  0  0
   22.2581   -2.4858   -0.9459 C   0  0  0  0  0  0  0  0  0  0  0  0
   19.0853   -4.5429    1.3447 C   0  0  0  0  0  0  0  0  0  0  0  0
   14.1458   -3.3580    2.4551 C   0  0  0  0  0  0  0  0  0  0  0  0
  -15.0092   -1.5118   -3.0453 H   0  0  0  0  0  0  0  0  0  0  0  0
  -14.6790   -0.5037   -1.6160 H   0  0  0  0  0  0  0  0  0  0  0  0
  -13.6965   -1.9548   -1.9278 H   0  0  0  0  0  0  0  0  0  0  0  0
  -19.0299   -5.2963    0.4024 H   0  0  0  0  0  0  0  0  0  0  0  0
  -17.8246   -5.4254    1.7047 H   0  0  0  0  0  0  0  0  0  0  0  0
  -20.0870   -4.4335    2.3881 H   0  0  0  0  0  0  0  0  0  0  0  0
  -18.6627   -3.4398    2.7912 H   0  0  0  0  0  0  0  0  0  0  0  0
  -16.5023    0.2646    0.0268 H   0  0  0  0  0  0  0  0  0  0  0  0
  -16.5806    0.0472   -1.7381 H   0  0  0  0  0  0  0  0  0  0  0  0
  -18.0630   -0.0718   -0.7601 H   0  0  0  0  0  0  0  0  0  0  0  0
  -21.3770   -3.9061    0.2462 H   0  0  0  0  0  0  0  0  0  0  0  0
  -20.9503   -2.4565   -0.6946 H   0  0  0  0  0  0  0  0  0  0  0  0
  -19.8622   -3.8651   -0.6877 H   0  0  0  0  0  0  0  0  0  0  0  0
  -21.5615   -2.5005    2.3799 H   0  0  0  0  0  0  0  0  0  0  0  0
  -20.2404   -1.3725    2.7681 H   0  0  0  0  0  0  0  0  0  0  0  0
  -20.8067   -0.1301    0.5178 H   0  0  0  0  0  0  0  0  0  0  0  0
  -23.3740   -1.4003    1.5785 H   0  0  0  0  0  0  0  0  0  0  0  0
  -25.2821   -0.5426   -0.2966 H   0  0  0  0  0  0  0  0  0  0  0  0
  -25.2819    0.5980    1.0699 H   0  0  0  0  0  0  0  0  0  0  0  0
  -27.3300    1.1399   -0.5414 H   0  0  0  0  0  0  0  0  0  0  0  0
  -26.9183    2.8506   -0.8101 H   0  0  0  0  0  0  0  0  0  0  0  0
  -26.9185    1.7100   -2.1766 H   0  0  0  0  0  0  0  0  0  0  0  0
  -15.4966   -6.1157    0.7753 H   0  0  0  0  0  0  0  0  0  0  0  0
  -17.0576   -6.4572   -0.0087 H   0  0  0  0  0  0  0  0  0  0  0  0
  -15.5768   -6.3371   -0.9890 H   0  0  0  0  0  0  0  0  0  0  0  0
  -13.5739   -4.3083   -1.0358 H   0  0  0  0  0  0  0  0  0  0  0  0
    6.1671    6.5703    1.6130 H   0  0  0  0  0  0  0  0  0  0  0  0
    5.3958    5.5997    2.8902 H   0  0  0  0  0  0  0  0  0  0  0  0
    6.2203    4.7929    1.5346 H   0  0  0  0  0  0  0  0  0  0  0  0
    2.9942    6.0065    3.7183 H   0  0  0  0  0  0  0  0  0  0  0  0
    4.2243    7.1748    3.1797 H   0  0  0  0  0  0  0  0  0  0  0  0
    2.4960    7.5826    3.0578 H   0  0  0  0  0  0  0  0  0  0  0  0
   -2.0040    6.3029    2.0656 H   0  0  0  0  0  0  0  0  0  0  0  0
   -1.3884    5.8483    3.6727 H   0  0  0  0  0  0  0  0  0  0  0  0
   -1.0505    7.4676    3.0156 H   0  0  0  0  0  0  0  0  0  0  0  0
    0.1253    4.7165   -0.9591 H   0  0  0  0  0  0  0  0  0  0  0  0
    0.0733    6.4940   -0.8831 H   0  0  0  0  0  0  0  0  0  0  0  0
    0.8959    5.6849   -2.2384 H   0  0  0  0  0  0  0  0  0  0  0  0
    2.5688    3.5119   -2.2767 H   0  0  0  0  0  0  0  0  0  0  0  0
    2.4269    5.1439   -2.9710 H   0  0  0  0  0  0  0  0  0  0  0  0
    4.4051    3.7529   -3.8187 H   0  0  0  0  0  0  0  0  0  0  0  0
    4.8232    5.3592   -3.1679 H   0  0  0  0  0  0  0  0  0  0  0  0
    4.6320    1.7188   -2.2902 H   0  0  0  0  0  0  0  0  0  0  0  0
    5.3715    1.9133   -0.6828 H   0  0  0  0  0  0  0  0  0  0  0  0
    3.7426    2.5585   -0.9970 H   0  0  0  0  0  0  0  0  0  0  0  0
    6.6340    2.8846   -3.3827 H   0  0  0  0  0  0  0  0  0  0  0  0
    7.2008    4.4228   -2.6891 H   0  0  0  0  0  0  0  0  0  0  0  0
    7.7099    3.0936   -0.4750 H   0  0  0  0  0  0  0  0  0  0  0  0
    8.0159    1.1745   -2.8315 H   0  0  0  0  0  0  0  0  0  0  0  0
    8.8608   -1.1889   -1.5695 H   0  0  0  0  0  0  0  0  0  0  0  0
   10.3004   -0.2935   -2.1117 H   0  0  0  0  0  0  0  0  0  0  0  0
   11.1177   -2.8178   -1.1886 H   0  0  0  0  0  0  0  0  0  0  0  0
   11.8520   -2.2378    1.7190 H   0  0  0  0  0  0  0  0  0  0  0  0
   12.1465   -4.8190    1.2958 H   0  0  0  0  0  0  0  0  0  0  0  0
   12.5191   -4.4136   -0.3968 H   0  0  0  0  0  0  0  0  0  0  0  0
   14.3449   -5.9445    1.4675 H   0  0  0  0  0  0  0  0  0  0  0  0
   14.8333   -5.4762   -0.1819 H   0  0  0  0  0  0  0  0  0  0  0  0
   16.2565   -4.8445    2.4379 H   0  0  0  0  0  0  0  0  0  0  0  0
   16.8724   -5.7989    1.0685 H   0  0  0  0  0  0  0  0  0  0  0  0
   15.4868   -0.7748   -2.0671 H   0  0  0  0  0  0  0  0  0  0  0  0
   14.6735   -0.5541   -0.4993 H   0  0  0  0  0  0  0  0  0  0  0  0
   16.0962    0.4333   -0.9105 H   0  0  0  0  0  0  0  0  0  0  0  0
   18.7042   -0.3322   -2.0581 H   0  0  0  0  0  0  0  0  0  0  0  0
   17.7851    0.6665   -0.9065 H   0  0  0  0  0  0  0  0  0  0  0  0
   19.4183    0.0977   -0.4853 H   0  0  0  0  0  0  0  0  0  0  0  0
   22.7393   -3.3455   -0.4796 H   0  0  0  0  0  0  0  0  0  0  0  0
   22.5707   -2.4152   -1.9878 H   0  0  0  0  0  0  0  0  0  0  0  0
   22.5467   -1.5771   -0.4177 H   0  0  0  0  0  0  0  0  0  0  0  0
   19.3695   -5.2713    0.5852 H   0  0  0  0  0  0  0  0  0  0  0  0
   19.9801   -4.0614    1.7392 H   0  0  0  0  0  0  0  0  0  0  0  0
   18.5581   -5.0485    2.1537 H   0  0  0  0  0  0  0  0  0  0  0  0
   13.7078   -4.0997    3.1230 H   0  0  0  0  0  0  0  0  0  0  0  0
   15.1923   -3.2048    2.7186 H   0  0  0  0  0  0  0  0  0  0  0  0
   13.6050   -2.4167    2.5528 H   0  0  0  0  0  0  0  0  0  0  0  0
  1  2  1  0  0  0  0
  2  3  2  0  0  0  0
  3  4  1  0  0  0  0
  4  5  2  0  0  0  0
  5  6  1  0  0  0  0
  6  7  1  0  0  0  0
  7  8  1  0  0  0  0
  8  9  1  0  0  0  0
  9 10  1  0  0  0  0
  5 10  1  0  0  0  0
 10 11  2  0  0  0  0
  2 11  1  0  0  0  0
 11 12  1  0  0  0  0
  8 13  1  0  0  0  0
  8 14  1  0  0  0  0
 14 15  1  0  0  0  0
 15 16  2  0  0  0  0
 16 17  1  0  0  0  0
 17 18  2  0  0  0  0
 17 19  1  0  0  0  0
 19 20  1  0  0  0  0
 20 21  2  0  0  0  0
 20 22  1  0  0  0  0
  4 23  1  0  0  0  0
  3 24  1  0  0  0  0
 25 26  1  0  0  0  0
 26 27  2  0  0  0  0
 27 28  1  0  0  0  0
 28 29  2  0  0  0  0
 29 30  1  0  0  0  0
 30 31  2  0  0  0  0
 26 31  1  0  0  0  0
 31 32  1  0  0  0  0
 30 33  1  0  0  0  0
 33 34  1  0  0  0  0
 34 35  2  0  0  0  0
 34 36  1  0  0  0  0
 29 37  1  0  0  0  0
 28 38  1  0  0  0  0
 38 39  1  0  0  0  0
 39 40  1  0  0  0  0
 40 41  1  0  0  0  0
 27 41  1  0  0  0  0
 40 42  1  0  0  0  0
 40 43  1  0  0  0  0
 43 44  1  0  0  0  0
 44 45  2  0  0  0  0
 45 46  1  0  0  0  0
 46 47  2  0  0  0  0
 46 48  1  0  0  0  0
 48 49  1  0  0  0  0
 49 50  2  0  0  0  0
 49 51  1  0  0  0  0
 51 52  2  0  0  0  0
 52 53  1  0  0  0  0
 53 54  1  0  0  0  0
 54 55  1  0  0  0  0
 55 56  1  0  0  0  0
 56 57  1  0  0  0  0
 57 58  2  0  0  0  0
 58 59  1  0  0  0  0
 59 60  2  0  0  0  0
 60 61  1  0  0  0  0
 61 62  2  0  0  0  0
 57 62  1  0  0  0  0
 62 63  1  0  0  0  0
 54 63  1  0  0  0  0
 61 64  1  0  0  0  0
 60 65  1  0  0  0  0
 59 66  1  0  0  0  0
 66 67  1  0  0  0  0
 67 68  2  0  0  0  0
 67 69  1  0  0  0  0
 58 70  1  0  0  0  0
 54 71  1  0  0  0  0
  1 72  1  0  0  0  0
  1 73  1  0  0  0  0
  1 74  1  0  0  0  0
  6 75  1  0  0  0  0
  6 76  1  0  0  0  0
  7 77  1  0  0  0  0
  7 78  1  0  0  0  0
 12 79  1  0  0  0  0
 12 80  1  0  0  0  0
 12 81  1  0  0  0  0
 13 82  1  0  0  0  0
 13 83  1  0  0  0  0
 13 84  1  0  0  0  0
 14 85  1  0  0  0  0
 14 86  1  0  0  0  0
 15 87  1  0  0  0  0
 16 88  1  0  0  0  0
 19 89  1  0  0  0  0
 19 90  1  0  0  0  0
 22 91  1  0  0  0  0
 22 92  1  0  0  0  0
 22 93  1  0  0  0  0
 23 94  1  0  0  0  0
 23 95  1  0  0  0  0
 23 96  1  0  0  0  0
 24 97  1  0  0  0  0
 25 98  1  0  0  0  0
 25 99  1  0  0  0  0
 25100  1  0  0  0  0
 32101  1  0  0  0  0
 32102  1  0  0  0  0
 32103  1  0  0  0  0
 36104  1  0  0  0  0
 36105  1  0  0  0  0
 36106  1  0  0  0  0
 37107  1  0  0  0  0
 37108  1  0  0  0  0
 37109  1  0  0  0  0
 38110  1  0  0  0  0
 38111  1  0  0  0  0
 39112  1  0  0  0  0
 39113  1  0  0  0  0
 42114  1  0  0  0  0
 42115  1  0  0  0  0
 42116  1  0  0  0  0
 43117  1  0  0  0  0
 43118  1  0  0  0  0
 44119  1  0  0  0  0
 45120  1  0  0  0  0
 48121  1  0  0  0  0
 48122  1  0  0  0  0
 51123  1  0  0  0  0
 52124  1  0  0  0  0
 53125  1  0  0  0  0
 53126  1  0  0  0  0
 55127  1  0  0  0  0
 55128  1  0  0  0  0
 56129  1  0  0  0  0
 56130  1  0  0  0  0
 64131  1  0  0  0  0
 64132  1  0  0  0  0
 64133  1  0  0  0  0
 65134  1  0  0  0  0
 65135  1  0  0  0  0
 65136  1  0  0  0  0
 69137  1  0  0  0  0
 69138  1  0  0  0  0
 69139  1  0  0  0  0
 70140  1  0  0  0  0
 70141  1  0  0  0  0
 70142  1  0  0  0  0
 71143  1  0  0  0  0
 71144  1  0  0  0  0
 71145  1  0  0  0  0
M  END
$$$$
