C20H22O2
APtclcactv06281817253D 0   0.00000     0.00000
 
 44 45  0  0  0  0  0  0  0  0999 V2000
   -5.9517   -0.6188    0.1616 C   0  0  0  0  0  0  0  0  0  0  0  0
   -5.2989    0.2717   -0.8640 C   0  0  0  0  0  0  0  0  0  0  0  0
   -4.2317    0.9624   -0.5474 C   0  0  0  0  0  0  0  0  0  0  0  0
   -3.5835    0.7725    0.7998 C   0  0  0  0  0  0  0  0  0  0  0  0
   -2.1221    0.4549    0.6138 C   0  0  0  0  0  0  0  0  0  0  0  0
   -1.1915    1.4829    0.5688 C   0  0  0  0  0  0  0  0  0  0  0  0
    0.1527    1.1962    0.3985 C   0  0  0  0  0  0  0  0  0  0  0  0
    0.5707   -0.1303    0.2720 C   0  0  0  0  0  0  0  0  0  0  0  0
   -0.3702   -1.1618    0.3180 C   0  0  0  0  0  0  0  0  0  0  0  0
   -1.7110   -0.8652    0.4939 C   0  0  0  0  0  0  0  0  0  0  0  0
   -2.6274   -1.8679    0.5388 O   0  0  0  0  0  0  0  0  0  0  0  0
   -2.1363   -3.2024    0.3978 C   0  0  0  0  0  0  0  0  0  0  0  0
    2.0002   -0.4409    0.0901 C   0  0  0  0  0  0  0  0  0  0  0  0
    2.9024    0.5520    0.0458 C   0  0  0  0  0  0  0  0  0  0  0  0
    4.3317    0.2414   -0.1362 C   0  0  0  0  0  0  0  0  0  0  0  0
    5.2738    1.2724   -0.1828 C   0  0  0  0  0  0  0  0  0  0  0  0
    6.6096    0.9741   -0.3528 C   0  0  0  0  0  0  0  0  0  0  0  0
    7.0176   -0.3423   -0.4775 C   0  0  0  0  0  0  0  0  0  0  0  0
    6.0904   -1.3685   -0.4327 C   0  0  0  0  0  0  0  0  0  0  0  0
    4.7519   -1.0858   -0.2570 C   0  0  0  0  0  0  0  0  0  0  0  0
   -1.5996    2.7734    0.6915 O   0  0  0  0  0  0  0  0  0  0  0  0
   -5.8736    0.3677   -2.2538 C   0  0  0  0  0  0  0  0  0  0  0  0
   -6.1882   -0.0355    1.0514 H   0  0  0  0  0  0  0  0  0  0  0  0
   -6.8688   -1.0381   -0.2524 H   0  0  0  0  0  0  0  0  0  0  0  0
   -5.2704   -1.4270    0.4274 H   0  0  0  0  0  0  0  0  0  0  0  0
   -3.8164    1.6679   -1.2518 H   0  0  0  0  0  0  0  0  0  0  0  0
   -3.6851    1.6870    1.3840 H   0  0  0  0  0  0  0  0  0  0  0  0
   -4.0701   -0.0498    1.3244 H   0  0  0  0  0  0  0  0  0  0  0  0
    0.8763    1.9971    0.3632 H   0  0  0  0  0  0  0  0  0  0  0  0
   -0.0517   -2.1892    0.2207 H   0  0  0  0  0  0  0  0  0  0  0  0
   -2.9690   -3.9036    0.4518 H   0  0  0  0  0  0  0  0  0  0  0  0
   -1.6361   -3.3057   -0.5651 H   0  0  0  0  0  0  0  0  0  0  0  0
   -1.4291   -3.4159    1.1993 H   0  0  0  0  0  0  0  0  0  0  0  0
    2.3216   -1.4674   -0.0075 H   0  0  0  0  0  0  0  0  0  0  0  0
    2.5810    1.5784    0.1434 H   0  0  0  0  0  0  0  0  0  0  0  0
    4.9567    2.3002   -0.0863 H   0  0  0  0  0  0  0  0  0  0  0  0
    7.3389    1.7699   -0.3890 H   0  0  0  0  0  0  0  0  0  0  0  0
    8.0650   -0.5699   -0.6107 H   0  0  0  0  0  0  0  0  0  0  0  0
    6.4160   -2.3934   -0.5314 H   0  0  0  0  0  0  0  0  0  0  0  0
    4.0293   -1.8877   -0.2223 H   0  0  0  0  0  0  0  0  0  0  0  0
   -1.6181    3.0950    1.6032 H   0  0  0  0  0  0  0  0  0  0  0  0
   -6.6074    1.1730   -2.2886 H   0  0  0  0  0  0  0  0  0  0  0  0
   -5.0734    0.5744   -2.9644 H   0  0  0  0  0  0  0  0  0  0  0  0
   -6.3558   -0.5747   -2.5135 H   0  0  0  0  0  0  0  0  0  0  0  0
  1  2  1  0  0  0  0
  2  3  2  0  0  0  0
  3  4  1  0  0  0  0
  4  5  1  0  0  0  0
  5  6  2  0  0  0  0
  6  7  1  0  0  0  0
  7  8  2  0  0  0  0
  8  9  1  0  0  0  0
  9 10  2  0  0  0  0
  5 10  1  0  0  0  0
 10 11  1  0  0  0  0
 11 12  1  0  0  0  0
  8 13  1  0  0  0  0
 13 14  2  0  0  0  0
 14 15  1  0  0  0  0
 15 16  2  0  0  0  0
 16 17  1  0  0  0  0
 17 18  2  0  0  0  0
 18 19  1  0  0  0  0
 19 20  2  0  0  0  0
 15 20  1  0  0  0  0
  6 21  1  0  0  0  0
  2 22  1  0  0  0  0
  1 23  1  0  0  0  0
  1 24  1  0  0  0  0
  1 25  1  0  0  0  0
  3 26  1  0  0  0  0
  4 27  1  0  0  0  0
  4 28  1  0  0  0  0
  7 29  1  0  0  0  0
  9 30  1  0  0  0  0
 12 31  1  0  0  0  0
 12 32  1  0  0  0  0
 12 33  1  0  0  0  0
 13 34  1  0  0  0  0
 14 35  1  0  0  0  0
 16 36  1  0  0  0  0
 17 37  1  0  0  0  0
 18 38  1  0  0  0  0
 19 39  1  0  0  0  0
 20 40  1  0  0  0  0
 21 41  1  0  0  0  0
 22 42  1  0  0  0  0
 22 43  1  0  0  0  0
 22 44  1  0  0  0  0
M  END
$$$$
