C20H28O3
APtclcactv06281817253D 0   0.00000     0.00000
 
 51 53  0  0  0  0  0  0  0  0999 V2000
   -4.3108    2.1109    1.3488 C   0  0  0  0  0  0  0  0  0  0  0  0
   -4.4567    0.9377    0.3775 C   0  0  0  0  0  0  0  0  0  0  0  0
   -5.0891    1.4301   -0.9257 C   0  0  0  0  0  0  0  0  0  0  0  0
   -3.0980    0.3539    0.0873 C   0  0  0  0  0  0  0  0  0  0  0  0
   -2.8393   -0.9708    0.3953 C   0  0  0  0  0  0  0  0  0  0  0  0
   -1.5847   -1.5183    0.1346 C   0  0  0  0  0  0  0  0  0  0  0  0
   -0.5942   -0.7101   -0.4420 C   0  0  0  0  0  0  0  0  0  0  0  0
   -0.8759    0.6167   -0.7528 C   0  0  0  0  0  0  0  0  0  0  0  0
   -2.1172    1.1467   -0.4920 C   0  0  0  0  0  0  0  0  0  0  0  0
    0.1991    1.4698   -1.4013 C   0  0  0  0  0  0  0  0  0  0  0  0
    1.3077    1.7060   -0.3789 C   0  0  0  0  0  0  0  0  0  0  0  0
    2.3650    0.6153   -0.4218 C   0  0  0  0  0  0  0  0  0  0  0  0
    1.9096   -0.7272    0.1098 C   0  0  0  0  0  0  0  0  0  0  0  0
    0.7474   -1.2524   -0.7093 C   0  0  0  0  0  0  0  0  0  0  0  0
    0.9186   -2.0977   -1.5622 O   0  0  0  0  0  0  0  0  0  0  0  0
    3.0443   -1.7536    0.0216 C   0  0  0  0  0  0  0  0  0  0  0  0
    4.2590   -1.2570    0.8053 C   0  0  0  0  0  0  0  0  0  0  0  0
    4.7282    0.0731    0.2096 C   0  0  0  0  0  0  0  0  0  0  0  0
    3.6038    1.1006    0.3396 C   0  0  0  0  0  0  0  0  0  0  0  0
    4.0670    2.4376   -0.2424 C   0  0  0  0  0  0  0  0  0  0  0  0
    3.2523    1.2854    1.8172 C   0  0  0  0  0  0  0  0  0  0  0  0
   -1.3249   -2.8158    0.4348 O   0  0  0  0  0  0  0  0  0  0  0  0
   -3.8121   -1.7396    0.9543 O   0  0  0  0  0  0  0  0  0  0  0  0
   -3.6748    2.8752    0.9023 H   0  0  0  0  0  0  0  0  0  0  0  0
   -5.2935    2.5331    1.5587 H   0  0  0  0  0  0  0  0  0  0  0  0
   -3.8602    1.7601    2.2772 H   0  0  0  0  0  0  0  0  0  0  0  0
   -5.0927    0.1733    0.8240 H   0  0  0  0  0  0  0  0  0  0  0  0
   -4.4531    2.1944   -1.3721 H   0  0  0  0  0  0  0  0  0  0  0  0
   -5.1930    0.5943   -1.6176 H   0  0  0  0  0  0  0  0  0  0  0  0
   -6.0719    1.8523   -0.7158 H   0  0  0  0  0  0  0  0  0  0  0  0
   -2.3261    2.1792   -0.7301 H   0  0  0  0  0  0  0  0  0  0  0  0
    0.6050    0.9512   -2.2698 H   0  0  0  0  0  0  0  0  0  0  0  0
   -0.2262    2.4250   -1.7091 H   0  0  0  0  0  0  0  0  0  0  0  0
    1.7807    2.6663   -0.5846 H   0  0  0  0  0  0  0  0  0  0  0  0
    0.8693    1.7354    0.6187 H   0  0  0  0  0  0  0  0  0  0  0  0
    2.6626    0.4797   -1.4616 H   0  0  0  0  0  0  0  0  0  0  0  0
    1.6010   -0.6197    1.1497 H   0  0  0  0  0  0  0  0  0  0  0  0
    2.7073   -2.7023    0.4393 H   0  0  0  0  0  0  0  0  0  0  0  0
    3.3215   -1.8977   -1.0226 H   0  0  0  0  0  0  0  0  0  0  0  0
    3.9844   -1.1119    1.8501 H   0  0  0  0  0  0  0  0  0  0  0  0
    5.0621   -1.9907    0.7366 H   0  0  0  0  0  0  0  0  0  0  0  0
    5.6076    0.4245    0.7494 H   0  0  0  0  0  0  0  0  0  0  0  0
    4.9757   -0.0656   -0.8428 H   0  0  0  0  0  0  0  0  0  0  0  0
    4.1966    2.3393   -1.3201 H   0  0  0  0  0  0  0  0  0  0  0  0
    3.3190    3.2028   -0.0347 H   0  0  0  0  0  0  0  0  0  0  0  0
    5.0151    2.7232    0.2131 H   0  0  0  0  0  0  0  0  0  0  0  0
    4.1308    1.6369    2.3584 H   0  0  0  0  0  0  0  0  0  0  0  0
    2.4506    2.0179    1.9111 H   0  0  0  0  0  0  0  0  0  0  0  0
    2.9253    0.3332    2.2348 H   0  0  0  0  0  0  0  0  0  0  0  0
   -1.5220   -3.4328   -0.2832 H   0  0  0  0  0  0  0  0  0  0  0  0
   -4.3660   -2.2023    0.3107 H   0  0  0  0  0  0  0  0  0  0  0  0
  1  2  1  0  0  0  0
  2  3  1  0  0  0  0
  2  4  1  0  0  0  0
  4  5  2  0  0  0  0
  5  6  1  0  0  0  0
  6  7  2  0  0  0  0
  7  8  1  0  0  0  0
  8  9  2  0  0  0  0
  4  9  1  0  0  0  0
  8 10  1  0  0  0  0
 10 11  1  0  0  0  0
 11 12  1  0  0  0  0
 12 13  1  0  0  0  0
 13 14  1  0  0  0  0
  7 14  1  0  0  0  0
 14 15  2  0  0  0  0
 13 16  1  0  0  0  0
 16 17  1  0  0  0  0
 17 18  1  0  0  0  0
 18 19  1  0  0  0  0
 12 19  1  0  0  0  0
 19 20  1  0  0  0  0
 19 21  1  0  0  0  0
  6 22  1  0  0  0  0
  5 23  1  0  0  0  0
  1 24  1  0  0  0  0
  1 25  1  0  0  0  0
  1 26  1  0  0  0  0
  2 27  1  0  0  0  0
  3 28  1  0  0  0  0
  3 29  1  0  0  0  0
  3 30  1  0  0  0  0
  9 31  1  0  0  0  0
 10 32  1  0  0  0  0
 10 33  1  0  0  0  0
 11 34  1  0  0  0  0
 11 35  1  0  0  0  0
 12 36  1  0  0  0  0
 13 37  1  0  0  0  0
 16 38  1  0  0  0  0
 16 39  1  0  0  0  0
 17 40  1  0  0  0  0
 17 41  1  0  0  0  0
 18 42  1  0  0  0  0
 18 43  1  0  0  0  0
 20 44  1  0  0  0  0
 20 45  1  0  0  0  0
 20 46  1  0  0  0  0
 21 47  1  0  0  0  0
 21 48  1  0  0  0  0
 21 49  1  0  0  0  0
 22 50  1  0  0  0  0
 23 51  1  0  0  0  0
M  END
$$$$
