C22H14O6
APtclcactv06211806333D 0   0.00000     0.00000
 
 42 45  0  0  0  0  0  0  0  0999 V2000
    0.5184    3.1623    0.4217 C   0  0  0  0  0  0  0  0  0  0  0  0
    1.4900    2.0254    0.2363 C   0  0  0  0  0  0  0  0  0  0  0  0
    2.8190    2.2900    0.0872 C   0  0  0  0  0  0  0  0  0  0  0  0
    3.7397    1.2518   -0.0859 C   0  0  0  0  0  0  0  0  0  0  0  0
    3.2965   -0.0718   -0.1072 C   0  0  0  0  0  0  0  0  0  0  0  0
    4.2376   -1.1924   -0.2876 C   0  0  0  0  0  0  0  0  0  0  0  0
    5.3766   -0.9853   -0.6591 O   0  0  0  0  0  0  0  0  0  0  0  0
    3.7809   -2.5688   -0.0115 C   0  0  0  0  0  0  0  0  0  0  0  0
    2.4729   -2.8351    0.1332 C   0  0  0  0  0  0  0  0  0  0  0  0
    1.4734   -1.7551    0.0184 C   0  0  0  0  0  0  0  0  0  0  0  0
    0.2923   -2.0196   -0.0964 O   0  0  0  0  0  0  0  0  0  0  0  0
    1.9249   -0.3511    0.0456 C   0  0  0  0  0  0  0  0  0  0  0  0
    1.0191    0.7023    0.2242 C   0  0  0  0  0  0  0  0  0  0  0  0
   -0.4214    0.4240    0.3925 C   0  0  0  0  0  0  0  0  0  0  0  0
   -0.9468    0.2221    1.6663 C   0  0  0  0  0  0  0  0  0  0  0  0
   -2.2954   -0.0389    1.8361 C   0  0  0  0  0  0  0  0  0  0  0  0
   -3.1380   -0.1018    0.7320 C   0  0  0  0  0  0  0  0  0  0  0  0
   -4.5814   -0.3792    0.8891 C   0  0  0  0  0  0  0  0  0  0  0  0
   -5.0164   -0.7936    1.9457 O   0  0  0  0  0  0  0  0  0  0  0  0
   -5.4884   -0.1466   -0.2518 C   0  0  0  0  0  0  0  0  0  0  0  0
   -4.9948    0.0452   -1.4852 C   0  0  0  0  0  0  0  0  0  0  0  0
   -3.5369    0.0264   -1.7186 C   0  0  0  0  0  0  0  0  0  0  0  0
   -3.0962   -0.0482   -2.8491 O   0  0  0  0  0  0  0  0  0  0  0  0
   -2.6211    0.0998   -0.5644 C   0  0  0  0  0  0  0  0  0  0  0  0
   -1.2649    0.3687   -0.7367 C   0  0  0  0  0  0  0  0  0  0  0  0
   -0.7607    0.5708   -1.9765 O   0  0  0  0  0  0  0  0  0  0  0  0
   -0.0404    0.2879    2.8684 C   0  0  0  0  0  0  0  0  0  0  0  0
    5.0571    1.5295   -0.2330 O   0  0  0  0  0  0  0  0  0  0  0  0
    0.1582    3.4949   -0.5518 H   0  0  0  0  0  0  0  0  0  0  0  0
   -0.3245    2.8251    1.0251 H   0  0  0  0  0  0  0  0  0  0  0  0
    1.0185    3.9891    0.9260 H   0  0  0  0  0  0  0  0  0  0  0  0
    3.1647    3.3131    0.1026 H   0  0  0  0  0  0  0  0  0  0  0  0
    4.5035   -3.3668    0.0744 H   0  0  0  0  0  0  0  0  0  0  0  0
    2.1501   -3.8459    0.3345 H   0  0  0  0  0  0  0  0  0  0  0  0
   -2.6938   -0.1944    2.8278 H   0  0  0  0  0  0  0  0  0  0  0  0
   -6.5566   -0.1310   -0.0932 H   0  0  0  0  0  0  0  0  0  0  0  0
   -5.6684    0.2139   -2.3123 H   0  0  0  0  0  0  0  0  0  0  0  0
   -0.7762    1.4947   -2.2616 H   0  0  0  0  0  0  0  0  0  0  0  0
   -0.0060    1.3113    3.2420 H   0  0  0  0  0  0  0  0  0  0  0  0
   -0.4226   -0.3709    3.6482 H   0  0  0  0  0  0  0  0  0  0  0  0
    0.9631   -0.0292    2.5846 H   0  0  0  0  0  0  0  0  0  0  0  0
    5.5479    1.5602    0.5996 H   0  0  0  0  0  0  0  0  0  0  0  0
  1  2  1  0  0  0  0
  2  3  2  0  0  0  0
  3  4  1  0  0  0  0
  4  5  2  0  0  0  0
  5  6  1  0  0  0  0
  6  7  2  0  0  0  0
  6  8  1  0  0  0  0
  8  9  2  0  0  0  0
  9 10  1  0  0  0  0
 10 11  2  0  0  0  0
 10 12  1  0  0  0  0
  5 12  1  0  0  0  0
 12 13  2  0  0  0  0
  2 13  1  0  0  0  0
 13 14  1  0  0  0  0
 14 15  2  0  0  0  0
 15 16  1  0  0  0  0
 16 17  2  0  0  0  0
 17 18  1  0  0  0  0
 18 19  2  0  0  0  0
 18 20  1  0  0  0  0
 20 21  2  0  0  0  0
 21 22  1  0  0  0  0
 22 23  2  0  0  0  0
 22 24  1  0  0  0  0
 17 24  1  0  0  0  0
 24 25  2  0  0  0  0
 14 25  1  0  0  0  0
 25 26  1  0  0  0  0
 15 27  1  0  0  0  0
  4 28  1  0  0  0  0
  1 29  1  0  0  0  0
  1 30  1  0  0  0  0
  1 31  1  0  0  0  0
  3 32  1  0  0  0  0
  8 33  1  0  0  0  0
  9 34  1  0  0  0  0
 16 35  1  0  0  0  0
 20 36  1  0  0  0  0
 21 37  1  0  0  0  0
 26 38  1  0  0  0  0
 27 39  1  0  0  0  0
 27 40  1  0  0  0  0
 27 41  1  0  0  0  0
 28 42  1  0  0  0  0
M  END
$$$$
