C15H10O4
APtclcactv06211806333D 0   0.00000     0.00000
 
 29 31  0  0  0  0  0  0  0  0999 V2000
    4.4973   -0.8916    0.2954 C   0  0  0  0  0  0  0  0  0  0  0  0
    3.1248   -0.2828    0.1670 C   0  0  0  0  0  0  0  0  0  0  0  0
    2.9812    1.0858    0.1786 C   0  0  0  0  0  0  0  0  0  0  0  0
    1.7182    1.6667    0.0614 C   0  0  0  0  0  0  0  0  0  0  0  0
    0.5910    0.8548   -0.0684 C   0  0  0  0  0  0  0  0  0  0  0  0
    0.7383   -0.5485   -0.0809 C   0  0  0  0  0  0  0  0  0  0  0  0
    2.0103   -1.1109    0.0317 C   0  0  0  0  0  0  0  0  0  0  0  0
    2.1616   -2.4584    0.0203 O   0  0  0  0  0  0  0  0  0  0  0  0
   -0.4529   -1.4067   -0.2173 C   0  0  0  0  0  0  0  0  0  0  0  0
   -0.3333   -2.5881   -0.4783 O   0  0  0  0  0  0  0  0  0  0  0  0
   -1.7953   -0.8130   -0.0323 C   0  0  0  0  0  0  0  0  0  0  0  0
   -2.9123   -1.6253    0.1301 C   0  0  0  0  0  0  0  0  0  0  0  0
   -4.1605   -1.0521    0.3023 C   0  0  0  0  0  0  0  0  0  0  0  0
   -4.3051    0.3230    0.3132 C   0  0  0  0  0  0  0  0  0  0  0  0
   -3.2036    1.1460    0.1524 C   0  0  0  0  0  0  0  0  0  0  0  0
   -1.9423    0.5865   -0.0203 C   0  0  0  0  0  0  0  0  0  0  0  0
   -0.7528    1.4492   -0.1914 C   0  0  0  0  0  0  0  0  0  0  0  0
   -0.8816    2.6342   -0.4306 O   0  0  0  0  0  0  0  0  0  0  0  0
    1.5865    3.0163    0.0742 O   0  0  0  0  0  0  0  0  0  0  0  0
    4.7240   -1.0579    1.3485 H   0  0  0  0  0  0  0  0  0  0  0  0
    4.5242   -1.8425   -0.2367 H   0  0  0  0  0  0  0  0  0  0  0  0
    5.2366   -0.2146   -0.1329 H   0  0  0  0  0  0  0  0  0  0  0  0
    3.8531    1.7151    0.2794 H   0  0  0  0  0  0  0  0  0  0  0  0
    2.2908   -2.8322   -0.8621 H   0  0  0  0  0  0  0  0  0  0  0  0
   -2.8063   -2.7000    0.1217 H   0  0  0  0  0  0  0  0  0  0  0  0
   -5.0276   -1.6835    0.4285 H   0  0  0  0  0  0  0  0  0  0  0  0
   -5.2843    0.7581    0.4479 H   0  0  0  0  0  0  0  0  0  0  0  0
   -3.3236    2.2192    0.1610 H   0  0  0  0  0  0  0  0  0  0  0  0
    1.6376    3.4248   -0.8007 H   0  0  0  0  0  0  0  0  0  0  0  0
  1  2  1  0  0  0  0
  2  3  2  0  0  0  0
  3  4  1  0  0  0  0
  4  5  2  0  0  0  0
  5  6  1  0  0  0  0
  6  7  2  0  0  0  0
  2  7  1  0  0  0  0
  7  8  1  0  0  0  0
  6  9  1  0  0  0  0
  9 10  2  0  0  0  0
  9 11  1  0  0  0  0
 11 12  2  0  0  0  0
 12 13  1  0  0  0  0
 13 14  2  0  0  0  0
 14 15  1  0  0  0  0
 15 16  2  0  0  0  0
 11 16  1  0  0  0  0
 16 17  1  0  0  0  0
  5 17  1  0  0  0  0
 17 18  2  0  0  0  0
  4 19  1  0  0  0  0
  1 20  1  0  0  0  0
  1 21  1  0  0  0  0
  1 22  1  0  0  0  0
  3 23  1  0  0  0  0
  8 24  1  0  0  0  0
 12 25  1  0  0  0  0
 13 26  1  0  0  0  0
 14 27  1  0  0  0  0
 15 28  1  0  0  0  0
 19 29  1  0  0  0  0
M  END
$$$$
