C16H12O6
APtclcactv06281817253D 0   0.00000     0.00000
 
 34 36  0  0  0  0  0  0  0  0999 V2000
    3.5363    3.2086   -0.3513 C   0  0  0  0  0  0  0  0  0  0  0  0
    2.4294    2.3050   -0.3375 O   0  0  0  0  0  0  0  0  0  0  0  0
    2.7055    0.9960   -0.1100 C   0  0  0  0  0  0  0  0  0  0  0  0
    1.6728    0.0513   -0.0818 C   0  0  0  0  0  0  0  0  0  0  0  0
    1.9544   -1.3091    0.1400 C   0  0  0  0  0  0  0  0  0  0  0  0
    3.2701   -1.7002    0.3464 C   0  0  0  0  0  0  0  0  0  0  0  0
    4.2873   -0.7593    0.3247 C   0  0  0  0  0  0  0  0  0  0  0  0
    4.0100    0.5831    0.0903 C   0  0  0  0  0  0  0  0  0  0  0  0
    5.5699   -1.1534    0.5300 O   0  0  0  0  0  0  0  0  0  0  0  0
    0.9631   -2.2206    0.1447 O   0  0  0  0  0  0  0  0  0  0  0  0
   -0.3142   -1.8543    0.2592 C   0  0  0  0  0  0  0  0  0  0  0  0
   -0.7403   -0.5803    0.0628 C   0  0  0  0  0  0  0  0  0  0  0  0
    0.2668    0.4452   -0.2746 C   0  0  0  0  0  0  0  0  0  0  0  0
   -0.0459    1.5492   -0.6871 O   0  0  0  0  0  0  0  0  0  0  0  0
   -2.1762   -0.2289    0.1834 C   0  0  0  0  0  0  0  0  0  0  0  0
   -3.0729   -0.5865   -0.8283 C   0  0  0  0  0  0  0  0  0  0  0  0
   -4.4121   -0.2561   -0.7098 C   0  0  0  0  0  0  0  0  0  0  0  0
   -4.8615    0.4282    0.4098 C   0  0  0  0  0  0  0  0  0  0  0  0
   -3.9716    0.7840    1.4146 C   0  0  0  0  0  0  0  0  0  0  0  0
   -2.6365    0.4533    1.3075 C   0  0  0  0  0  0  0  0  0  0  0  0
   -6.1766    0.7517    0.5236 O   0  0  0  0  0  0  0  0  0  0  0  0
   -2.6309   -1.2560   -1.9250 O   0  0  0  0  0  0  0  0  0  0  0  0
    4.0413    3.1793    0.6142 H   0  0  0  0  0  0  0  0  0  0  0  0
    4.2345    2.9159   -1.1355 H   0  0  0  0  0  0  0  0  0  0  0  0
    3.1775    4.2198   -0.5431 H   0  0  0  0  0  0  0  0  0  0  0  0
    3.5015   -2.7399    0.5247 H   0  0  0  0  0  0  0  0  0  0  0  0
    4.8132    1.3049    0.0725 H   0  0  0  0  0  0  0  0  0  0  0  0
    6.0413   -1.3954   -0.2789 H   0  0  0  0  0  0  0  0  0  0  0  0
   -1.0439   -2.6066    0.5199 H   0  0  0  0  0  0  0  0  0  0  0  0
   -5.1070   -0.5309   -1.4896 H   0  0  0  0  0  0  0  0  0  0  0  0
   -4.3263    1.3171    2.2843 H   0  0  0  0  0  0  0  0  0  0  0  0
   -1.9467    0.7314    2.0906 H   0  0  0  0  0  0  0  0  0  0  0  0
   -6.7109    0.0770    0.9644 H   0  0  0  0  0  0  0  0  0  0  0  0
   -2.6563   -2.2185   -1.8349 H   0  0  0  0  0  0  0  0  0  0  0  0
  1  2  1  0  0  0  0
  2  3  1  0  0  0  0
  3  4  2  0  0  0  0
  4  5  1  0  0  0  0
  5  6  2  0  0  0  0
  6  7  1  0  0  0  0
  7  8  2  0  0  0  0
  3  8  1  0  0  0  0
  7  9  1  0  0  0  0
  5 10  1  0  0  0  0
 10 11  1  0  0  0  0
 11 12  2  0  0  0  0
 12 13  1  0  0  0  0
  4 13  1  0  0  0  0
 13 14  2  0  0  0  0
 12 15  1  0  0  0  0
 15 16  2  0  0  0  0
 16 17  1  0  0  0  0
 17 18  2  0  0  0  0
 18 19  1  0  0  0  0
 19 20  2  0  0  0  0
 15 20  1  0  0  0  0
 18 21  1  0  0  0  0
 16 22  1  0  0  0  0
  1 23  1  0  0  0  0
  1 24  1  0  0  0  0
  1 25  1  0  0  0  0
  6 26  1  0  0  0  0
  8 27  1  0  0  0  0
  9 28  1  0  0  0  0
 11 29  1  0  0  0  0
 17 30  1  0  0  0  0
 19 31  1  0  0  0  0
 20 32  1  0  0  0  0
 21 33  1  0  0  0  0
 22 34  1  0  0  0  0
M  END
$$$$
