C40H64
APtclcactv06281816433D 0   0.00000     0.00000
 
104103  0  0  0  0  0  0  0  0999 V2000
  -14.5651   -1.5527   -0.0092 C   0  0  0  0  0  0  0  0  0  0  0  0
  -15.1016   -0.1624    0.2147 C   0  0  0  0  0  0  0  0  0  0  0  0
  -14.2935    0.7998    0.5854 C   0  0  0  0  0  0  0  0  0  0  0  0
  -12.8095    0.5492    0.6633 C   0  0  0  0  0  0  0  0  0  0  0  0
  -12.0722    1.5833   -0.1899 C   0  0  0  0  0  0  0  0  0  0  0  0
  -10.5882    1.3328   -0.1119 C   0  0  0  0  0  0  0  0  0  0  0  0
   -9.9963    0.6125   -1.0322 C   0  0  0  0  0  0  0  0  0  0  0  0
   -8.5096    0.3760   -0.9635 C   0  0  0  0  0  0  0  0  0  0  0  0
   -8.2285   -1.1264   -1.0323 C   0  0  0  0  0  0  0  0  0  0  0  0
   -6.7417   -1.3630   -0.9635 C   0  0  0  0  0  0  0  0  0  0  0  0
   -6.1729   -1.6265    0.1867 C   0  0  0  0  0  0  0  0  0  0  0  0
   -4.6715   -1.7130    0.2826 C   0  0  0  0  0  0  0  0  0  0  0  0
   -4.1752   -0.7694    1.3800 C   0  0  0  0  0  0  0  0  0  0  0  0
   -2.6738   -0.8559    1.4758 C   0  0  0  0  0  0  0  0  0  0  0  0
   -1.9125    0.0201    0.8203 C   0  0  0  0  0  0  0  0  0  0  0  0
   -0.4532   -0.0640    0.9134 C   0  0  0  0  0  0  0  0  0  0  0  0
    0.3172    0.8227    0.2500 C   0  0  0  0  0  0  0  0  0  0  0  0
    1.7766    0.7386    0.3432 C   0  0  0  0  0  0  0  0  0  0  0  0
    2.5378    1.6147   -0.3124 C   0  0  0  0  0  0  0  0  0  0  0  0
    1.8970    2.6917   -1.1493 C   0  0  0  0  0  0  0  0  0  0  0  0
    4.0393    1.5281   -0.2165 C   0  0  0  0  0  0  0  0  0  0  0  0
    4.5805    0.7251   -1.4011 C   0  0  0  0  0  0  0  0  0  0  0  0
    6.0819    0.6386   -1.3053 C   0  0  0  0  0  0  0  0  0  0  0  0
    6.6713   -0.5313   -1.2945 C   0  0  0  0  0  0  0  0  0  0  0  0
    5.8495   -1.7899   -1.4020 C   0  0  0  0  0  0  0  0  0  0  0  0
    8.1710   -0.6185   -1.1747 C   0  0  0  0  0  0  0  0  0  0  0  0
    8.5545   -0.8193    0.2928 C   0  0  0  0  0  0  0  0  0  0  0  0
   10.0542   -0.9065    0.4126 C   0  0  0  0  0  0  0  0  0  0  0  0
   10.6972   -0.0822    1.2020 C   0  0  0  0  0  0  0  0  0  0  0  0
    9.9594    1.0464    1.8750 C   0  0  0  0  0  0  0  0  0  0  0  0
   12.1748   -0.2625    1.4371 C   0  0  0  0  0  0  0  0  0  0  0  0
   12.9575    0.6298    0.4717 C   0  0  0  0  0  0  0  0  0  0  0  0
   14.4351    0.4494    0.7068 C   0  0  0  0  0  0  0  0  0  0  0  0
   15.2012   -0.0014   -0.2555 C   0  0  0  0  0  0  0  0  0  0  0  0
   14.5959   -0.3984   -1.5772 C   0  0  0  0  0  0  0  0  0  0  0  0
   16.6879   -0.1230   -0.0407 C   0  0  0  0  0  0  0  0  0  0  0  0
   -2.0330   -1.9329    2.3128 C   0  0  0  0  0  0  0  0  0  0  0  0
   -5.9094   -1.2963   -2.2180 C   0  0  0  0  0  0  0  0  0  0  0  0
   -9.7851    1.9109    1.0247 C   0  0  0  0  0  0  0  0  0  0  0  0
  -16.5678    0.1212    0.0123 C   0  0  0  0  0  0  0  0  0  0  0  0
  -14.0411   -1.8885    0.8856 H   0  0  0  0  0  0  0  0  0  0  0  0
  -15.3912   -2.2310   -0.2225 H   0  0  0  0  0  0  0  0  0  0  0  0
  -13.8748   -1.5443   -0.8528 H   0  0  0  0  0  0  0  0  0  0  0  0
  -14.6907    1.7725    0.8351 H   0  0  0  0  0  0  0  0  0  0  0  0
  -12.4809    0.6321    1.6993 H   0  0  0  0  0  0  0  0  0  0  0  0
  -12.5900   -0.4516    0.2915 H   0  0  0  0  0  0  0  0  0  0  0  0
  -12.4007    1.5004   -1.2258 H   0  0  0  0  0  0  0  0  0  0  0  0
  -12.2917    2.5842    0.1820 H   0  0  0  0  0  0  0  0  0  0  0  0
  -10.5738    0.1882   -1.8402 H   0  0  0  0  0  0  0  0  0  0  0  0
   -8.0231    0.8754   -1.8013 H   0  0  0  0  0  0  0  0  0  0  0  0
   -8.1210    0.7758   -0.0269 H   0  0  0  0  0  0  0  0  0  0  0  0
   -8.7150   -1.6258   -0.1944 H   0  0  0  0  0  0  0  0  0  0  0  0
   -8.6171   -1.5263   -1.9689 H   0  0  0  0  0  0  0  0  0  0  0  0
   -6.7800   -1.7817    1.0664 H   0  0  0  0  0  0  0  0  0  0  0  0
   -4.3811   -2.7355    0.5239 H   0  0  0  0  0  0  0  0  0  0  0  0
   -4.2293   -1.4253   -0.6713 H   0  0  0  0  0  0  0  0  0  0  0  0
   -4.4656    0.2531    1.1386 H   0  0  0  0  0  0  0  0  0  0  0  0
   -4.6174   -1.0571    2.3338 H   0  0  0  0  0  0  0  0  0  0  0  0
   -2.3718    0.7920    0.2205 H   0  0  0  0  0  0  0  0  0  0  0  0
    0.0060   -0.8358    1.5133 H   0  0  0  0  0  0  0  0  0  0  0  0
   -0.1420    1.5945   -0.3498 H   0  0  0  0  0  0  0  0  0  0  0  0
    2.2358   -0.0332    0.9430 H   0  0  0  0  0  0  0  0  0  0  0  0
    1.7264    3.5758   -0.5351 H   0  0  0  0  0  0  0  0  0  0  0  0
    2.5560    2.9473   -1.9791 H   0  0  0  0  0  0  0  0  0  0  0  0
    0.9452    2.3308   -1.5391 H   0  0  0  0  0  0  0  0  0  0  0  0
    4.4629    2.5323   -0.2343 H   0  0  0  0  0  0  0  0  0  0  0  0
    4.3160    1.0335    0.7145 H   0  0  0  0  0  0  0  0  0  0  0  0
    4.1568   -0.2790   -1.3833 H   0  0  0  0  0  0  0  0  0  0  0  0
    4.3037    1.2198   -2.3321 H   0  0  0  0  0  0  0  0  0  0  0  0
    6.6721    1.5411   -1.2454 H   0  0  0  0  0  0  0  0  0  0  0  0
    5.6733   -2.0202   -2.4528 H   0  0  0  0  0  0  0  0  0  0  0  0
    6.3862   -2.6153   -0.9343 H   0  0  0  0  0  0  0  0  0  0  0  0
    4.8947   -1.6447   -0.8968 H   0  0  0  0  0  0  0  0  0  0  0  0
    8.5342   -1.4607   -1.7637 H   0  0  0  0  0  0  0  0  0  0  0  0
    8.6192    0.3037   -1.5445 H   0  0  0  0  0  0  0  0  0  0  0  0
    8.1913    0.0229    0.8817 H   0  0  0  0  0  0  0  0  0  0  0  0
    8.1062   -1.7415    0.6625 H   0  0  0  0  0  0  0  0  0  0  0  0
   10.5988   -1.6485   -0.1524 H   0  0  0  0  0  0  0  0  0  0  0  0
    9.5005    0.6832    2.7946 H   0  0  0  0  0  0  0  0  0  0  0  0
   10.6589    1.8486    2.1102 H   0  0  0  0  0  0  0  0  0  0  0  0
    9.1851    1.4237    1.2070 H   0  0  0  0  0  0  0  0  0  0  0  0
   12.4158    0.0137    2.4636 H   0  0  0  0  0  0  0  0  0  0  0  0
   12.4450   -1.3050    1.2684 H   0  0  0  0  0  0  0  0  0  0  0  0
   12.7165    0.3535   -0.5548 H   0  0  0  0  0  0  0  0  0  0  0  0
   12.6873    1.6722    0.6403 H   0  0  0  0  0  0  0  0  0  0  0  0
   14.8624    0.6919    1.6686 H   0  0  0  0  0  0  0  0  0  0  0  0
   14.4812    0.4856   -2.2045 H   0  0  0  0  0  0  0  0  0  0  0  0
   15.2489   -1.1150   -2.0753 H   0  0  0  0  0  0  0  0  0  0  0  0
   13.6198   -0.8529   -1.4079 H   0  0  0  0  0  0  0  0  0  0  0  0
   16.9177   -1.1111    0.3580 H   0  0  0  0  0  0  0  0  0  0  0  0
   17.2047    0.0149   -0.9904 H   0  0  0  0  0  0  0  0  0  0  0  0
   17.0164    0.6393    0.6658 H   0  0  0  0  0  0  0  0  0  0  0  0
   -1.8624   -2.8171    1.6986 H   0  0  0  0  0  0  0  0  0  0  0  0
   -1.0811   -1.5721    2.7025 H   0  0  0  0  0  0  0  0  0  0  0  0
   -2.6919   -2.1885    3.1426 H   0  0  0  0  0  0  0  0  0  0  0  0
   -5.4836   -0.2980   -2.3190 H   0  0  0  0  0  0  0  0  0  0  0  0
   -5.1053   -2.0300   -2.1600 H   0  0  0  0  0  0  0  0  0  0  0  0
   -6.5370   -1.5128   -3.0824 H   0  0  0  0  0  0  0  0  0  0  0  0
   -9.6762    1.1628    1.8099 H   0  0  0  0  0  0  0  0  0  0  0  0
   -8.7996    2.2027    0.6617 H   0  0  0  0  0  0  0  0  0  0  0  0
  -10.2986    2.7852    1.4246 H   0  0  0  0  0  0  0  0  0  0  0  0
  -17.0760   -0.7936   -0.2925 H   0  0  0  0  0  0  0  0  0  0  0  0
  -17.0000    0.4834    0.9451 H   0  0  0  0  0  0  0  0  0  0  0  0
  -16.6878    0.8788   -0.7621 H   0  0  0  0  0  0  0  0  0  0  0  0
  1  2  1  0  0  0  0
  2  3  2  0  0  0  0
  3  4  1  0  0  0  0
  4  5  1  0  0  0  0
  5  6  1  0  0  0  0
  6  7  2  0  0  0  0
  7  8  1  0  0  0  0
  8  9  1  0  0  0  0
  9 10  1  0  0  0  0
 10 11  2  0  0  0  0
 11 12  1  0  0  0  0
 12 13  1  0  0  0  0
 13 14  1  0  0  0  0
 14 15  2  0  0  0  0
 15 16  1  0  0  0  0
 16 17  2  0  0  0  0
 17 18  1  0  0  0  0
 18 19  2  0  0  0  0
 19 20  1  0  0  0  0
 19 21  1  0  0  0  0
 21 22  1  0  0  0  0
 22 23  1  0  0  0  0
 23 24  2  0  0  0  0
 24 25  1  0  0  0  0
 24 26  1  0  0  0  0
 26 27  1  0  0  0  0
 27 28  1  0  0  0  0
 28 29  2  0  0  0  0
 29 30  1  0  0  0  0
 29 31  1  0  0  0  0
 31 32  1  0  0  0  0
 32 33  1  0  0  0  0
 33 34  2  0  0  0  0
 34 35  1  0  0  0  0
 34 36  1  0  0  0  0
 14 37  1  0  0  0  0
 10 38  1  0  0  0  0
  6 39  1  0  0  0  0
  2 40  1  0  0  0  0
  1 41  1  0  0  0  0
  1 42  1  0  0  0  0
  1 43  1  0  0  0  0
  3 44  1  0  0  0  0
  4 45  1  0  0  0  0
  4 46  1  0  0  0  0
  5 47  1  0  0  0  0
  5 48  1  0  0  0  0
  7 49  1  0  0  0  0
  8 50  1  0  0  0  0
  8 51  1  0  0  0  0
  9 52  1  0  0  0  0
  9 53  1  0  0  0  0
 11 54  1  0  0  0  0
 12 55  1  0  0  0  0
 12 56  1  0  0  0  0
 13 57  1  0  0  0  0
 13 58  1  0  0  0  0
 15 59  1  0  0  0  0
 16 60  1  0  0  0  0
 17 61  1  0  0  0  0
 18 62  1  0  0  0  0
 20 63  1  0  0  0  0
 20 64  1  0  0  0  0
 20 65  1  0  0  0  0
 21 66  1  0  0  0  0
 21 67  1  0  0  0  0
 22 68  1  0  0  0  0
 22 69  1  0  0  0  0
 23 70  1  0  0  0  0
 25 71  1  0  0  0  0
 25 72  1  0  0  0  0
 25 73  1  0  0  0  0
 26 74  1  0  0  0  0
 26 75  1  0  0  0  0
 27 76  1  0  0  0  0
 27 77  1  0  0  0  0
 28 78  1  0  0  0  0
 30 79  1  0  0  0  0
 30 80  1  0  0  0  0
 30 81  1  0  0  0  0
 31 82  1  0  0  0  0
 31 83  1  0  0  0  0
 32 84  1  0  0  0  0
 32 85  1  0  0  0  0
 33 86  1  0  0  0  0
 35 87  1  0  0  0  0
 35 88  1  0  0  0  0
 35 89  1  0  0  0  0
 36 90  1  0  0  0  0
 36 91  1  0  0  0  0
 36 92  1  0  0  0  0
 37 93  1  0  0  0  0
 37 94  1  0  0  0  0
 37 95  1  0  0  0  0
 38 96  1  0  0  0  0
 38 97  1  0  0  0  0
 38 98  1  0  0  0  0
 39 99  1  0  0  0  0
 39100  1  0  0  0  0
 39101  1  0  0  0  0
 40102  1  0  0  0  0
 40103  1  0  0  0  0
 40104  1  0  0  0  0
M  END
$$$$
