C15H10O6
APtclcactv06281817253D 0   0.00000     0.00000
 
 31 33  0  0  0  0  0  0  0  0999 V2000
    4.5687   -0.9000   -1.0133 C   0  0  0  0  0  0  0  0  0  0  0  0
    3.2415   -1.2219   -1.0359 C   0  0  0  0  0  0  0  0  0  0  0  0
    2.3440   -0.5090   -0.2414 C   0  0  0  0  0  0  0  0  0  0  0  0
    2.7945    0.5328    0.5884 C   0  0  0  0  0  0  0  0  0  0  0  0
    4.1476    0.8491    0.5958 C   0  0  0  0  0  0  0  0  0  0  0  0
    5.0262    0.1357   -0.2009 C   0  0  0  0  0  0  0  0  0  0  0  0
    6.3472    0.4481   -0.1908 O   0  0  0  0  0  0  0  0  0  0  0  0
    1.9307    1.2084    1.3693 O   0  0  0  0  0  0  0  0  0  0  0  0
    0.6150    1.1432    1.1649 C   0  0  0  0  0  0  0  0  0  0  0  0
    0.0297    0.1857    0.3994 C   0  0  0  0  0  0  0  0  0  0  0  0
    0.9004   -0.8143   -0.2482 C   0  0  0  0  0  0  0  0  0  0  0  0
    0.4551   -1.8287   -0.7568 O   0  0  0  0  0  0  0  0  0  0  0  0
   -1.4422    0.1462    0.2201 C   0  0  0  0  0  0  0  0  0  0  0  0
   -2.0922    1.1851   -0.4433 C   0  0  0  0  0  0  0  0  0  0  0  0
   -3.4661    1.1467   -0.6098 C   0  0  0  0  0  0  0  0  0  0  0  0
   -4.1975    0.0725   -0.1150 C   0  0  0  0  0  0  0  0  0  0  0  0
   -3.5504   -0.9648    0.5476 C   0  0  0  0  0  0  0  0  0  0  0  0
   -2.1758   -0.9327    0.7099 C   0  0  0  0  0  0  0  0  0  0  0  0
   -4.2675   -2.0143    1.0312 O   0  0  0  0  0  0  0  0  0  0  0  0
   -5.5481    0.0364   -0.2791 O   0  0  0  0  0  0  0  0  0  0  0  0
   -4.1009    2.1604   -1.2571 O   0  0  0  0  0  0  0  0  0  0  0  0
    5.2669   -1.4531   -1.6241 H   0  0  0  0  0  0  0  0  0  0  0  0
    2.8887   -2.0247   -1.6663 H   0  0  0  0  0  0  0  0  0  0  0  0
    4.5127    1.6500    1.2216 H   0  0  0  0  0  0  0  0  0  0  0  0
    6.8607   -0.0357    0.4706 H   0  0  0  0  0  0  0  0  0  0  0  0
   -0.0154    1.8865    1.6302 H   0  0  0  0  0  0  0  0  0  0  0  0
   -1.5246    2.0199   -0.8270 H   0  0  0  0  0  0  0  0  0  0  0  0
   -1.6735   -1.7386    1.2243 H   0  0  0  0  0  0  0  0  0  0  0  0
   -4.3704   -2.7428    0.4036 H   0  0  0  0  0  0  0  0  0  0  0  0
   -5.8338   -0.3987   -1.0940 H   0  0  0  0  0  0  0  0  0  0  0  0
   -4.1796    2.0290   -2.2119 H   0  0  0  0  0  0  0  0  0  0  0  0
  1  2  2  0  0  0  0
  2  3  1  0  0  0  0
  3  4  2  0  0  0  0
  4  5  1  0  0  0  0
  5  6  2  0  0  0  0
  1  6  1  0  0  0  0
  6  7  1  0  0  0  0
  4  8  1  0  0  0  0
  8  9  1  0  0  0  0
  9 10  2  0  0  0  0
 10 11  1  0  0  0  0
  3 11  1  0  0  0  0
 11 12  2  0  0  0  0
 10 13  1  0  0  0  0
 13 14  2  0  0  0  0
 14 15  1  0  0  0  0
 15 16  2  0  0  0  0
 16 17  1  0  0  0  0
 17 18  2  0  0  0  0
 13 18  1  0  0  0  0
 17 19  1  0  0  0  0
 16 20  1  0  0  0  0
 15 21  1  0  0  0  0
  1 22  1  0  0  0  0
  2 23  1  0  0  0  0
  5 24  1  0  0  0  0
  7 25  1  0  0  0  0
  9 26  1  0  0  0  0
 14 27  1  0  0  0  0
 18 28  1  0  0  0  0
 19 29  1  0  0  0  0
 20 30  1  0  0  0  0
 21 31  1  0  0  0  0
M  END
$$$$
