C17H14O6
APtclcactv06281817253D 0   0.00000     0.00000
 
 37 39  0  0  0  0  0  0  0  0999 V2000
   -1.8298   -3.3779   -0.9829 C   0  0  0  0  0  0  0  0  0  0  0  0
   -1.9552   -2.6780    0.2567 O   0  0  0  0  0  0  0  0  0  0  0  0
   -2.2252   -1.3451    0.1894 C   0  0  0  0  0  0  0  0  0  0  0  0
   -3.5414   -0.9031    0.1703 C   0  0  0  0  0  0  0  0  0  0  0  0
   -3.8315    0.4553    0.1018 C   0  0  0  0  0  0  0  0  0  0  0  0
   -2.8086    1.3833    0.0524 C   0  0  0  0  0  0  0  0  0  0  0  0
   -1.4775    0.9469    0.0717 C   0  0  0  0  0  0  0  0  0  0  0  0
   -1.1836   -0.4261    0.1457 C   0  0  0  0  0  0  0  0  0  0  0  0
    0.1020   -0.8381    0.1642 O   0  0  0  0  0  0  0  0  0  0  0  0
    1.1332    0.0222    0.1142 C   0  0  0  0  0  0  0  0  0  0  0  0
    0.9569    1.3704    0.0416 C   0  0  0  0  0  0  0  0  0  0  0  0
   -0.3599    1.9028    0.0206 C   0  0  0  0  0  0  0  0  0  0  0  0
   -0.5567    3.1055   -0.0444 O   0  0  0  0  0  0  0  0  0  0  0  0
    2.0333    2.2012   -0.0066 O   0  0  0  0  0  0  0  0  0  0  0  0
    2.2212    2.9505   -1.2088 C   0  0  0  0  0  0  0  0  0  0  0  0
    2.5079   -0.5142    0.1393 C   0  0  0  0  0  0  0  0  0  0  0  0
    3.4614    0.0390    0.9973 C   0  0  0  0  0  0  0  0  0  0  0  0
    4.7441   -0.4677    1.0159 C   0  0  0  0  0  0  0  0  0  0  0  0
    5.0873   -1.5215    0.1872 C   0  0  0  0  0  0  0  0  0  0  0  0
    4.1481   -2.0741   -0.6655 C   0  0  0  0  0  0  0  0  0  0  0  0
    2.8600   -1.5813   -0.6905 C   0  0  0  0  0  0  0  0  0  0  0  0
   -3.0920    2.7096   -0.0150 O   0  0  0  0  0  0  0  0  0  0  0  0
   -4.5553   -1.8062    0.2185 O   0  0  0  0  0  0  0  0  0  0  0  0
   -1.0170   -2.9434   -1.5648 H   0  0  0  0  0  0  0  0  0  0  0  0
   -1.6151   -4.4284   -0.7869 H   0  0  0  0  0  0  0  0  0  0  0  0
   -2.7616   -3.2957   -1.5424 H   0  0  0  0  0  0  0  0  0  0  0  0
   -4.8595    0.7860    0.0869 H   0  0  0  0  0  0  0  0  0  0  0  0
    1.4008    3.6583   -1.3277 H   0  0  0  0  0  0  0  0  0  0  0  0
    3.1646    3.4937   -1.1547 H   0  0  0  0  0  0  0  0  0  0  0  0
    2.2414    2.2712   -2.0610 H   0  0  0  0  0  0  0  0  0  0  0  0
    3.1950    0.8617    1.6443 H   0  0  0  0  0  0  0  0  0  0  0  0
    5.4824   -0.0408    1.6784 H   0  0  0  0  0  0  0  0  0  0  0  0
    6.0932   -1.9142    0.2059 H   0  0  0  0  0  0  0  0  0  0  0  0
    4.4229   -2.8961   -1.3098 H   0  0  0  0  0  0  0  0  0  0  0  0
    2.1279   -2.0137   -1.3564 H   0  0  0  0  0  0  0  0  0  0  0  0
   -3.1724    3.1389    0.8478 H   0  0  0  0  0  0  0  0  0  0  0  0
   -4.8467   -2.0230    1.1147 H   0  0  0  0  0  0  0  0  0  0  0  0
  1  2  1  0  0  0  0
  2  3  1  0  0  0  0
  3  4  2  0  0  0  0
  4  5  1  0  0  0  0
  5  6  2  0  0  0  0
  6  7  1  0  0  0  0
  7  8  2  0  0  0  0
  3  8  1  0  0  0  0
  8  9  1  0  0  0  0
  9 10  1  0  0  0  0
 10 11  2  0  0  0  0
 11 12  1  0  0  0  0
  7 12  1  0  0  0  0
 12 13  2  0  0  0  0
 11 14  1  0  0  0  0
 14 15  1  0  0  0  0
 10 16  1  0  0  0  0
 16 17  2  0  0  0  0
 17 18  1  0  0  0  0
 18 19  2  0  0  0  0
 19 20  1  0  0  0  0
 20 21  2  0  0  0  0
 16 21  1  0  0  0  0
  6 22  1  0  0  0  0
  4 23  1  0  0  0  0
  1 24  1  0  0  0  0
  1 25  1  0  0  0  0
  1 26  1  0  0  0  0
  5 27  1  0  0  0  0
 15 28  1  0  0  0  0
 15 29  1  0  0  0  0
 15 30  1  0  0  0  0
 17 31  1  0  0  0  0
 18 32  1  0  0  0  0
 19 33  1  0  0  0  0
 20 34  1  0  0  0  0
 21 35  1  0  0  0  0
 22 36  1  0  0  0  0
 23 37  1  0  0  0  0
M  END
$$$$
