C15H24
APtclcactv06211806333D 0   0.00000     0.00000
 
 39 41  0  0  0  0  0  0  0  0999 V2000
    0.8457    2.2228    1.0126 C   0  0  0  0  0  0  0  0  0  0  0  0
   -0.4019    1.4046    0.6735 C   0  0  0  0  0  0  0  0  0  0  0  0
   -0.9864    1.8917   -0.6560 C   0  0  0  0  0  0  0  0  0  0  0  0
   -2.1226    0.9660   -1.0982 C   0  0  0  0  0  0  0  0  0  0  0  0
   -1.5885   -0.4755   -1.1725 C   0  0  0  0  0  0  0  0  0  0  0  0
   -0.1856   -0.4058   -1.8287 C   0  0  0  0  0  0  0  0  0  0  0  0
    0.8150   -0.2888   -0.6961 C   0  0  0  0  0  0  0  0  0  0  0  0
    2.0757   -0.3190   -0.3668 C   0  0  0  0  0  0  0  0  0  0  0  0
    2.2556   -0.2476    1.1346 C   0  0  0  0  0  0  0  0  0  0  0  0
    0.8431   -0.5398    1.7108 C   0  0  0  0  0  0  0  0  0  0  0  0
   -0.0266   -0.0692    0.5536 C   0  0  0  0  0  0  0  0  0  0  0  0
   -1.2838   -0.9078    0.2952 C   0  0  0  0  0  0  0  0  0  0  0  0
   -2.4209   -0.5136    1.2400 C   0  0  0  0  0  0  0  0  0  0  0  0
   -0.9832   -2.4053    0.3844 C   0  0  0  0  0  0  0  0  0  0  0  0
    3.2097   -0.4138   -1.3548 C   0  0  0  0  0  0  0  0  0  0  0  0
    0.5775    3.2759    1.0978 H   0  0  0  0  0  0  0  0  0  0  0  0
    1.2615    1.8761    1.9587 H   0  0  0  0  0  0  0  0  0  0  0  0
    1.5869    2.0993    0.2230 H   0  0  0  0  0  0  0  0  0  0  0  0
   -1.1431    1.5279    1.4632 H   0  0  0  0  0  0  0  0  0  0  0  0
   -1.3715    2.9039   -0.5327 H   0  0  0  0  0  0  0  0  0  0  0  0
   -0.2048    1.8936   -1.4158 H   0  0  0  0  0  0  0  0  0  0  0  0
   -2.9373    1.0168   -0.3758 H   0  0  0  0  0  0  0  0  0  0  0  0
   -2.4829    1.2731   -2.0800 H   0  0  0  0  0  0  0  0  0  0  0  0
   -2.2672   -1.1506   -1.6937 H   0  0  0  0  0  0  0  0  0  0  0  0
    0.0039   -1.3130   -2.4024 H   0  0  0  0  0  0  0  0  0  0  0  0
   -0.1195    0.4676   -2.4774 H   0  0  0  0  0  0  0  0  0  0  0  0
    2.9665   -1.0033    1.4688 H   0  0  0  0  0  0  0  0  0  0  0  0
    2.5890    0.7469    1.4309 H   0  0  0  0  0  0  0  0  0  0  0  0
    0.7063   -1.6044    1.9000 H   0  0  0  0  0  0  0  0  0  0  0  0
    0.6546    0.0464    2.6102 H   0  0  0  0  0  0  0  0  0  0  0  0
   -2.5835    0.5627    1.1837 H   0  0  0  0  0  0  0  0  0  0  0  0
   -3.3328   -1.0346    0.9482 H   0  0  0  0  0  0  0  0  0  0  0  0
   -2.1564   -0.7882    2.2612 H   0  0  0  0  0  0  0  0  0  0  0  0
   -0.6080   -2.6419    1.3801 H   0  0  0  0  0  0  0  0  0  0  0  0
   -1.8958   -2.9709    0.1961 H   0  0  0  0  0  0  0  0  0  0  0  0
   -0.2317   -2.6700   -0.3594 H   0  0  0  0  0  0  0  0  0  0  0  0
    3.5218    0.5889   -1.6470 H   0  0  0  0  0  0  0  0  0  0  0  0
    4.0489   -0.9362   -0.8956 H   0  0  0  0  0  0  0  0  0  0  0  0
    2.8786   -0.9626   -2.2364 H   0  0  0  0  0  0  0  0  0  0  0  0
  1  2  1  0  0  0  0
  2  3  1  0  0  0  0
  3  4  1  0  0  0  0
  4  5  1  0  0  0  0
  5  6  1  0  0  0  0
  6  7  1  0  0  0  0
  7  8  2  0  0  0  0
  8  9  1  0  0  0  0
  9 10  1  0  0  0  0
 10 11  1  0  0  0  0
  2 11  1  0  0  0  0
  7 11  1  0  0  0  0
 11 12  1  0  0  0  0
  5 12  1  0  0  0  0
 12 13  1  0  0  0  0
 12 14  1  0  0  0  0
  8 15  1  0  0  0  0
  1 16  1  0  0  0  0
  1 17  1  0  0  0  0
  1 18  1  0  0  0  0
  2 19  1  0  0  0  0
  3 20  1  0  0  0  0
  3 21  1  0  0  0  0
  4 22  1  0  0  0  0
  4 23  1  0  0  0  0
  5 24  1  0  0  0  0
  6 25  1  0  0  0  0
  6 26  1  0  0  0  0
  9 27  1  0  0  0  0
  9 28  1  0  0  0  0
 10 29  1  0  0  0  0
 10 30  1  0  0  0  0
 13 31  1  0  0  0  0
 13 32  1  0  0  0  0
 13 33  1  0  0  0  0
 14 34  1  0  0  0  0
 14 35  1  0  0  0  0
 14 36  1  0  0  0  0
 15 37  1  0  0  0  0
 15 38  1  0  0  0  0
 15 39  1  0  0  0  0
M  END
$$$$
