C32H22O10
APtclcactv06281817253D 0   0.00000     0.00000
 
 64 69  0  0  0  0  0  0  0  0999 V2000
   -2.1118    5.3674    0.0185 C   0  0  0  0  0  0  0  0  0  0  0  0
   -1.6035    4.0333    0.0810 O   0  0  0  0  0  0  0  0  0  0  0  0
   -2.5076    3.0246   -0.0071 C   0  0  0  0  0  0  0  0  0  0  0  0
   -2.0734    1.6977    0.0476 C   0  0  0  0  0  0  0  0  0  0  0  0
   -3.0035    0.6588   -0.0426 C   0  0  0  0  0  0  0  0  0  0  0  0
   -4.3656    0.9653   -0.1875 C   0  0  0  0  0  0  0  0  0  0  0  0
   -4.7879    2.3003   -0.2415 C   0  0  0  0  0  0  0  0  0  0  0  0
   -3.8574    3.3192   -0.1453 C   0  0  0  0  0  0  0  0  0  0  0  0
   -6.1059    2.5926   -0.3820 O   0  0  0  0  0  0  0  0  0  0  0  0
   -5.3292   -0.1451   -0.2808 C   0  0  0  0  0  0  0  0  0  0  0  0
   -6.5251    0.0624   -0.4079 O   0  0  0  0  0  0  0  0  0  0  0  0
   -4.8142   -1.4613   -0.2177 C   0  0  0  0  0  0  0  0  0  0  0  0
   -3.4745   -1.6509   -0.0760 C   0  0  0  0  0  0  0  0  0  0  0  0
   -2.6069   -0.6299    0.0074 O   0  0  0  0  0  0  0  0  0  0  0  0
   -2.9557   -3.0303   -0.0115 C   0  0  0  0  0  0  0  0  0  0  0  0
   -1.7634   -3.3618   -0.6614 C   0  0  0  0  0  0  0  0  0  0  0  0
   -1.2827   -4.6509   -0.5987 C   0  0  0  0  0  0  0  0  0  0  0  0
   -1.9812   -5.6215    0.1094 C   0  0  0  0  0  0  0  0  0  0  0  0
   -3.1671   -5.2963    0.7570 C   0  0  0  0  0  0  0  0  0  0  0  0
   -3.6520   -4.0082    0.7043 C   0  0  0  0  0  0  0  0  0  0  0  0
   -1.5040   -6.8911    0.1683 O   0  0  0  0  0  0  0  0  0  0  0  0
   -0.6306    1.3931    0.2004 C   0  0  0  0  0  0  0  0  0  0  0  0
   -0.0735    1.2574    1.4790 C   0  0  0  0  0  0  0  0  0  0  0  0
    1.2723    0.9730    1.6326 C   0  0  0  0  0  0  0  0  0  0  0  0
    2.0848    0.8192    0.5191 C   0  0  0  0  0  0  0  0  0  0  0  0
    1.5335    0.9533   -0.7680 C   0  0  0  0  0  0  0  0  0  0  0  0
    0.1731    1.2354   -0.9278 C   0  0  0  0  0  0  0  0  0  0  0  0
   -0.3579    1.3646   -2.1700 O   0  0  0  0  0  0  0  0  0  0  0  0
    2.4193    0.7849   -1.9331 C   0  0  0  0  0  0  0  0  0  0  0  0
    1.9952    0.8907   -3.0725 O   0  0  0  0  0  0  0  0  0  0  0  0
    3.7809    0.4963   -1.6796 C   0  0  0  0  0  0  0  0  0  0  0  0
    4.2155    0.3867   -0.3952 C   0  0  0  0  0  0  0  0  0  0  0  0
    3.3991    0.5425    0.6588 O   0  0  0  0  0  0  0  0  0  0  0  0
    5.6387    0.0853   -0.1514 C   0  0  0  0  0  0  0  0  0  0  0  0
    6.3200    0.7172    0.8927 C   0  0  0  0  0  0  0  0  0  0  0  0
    7.6489    0.4329    1.1168 C   0  0  0  0  0  0  0  0  0  0  0  0
    8.3123   -0.4808    0.3065 C   0  0  0  0  0  0  0  0  0  0  0  0
    7.6387   -1.1114   -0.7327 C   0  0  0  0  0  0  0  0  0  0  0  0
    6.3083   -0.8373   -0.9603 C   0  0  0  0  0  0  0  0  0  0  0  0
    9.6223   -0.7578    0.5306 O   0  0  0  0  0  0  0  0  0  0  0  0
   -0.8598    1.4064    2.5754 O   0  0  0  0  0  0  0  0  0  0  0  0
   -0.2312    1.2558    3.8498 C   0  0  0  0  0  0  0  0  0  0  0  0
   -2.6252    5.5164   -0.9314 H   0  0  0  0  0  0  0  0  0  0  0  0
   -2.8114    5.5285    0.8387 H   0  0  0  0  0  0  0  0  0  0  0  0
   -1.2867    6.0748    0.1004 H   0  0  0  0  0  0  0  0  0  0  0  0
   -4.1813    4.3487   -0.1867 H   0  0  0  0  0  0  0  0  0  0  0  0
   -6.5801    2.6836    0.4558 H   0  0  0  0  0  0  0  0  0  0  0  0
   -5.4798   -2.3094   -0.2812 H   0  0  0  0  0  0  0  0  0  0  0  0
   -1.2202   -2.6082   -1.2121 H   0  0  0  0  0  0  0  0  0  0  0  0
   -0.3617   -4.9079   -1.1008 H   0  0  0  0  0  0  0  0  0  0  0  0
   -3.7070   -6.0537    1.3059 H   0  0  0  0  0  0  0  0  0  0  0  0
   -4.5735   -3.7563    1.2081 H   0  0  0  0  0  0  0  0  0  0  0  0
   -0.9111   -7.0541    0.9146 H   0  0  0  0  0  0  0  0  0  0  0  0
    1.6913    0.8709    2.6228 H   0  0  0  0  0  0  0  0  0  0  0  0
   -0.6895    0.5368   -2.5440 H   0  0  0  0  0  0  0  0  0  0  0  0
    4.4705    0.3637   -2.5002 H   0  0  0  0  0  0  0  0  0  0  0  0
    5.8053    1.4276    1.5226 H   0  0  0  0  0  0  0  0  0  0  0  0
    8.1762    0.9209    1.9231 H   0  0  0  0  0  0  0  0  0  0  0  0
    8.1580   -1.8207   -1.3600 H   0  0  0  0  0  0  0  0  0  0  0  0
    5.7856   -1.3278   -1.7681 H   0  0  0  0  0  0  0  0  0  0  0  0
    9.7700   -1.4916    1.1428 H   0  0  0  0  0  0  0  0  0  0  0  0
    0.1950    0.2556    3.9288 H   0  0  0  0  0  0  0  0  0  0  0  0
    0.5607    1.9974    3.9543 H   0  0  0  0  0  0  0  0  0  0  0  0
   -0.9698    1.3993    4.6385 H   0  0  0  0  0  0  0  0  0  0  0  0
  1  2  1  0  0  0  0
  2  3  1  0  0  0  0
  3  4  2  0  0  0  0
  4  5  1  0  0  0  0
  5  6  2  0  0  0  0
  6  7  1  0  0  0  0
  7  8  2  0  0  0  0
  3  8  1  0  0  0  0
  7  9  1  0  0  0  0
  6 10  1  0  0  0  0
 10 11  2  0  0  0  0
 10 12  1  0  0  0  0
 12 13  2  0  0  0  0
 13 14  1  0  0  0  0
  5 14  1  0  0  0  0
 13 15  1  0  0  0  0
 15 16  2  0  0  0  0
 16 17  1  0  0  0  0
 17 18  2  0  0  0  0
 18 19  1  0  0  0  0
 19 20  2  0  0  0  0
 15 20  1  0  0  0  0
 18 21  1  0  0  0  0
  4 22  1  0  0  0  0
 22 23  2  0  0  0  0
 23 24  1  0  0  0  0
 24 25  2  0  0  0  0
 25 26  1  0  0  0  0
 26 27  2  0  0  0  0
 22 27  1  0  0  0  0
 27 28  1  0  0  0  0
 26 29  1  0  0  0  0
 29 30  2  0  0  0  0
 29 31  1  0  0  0  0
 31 32  2  0  0  0  0
 32 33  1  0  0  0  0
 25 33  1  0  0  0  0
 32 34  1  0  0  0  0
 34 35  2  0  0  0  0
 35 36  1  0  0  0  0
 36 37  2  0  0  0  0
 37 38  1  0  0  0  0
 38 39  2  0  0  0  0
 34 39  1  0  0  0  0
 37 40  1  0  0  0  0
 23 41  1  0  0  0  0
 41 42  1  0  0  0  0
  1 43  1  0  0  0  0
  1 44  1  0  0  0  0
  1 45  1  0  0  0  0
  8 46  1  0  0  0  0
  9 47  1  0  0  0  0
 12 48  1  0  0  0  0
 16 49  1  0  0  0  0
 17 50  1  0  0  0  0
 19 51  1  0  0  0  0
 20 52  1  0  0  0  0
 21 53  1  0  0  0  0
 24 54  1  0  0  0  0
 28 55  1  0  0  0  0
 31 56  1  0  0  0  0
 35 57  1  0  0  0  0
 36 58  1  0  0  0  0
 38 59  1  0  0  0  0
 39 60  1  0  0  0  0
 40 61  1  0  0  0  0
 42 62  1  0  0  0  0
 42 63  1  0  0  0  0
 42 64  1  0  0  0  0
M  END
$$$$
