C8H8O2
APtclcactv06211804323D 0   0.00000     0.00000
 
 18 18  0  0  0  0  0  0  0  0999 V2000
   -2.9029   -0.0005   -0.3780 C   0  0  0  0  0  0  0  0  0  0  0  0
   -2.2506   -1.1974   -0.1480 C   0  0  0  0  0  0  0  0  0  0  0  0
   -0.9467   -1.1968    0.3111 C   0  0  0  0  0  0  0  0  0  0  0  0
   -0.2950    0.0006    0.5397 C   0  0  0  0  0  0  0  0  0  0  0  0
   -0.9469    1.1975    0.3087 C   0  0  0  0  0  0  0  0  0  0  0  0
   -2.2513    1.1969   -0.1490 C   0  0  0  0  0  0  0  0  0  0  0  0
    1.1262    0.0012    1.0411 C   0  0  0  0  0  0  0  0  0  0  0  0
    2.0726   -0.0001   -0.1317 C   0  0  0  0  0  0  0  0  0  0  0  0
    1.6378   -0.0014   -1.2590 O   0  0  0  0  0  0  0  0  0  0  0  0
    3.3987    0.0002    0.0761 O   0  0  0  0  0  0  0  0  0  0  0  0
   -3.9201   -0.0010   -0.7410 H   0  0  0  0  0  0  0  0  0  0  0  0
   -2.7598   -2.1329   -0.3266 H   0  0  0  0  0  0  0  0  0  0  0  0
   -0.4373   -2.1319    0.4915 H   0  0  0  0  0  0  0  0  0  0  0  0
   -0.4380    2.1330    0.4880 H   0  0  0  0  0  0  0  0  0  0  0  0
   -2.7608    2.1320   -0.3290 H   0  0  0  0  0  0  0  0  0  0  0  0
    1.2978    0.8919    1.6455 H   0  0  0  0  0  0  0  0  0  0  0  0
    1.2979   -0.8880    1.6475 H   0  0  0  0  0  0  0  0  0  0  0  0
    3.9658   -0.0007   -0.7072 H   0  0  0  0  0  0  0  0  0  0  0  0
  1  2  2  0  0  0  0
  2  3  1  0  0  0  0
  3  4  2  0  0  0  0
  4  5  1  0  0  0  0
  5  6  2  0  0  0  0
  1  6  1  0  0  0  0
  4  7  1  0  0  0  0
  7  8  1  0  0  0  0
  8  9  2  0  0  0  0
  8 10  1  0  0  0  0
  1 11  1  0  0  0  0
  2 12  1  0  0  0  0
  3 13  1  0  0  0  0
  5 14  1  0  0  0  0
  6 15  1  0  0  0  0
  7 16  1  0  0  0  0
  7 17  1  0  0  0  0
 10 18  1  0  0  0  0
M  END
$$$$
