C23H25NO2
APtclcactv06281817253D 0   0.00000     0.00000
 
 51 53  0  0  0  0  0  0  0  0999 V2000
   -4.3091   -1.3040    2.5069 C   0  0  0  0  0  0  0  0  0  0  0  0
   -5.4691   -1.5269    1.5712 C   0  0  0  0  0  0  0  0  0  0  0  0
   -5.4959   -0.9274    0.4067 C   0  0  0  0  0  0  0  0  0  0  0  0
   -4.3147   -0.1085   -0.0465 C   0  0  0  0  0  0  0  0  0  0  0  0
   -3.8466   -0.6034   -1.4165 C   0  0  0  0  0  0  0  0  0  0  0  0
   -2.6655    0.2155   -1.8697 C   0  0  0  0  0  0  0  0  0  0  0  0
   -1.4475   -0.2125   -1.6468 C   0  0  0  0  0  0  0  0  0  0  0  0
   -0.2683    0.5591   -2.1808 C   0  0  0  0  0  0  0  0  0  0  0  0
    0.6829    0.8668   -1.0531 C   0  0  0  0  0  0  0  0  0  0  0  0
    1.7039   -0.0277   -0.7432 C   0  0  0  0  0  0  0  0  0  0  0  0
    2.5899    0.2644    0.3111 C   0  0  0  0  0  0  0  0  0  0  0  0
    2.4511    1.4353    1.0392 C   0  0  0  0  0  0  0  0  0  0  0  0
    1.4246    2.3304    0.7233 C   0  0  0  0  0  0  0  0  0  0  0  0
    0.5422    2.0370   -0.3350 C   0  0  0  0  0  0  0  0  0  0  0  0
   -0.4546    2.9036   -0.6438 O   0  0  0  0  0  0  0  0  0  0  0  0
    1.2694    3.5709    1.4877 C   0  0  0  0  0  0  0  0  0  0  0  0
    2.0325    3.8228    2.3967 O   0  0  0  0  0  0  0  0  0  0  0  0
    3.5391   -0.8636    0.3820 C   0  0  0  0  0  0  0  0  0  0  0  0
    4.6266   -1.1495    1.2022 C   0  0  0  0  0  0  0  0  0  0  0  0
    5.3363   -2.3173    1.0161 C   0  0  0  0  0  0  0  0  0  0  0  0
    4.9698   -3.2042    0.0165 C   0  0  0  0  0  0  0  0  0  0  0  0
    3.8945   -2.9323   -0.8030 C   0  0  0  0  0  0  0  0  0  0  0  0
    3.1661   -1.7600   -0.6301 C   0  0  0  0  0  0  0  0  0  0  0  0
    2.0660   -1.2404   -1.2910 N   0  0  0  0  0  0  0  0  0  0  0  0
   -2.8854    1.5267   -2.5792 C   0  0  0  0  0  0  0  0  0  0  0  0
   -6.5984   -2.4395    1.9749 C   0  0  0  0  0  0  0  0  0  0  0  0
   -4.1850   -0.2357    2.6837 H   0  0  0  0  0  0  0  0  0  0  0  0
   -4.5035   -1.8087    3.4533 H   0  0  0  0  0  0  0  0  0  0  0  0
   -3.3997   -1.7065    2.0607 H   0  0  0  0  0  0  0  0  0  0  0  0
   -6.3644   -1.0199   -0.2285 H   0  0  0  0  0  0  0  0  0  0  0  0
   -4.6055    0.9395   -0.1187 H   0  0  0  0  0  0  0  0  0  0  0  0
   -3.5032   -0.2117    0.6739 H   0  0  0  0  0  0  0  0  0  0  0  0
   -3.5559   -1.6514   -1.3443 H   0  0  0  0  0  0  0  0  0  0  0  0
   -4.6581   -0.5002   -2.1368 H   0  0  0  0  0  0  0  0  0  0  0  0
   -1.2886   -1.1182   -1.0804 H   0  0  0  0  0  0  0  0  0  0  0  0
    0.2442   -0.0371   -2.9359 H   0  0  0  0  0  0  0  0  0  0  0  0
   -0.6157    1.4906   -2.6275 H   0  0  0  0  0  0  0  0  0  0  0  0
    3.1327    1.6553    1.8475 H   0  0  0  0  0  0  0  0  0  0  0  0
   -0.2064    3.5721   -1.2969 H   0  0  0  0  0  0  0  0  0  0  0  0
    0.4757    4.2609    1.2419 H   0  0  0  0  0  0  0  0  0  0  0  0
    4.9141   -0.4591    1.9813 H   0  0  0  0  0  0  0  0  0  0  0  0
    6.1805   -2.5412    1.6514 H   0  0  0  0  0  0  0  0  0  0  0  0
    5.5314   -4.1162   -0.1223 H   0  0  0  0  0  0  0  0  0  0  0  0
    3.6178   -3.6300   -1.5796 H   0  0  0  0  0  0  0  0  0  0  0  0
    1.6140   -1.6687   -2.0348 H   0  0  0  0  0  0  0  0  0  0  0  0
   -2.8373    2.3426   -1.8581 H   0  0  0  0  0  0  0  0  0  0  0  0
   -2.1129    1.6644   -3.3358 H   0  0  0  0  0  0  0  0  0  0  0  0
   -3.8651    1.5214   -3.0570 H   0  0  0  0  0  0  0  0  0  0  0  0
   -6.4018   -2.8433    2.9681 H   0  0  0  0  0  0  0  0  0  0  0  0
   -7.5322   -1.8775    1.9895 H   0  0  0  0  0  0  0  0  0  0  0  0
   -6.6779   -3.2578    1.2592 H   0  0  0  0  0  0  0  0  0  0  0  0
  1  2  1  0  0  0  0
  2  3  2  0  0  0  0
  3  4  1  0  0  0  0
  4  5  1  0  0  0  0
  5  6  1  0  0  0  0
  6  7  2  0  0  0  0
  7  8  1  0  0  0  0
  8  9  1  0  0  0  0
  9 10  2  0  0  0  0
 10 11  1  0  0  0  0
 11 12  2  0  0  0  0
 12 13  1  0  0  0  0
 13 14  2  0  0  0  0
  9 14  1  0  0  0  0
 14 15  1  0  0  0  0
 13 16  1  0  0  0  0
 16 17  2  0  0  0  0
 11 18  1  0  0  0  0
 18 19  2  0  0  0  0
 19 20  1  0  0  0  0
 20 21  2  0  0  0  0
 21 22  1  0  0  0  0
 22 23  2  0  0  0  0
 18 23  1  0  0  0  0
 23 24  1  0  0  0  0
 10 24  1  0  0  0  0
  6 25  1  0  0  0  0
  2 26  1  0  0  0  0
  1 27  1  0  0  0  0
  1 28  1  0  0  0  0
  1 29  1  0  0  0  0
  3 30  1  0  0  0  0
  4 31  1  0  0  0  0
  4 32  1  0  0  0  0
  5 33  1  0  0  0  0
  5 34  1  0  0  0  0
  7 35  1  0  0  0  0
  8 36  1  0  0  0  0
  8 37  1  0  0  0  0
 12 38  1  0  0  0  0
 15 39  1  0  0  0  0
 16 40  1  0  0  0  0
 19 41  1  0  0  0  0
 20 42  1  0  0  0  0
 21 43  1  0  0  0  0
 22 44  1  0  0  0  0
 24 45  1  0  0  0  0
 25 46  1  0  0  0  0
 25 47  1  0  0  0  0
 25 48  1  0  0  0  0
 26 49  1  0  0  0  0
 26 50  1  0  0  0  0
 26 51  1  0  0  0  0
M  END
$$$$
